[H]c1c([H])c([H])c(N2C([H])([H])C([H])([H])N(C(=O)C([H])([H])Sc3nnc([H])n3-c3c([H])c([H])c([H])c([H])c3C([H])([H])[H])C([H])([H])C2([H])[H])c([H])c1[H]


 28 31  0  0  0  0  0  0  0  0999 V2000
   40.0633   14.7351  -12.9288 C   0  0  0  0  0  0  0  0  0  0  0  0
   39.8950   15.9531  -12.1121 C   0  0  0  0  0  0  0  0  0  0  0  0
   40.5507   16.9789  -12.3993 O   0  0  0  0  0  0  0  0  0  0  0  0
   39.0073   15.9823  -11.0132 N   0  0  0  0  0  0  0  0  0  0  0  0
   38.2703   14.8038  -10.6718 C   0  0  0  0  0  0  0  0  0  0  0  0
   37.3439   15.0071   -9.4884 C   0  0  0  0  0  0  0  0  0  0  0  0
   36.6889   16.2921   -9.5440 N   0  0  0  0  0  0  0  0  0  0  0  0
   37.3069   17.4392  -10.2067 C   0  0  0  0  0  0  0  0  0  0  0  0
   38.8200   17.1800  -10.2219 C   0  0  0  0  0  0  0  0  0  0  0  0
   35.4279   16.4578   -8.9423 C   0  0  0  0  0  0  0  0  0  0  0  0
   35.2944   17.1797   -7.7833 C   0  0  0  0  0  0  0  0  0  0  0  0
   34.0360   17.3146   -7.2125 C   0  0  0  0  0  0  0  0  0  0  0  0
   32.9148   16.7434   -7.7782 C   0  0  0  0  0  0  0  0  0  0  0  0
   33.0467   16.0135   -8.9503 C   0  0  0  0  0  0  0  0  0  0  0  0
   34.2928   15.8792   -9.5163 C   0  0  0  0  0  0  0  0  0  0  0  0
   39.1139   14.8254  -14.4761 S   0  0  0  0  0  0  0  0  0  0  0  0
   38.4031   12.2603  -15.4097 N   0  0  0  0  0  0  0  0  0  0  0  0
   38.8999   11.2935  -16.1869 C   0  0  0  0  0  0  0  0  0  0  0  0
   40.0892   11.7187  -16.6346 N   0  0  0  0  0  0  0  0  0  0  0  0
   40.3139   12.9058  -16.1479 N   0  0  0  0  0  0  0  0  0  0  0  0
   39.2785   13.2674  -15.3807 C   0  0  0  0  0  0  0  0  0  0  0  0
   36.1082   12.0297  -17.0000 C   0  0  0  0  0  0  0  0  0  0  0  0
   36.0205   12.1055  -15.5124 C   0  0  0  0  0  0  0  0  0  0  0  0
   34.7999   12.0651  -14.8740 C   0  0  0  0  0  0  0  0  0  0  0  0
   34.7478   12.1369  -13.4861 C   0  0  0  0  0  0  0  0  0  0  0  0
   35.8786   12.2479  -12.7085 C   0  0  0  0  0  0  0  0  0  0  0  0
   37.1011   12.2888  -13.3419 C   0  0  0  0  0  0  0  0  0  0  0  0
   37.1517   12.2168  -14.7345 C   0  0  0  0  0  0  0  0  0  0  0  0
 22 23  1  0  0  0
 23 24  2  0  0  0
 24 25  1  0  0  0
 25 26  2  0  0  0
 26 27  1  0  0  0
 27 28  2  0  0  0
 28 17  1  0  0  0
 17 18  1  0  0  0
 18 19  2  0  0  0
 19 20  1  0  0  0
 20 21  2  0  0  0
 21 16  1  0  0  0
 16  1  1  0  0  0
  1  2  1  0  0  0
  2  3  2  0  0  0
  2  4  1  0  0  0
  4  5  1  0  0  0
  5  6  1  0  0  0
  6  7  1  0  0  0
  7 10  1  0  0  0
 10 11  2  0  0  0
 11 12  1  0  0  0
 12 13  2  0  0  0
 13 14  1  0  0  0
 14 15  2  0  0  0
  7  8  1  0  0  0
  8  9  1  0  0  0
 28 23  1  0  0  0
 21 17  1  0  0  0
  9  4  1  0  0  0
 15 10  1  0  0  0
M  END
> <minimizedAffinity>
-7.09142

> <CNNscore>
0.2114634961

> <CNNaffinity>
5.8143548965

> <CNN_VS>
1.2295237780

> <CNNaffinity_variance>
0.5171514153

$$$$
[H]c1c([H])c([H])c(N2C([H])([H])C([H])([H])N(C(=O)C([H])([H])Sc3nnc([H])n3-c3c([H])c([H])c([H])c([H])c3C([H])([H])[H])C([H])([H])C2([H])[H])c([H])c1[H]


 28 31  0  0  0  0  0  0  0  0999 V2000
   37.8802   14.8567  -13.3622 C   0  0  0  0  0  0  0  0  0  0  0  0
   38.8084   15.3150  -12.3099 C   0  0  0  0  0  0  0  0  0  0  0  0
   40.0413   15.2018  -12.4884 O   0  0  0  0  0  0  0  0  0  0  0  0
   38.3308   15.8793  -11.1058 N   0  0  0  0  0  0  0  0  0  0  0  0
   36.9200   15.9924  -10.8921 C   0  0  0  0  0  0  0  0  0  0  0  0
   36.5725   16.6423   -9.5666 C   0  0  0  0  0  0  0  0  0  0  0  0
   37.4503   17.7502   -9.2744 N   0  0  0  0  0  0  0  0  0  0  0  0
   38.8180   17.8003   -9.7880 C   0  0  0  0  0  0  0  0  0  0  0  0
   39.2354   16.3519  -10.0793 C   0  0  0  0  0  0  0  0  0  0  0  0
   36.9911   18.8095   -8.4702 C   0  0  0  0  0  0  0  0  0  0  0  0
   35.9058   18.6446   -7.6473 C   0  0  0  0  0  0  0  0  0  0  0  0
   35.4748   19.7146   -6.8747 C   0  0  0  0  0  0  0  0  0  0  0  0
   36.1076   20.9400   -6.9104 C   0  0  0  0  0  0  0  0  0  0  0  0
   37.2055   21.1095   -7.7411 C   0  0  0  0  0  0  0  0  0  0  0  0
   37.6329   20.0502   -8.5068 C   0  0  0  0  0  0  0  0  0  0  0  0
   37.3264   13.1495  -13.0750 S   0  0  0  0  0  0  0  0  0  0  0  0
   35.4317   12.3587  -15.0093 N   0  0  0  0  0  0  0  0  0  0  0  0
   34.1082   12.3700  -15.1920 C   0  0  0  0  0  0  0  0  0  0  0  0
   33.5639   12.9305  -14.1032 N   0  0  0  0  0  0  0  0  0  0  0  0
   34.5216   13.2522  -13.2812 N   0  0  0  0  0  0  0  0  0  0  0  0
   35.6965   12.9067  -13.8214 C   0  0  0  0  0  0  0  0  0  0  0  0
   34.5376   10.4221  -16.8255 C   0  0  0  0  0  0  0  0  0  0  0  0
   35.9540   10.8912  -16.8217 C   0  0  0  0  0  0  0  0  0  0  0  0
   36.8693   10.3809  -17.7166 C   0  0  0  0  0  0  0  0  0  0  0  0
   38.1829   10.8370  -17.6911 C   0  0  0  0  0  0  0  0  0  0  0  0
   38.6173   11.7906  -16.7980 C   0  0  0  0  0  0  0  0  0  0  0  0
   37.7062   12.3037  -15.9012 C   0  0  0  0  0  0  0  0  0  0  0  0
   36.3886   11.8450  -15.9281 C   0  0  0  0  0  0  0  0  0  0  0  0
 22 23  1  0  0  0
 23 24  2  0  0  0
 24 25  1  0  0  0
 25 26  2  0  0  0
 26 27  1  0  0  0
 27 28  2  0  0  0
 28 17  1  0  0  0
 17 18  1  0  0  0
 18 19  2  0  0  0
 19 20  1  0  0  0
 20 21  2  0  0  0
 21 16  1  0  0  0
 16  1  1  0  0  0
  1  2  1  0  0  0
  2  3  2  0  0  0
  2  4  1  0  0  0
  4  5  1  0  0  0
  5  6  1  0  0  0
  6  7  1  0  0  0
  7 10  1  0  0  0
 10 11  2  0  0  0
 11 12  1  0  0  0
 12 13  2  0  0  0
 13 14  1  0  0  0
 14 15  2  0  0  0
  7  8  1  0  0  0
  8  9  1  0  0  0
 28 23  1  0  0  0
 21 17  1  0  0  0
  9  4  1  0  0  0
 15 10  1  0  0  0
M  END
> <minimizedAffinity>
-8.35954

> <CNNscore>
0.2046379745

> <CNNaffinity>
5.7735328674

> <CNN_VS>
1.1814841032

> <CNNaffinity_variance>
0.3202563524

$$$$
[H]c1c([H])c([H])c(N2C([H])([H])C([H])([H])N(C(=O)C([H])([H])Sc3nnc([H])n3-c3c([H])c([H])c([H])c([H])c3C([H])([H])[H])C([H])([H])C2([H])[H])c([H])c1[H]


 28 31  0  0  0  0  0  0  0  0999 V2000
   36.4709   15.5875  -12.3710 C   0  0  0  0  0  0  0  0  0  0  0  0
   37.6828   15.5666  -11.5285 C   0  0  0  0  0  0  0  0  0  0  0  0
   38.7889   15.8513  -12.0387 O   0  0  0  0  0  0  0  0  0  0  0  0
   37.6170   15.2322  -10.1573 N   0  0  0  0  0  0  0  0  0  0  0  0
   36.3550   14.8881   -9.5763 C   0  0  0  0  0  0  0  0  0  0  0  0
   36.4497   14.5823   -8.0939 C   0  0  0  0  0  0  0  0  0  0  0  0
   37.3429   15.4951   -7.4214 N   0  0  0  0  0  0  0  0  0  0  0  0
   38.4599   16.1283   -8.1200 C   0  0  0  0  0  0  0  0  0  0  0  0
   38.7977   15.2320   -9.3198 C   0  0  0  0  0  0  0  0  0  0  0  0
   37.1474   15.7837   -6.0583 C   0  0  0  0  0  0  0  0  0  0  0  0
   37.8244   15.0857   -5.0905 C   0  0  0  0  0  0  0  0  0  0  0  0
   37.5994   15.3913   -3.7550 C   0  0  0  0  0  0  0  0  0  0  0  0
   36.7142   16.3780   -3.3728 C   0  0  0  0  0  0  0  0  0  0  0  0
   36.0286   17.0857   -4.3492 C   0  0  0  0  0  0  0  0  0  0  0  0
   36.2507   16.7836   -5.6722 C   0  0  0  0  0  0  0  0  0  0  0  0
   36.7450   14.7592  -13.9656 S   0  0  0  0  0  0  0  0  0  0  0  0
   35.5597   12.3983  -14.9545 N   0  0  0  0  0  0  0  0  0  0  0  0
   34.3881   11.7577  -14.9052 C   0  0  0  0  0  0  0  0  0  0  0  0
   33.5666   12.4947  -14.1451 N   0  0  0  0  0  0  0  0  0  0  0  0
   34.2129   13.5515  -13.7425 N   0  0  0  0  0  0  0  0  0  0  0  0
   35.4579   13.5164  -14.2327 C   0  0  0  0  0  0  0  0  0  0  0  0
   35.1436   11.1514  -17.4285 C   0  0  0  0  0  0  0  0  0  0  0  0
   36.5152   11.3398  -16.8723 C   0  0  0  0  0  0  0  0  0  0  0  0
   37.6240   10.9020  -17.5637 C   0  0  0  0  0  0  0  0  0  0  0  0
   38.8907   11.0915  -17.0217 C   0  0  0  0  0  0  0  0  0  0  0  0
   39.0905   11.7069  -15.8064 C   0  0  0  0  0  0  0  0  0  0  0  0
   37.9853   12.1463  -15.1113 C   0  0  0  0  0  0  0  0  0  0  0  0
   36.7151   11.9553  -15.6563 C   0  0  0  0  0  0  0  0  0  0  0  0
 22 23  1  0  0  0
 23 24  2  0  0  0
 24 25  1  0  0  0
 25 26  2  0  0  0
 26 27  1  0  0  0
 27 28  2  0  0  0
 28 17  1  0  0  0
 17 18  1  0  0  0
 18 19  2  0  0  0
 19 20  1  0  0  0
 20 21  2  0  0  0
 21 16  1  0  0  0
 16  1  1  0  0  0
  1  2  1  0  0  0
  2  3  2  0  0  0
  2  4  1  0  0  0
  4  5  1  0  0  0
  5  6  1  0  0  0
  6  7  1  0  0  0
  7 10  1  0  0  0
 10 11  2  0  0  0
 11 12  1  0  0  0
 12 13  2  0  0  0
 13 14  1  0  0  0
 14 15  2  0  0  0
  7  8  1  0  0  0
  8  9  1  0  0  0
 28 23  1  0  0  0
 21 17  1  0  0  0
  9  4  1  0  0  0
 15 10  1  0  0  0
M  END
> <minimizedAffinity>
-8.01772

> <CNNscore>
0.1569974720

> <CNNaffinity>
5.5075998306

> <CNN_VS>
0.8646792769

> <CNNaffinity_variance>
0.4941852987

$$$$
[H]c1c([H])c([H])c(N2C([H])([H])C([H])([H])N(C(=O)C([H])([H])Sc3nnc([H])n3-c3c([H])c([H])c([H])c([H])c3C([H])([H])[H])C([H])([H])C2([H])[H])c([H])c1[H]


 28 31  0  0  0  0  0  0  0  0999 V2000
   36.0553   15.7834   -9.9377 C   0  0  0  0  0  0  0  0  0  0  0  0
   36.7663   15.7673  -11.2311 C   0  0  0  0  0  0  0  0  0  0  0  0
   37.9173   16.2518  -11.3037 O   0  0  0  0  0  0  0  0  0  0  0  0
   36.1721   15.2147  -12.3878 N   0  0  0  0  0  0  0  0  0  0  0  0
   34.8480   14.6768  -12.3107 C   0  0  0  0  0  0  0  0  0  0  0  0
   34.3663   14.0991  -13.6276 C   0  0  0  0  0  0  0  0  0  0  0  0
   35.4156   13.3725  -14.3019 N   0  0  0  0  0  0  0  0  0  0  0  0
   36.8252   13.7102  -14.1124 C   0  0  0  0  0  0  0  0  0  0  0  0
   36.8724   15.1747  -13.6541 C   0  0  0  0  0  0  0  0  0  0  0  0
   35.0844   12.3168  -15.1709 C   0  0  0  0  0  0  0  0  0  0  0  0
   33.8235   11.7760  -15.1673 C   0  0  0  0  0  0  0  0  0  0  0  0
   33.5349   10.7288  -16.0320 C   0  0  0  0  0  0  0  0  0  0  0  0
   34.4806   10.2163  -16.8960 C   0  0  0  0  0  0  0  0  0  0  0  0
   35.7561   10.7613  -16.9021 C   0  0  0  0  0  0  0  0  0  0  0  0
   36.0428   11.7984  -16.0458 C   0  0  0  0  0  0  0  0  0  0  0  0
   36.9008   16.8320   -8.7173 S   0  0  0  0  0  0  0  0  0  0  0  0
   36.2960   16.9486   -5.9646 N   0  0  0  0  0  0  0  0  0  0  0  0
   35.2320   17.0842   -5.1680 C   0  0  0  0  0  0  0  0  0  0  0  0
   34.1574   17.1989   -5.9604 N   0  0  0  0  0  0  0  0  0  0  0  0
   34.5497   17.1353   -7.2008 N   0  0  0  0  0  0  0  0  0  0  0  0
   35.8787   16.9793   -7.2320 C   0  0  0  0  0  0  0  0  0  0  0  0
   37.7992   19.2932   -5.6620 C   0  0  0  0  0  0  0  0  0  0  0  0
   38.3854   17.9505   -5.3797 C   0  0  0  0  0  0  0  0  0  0  0  0
   39.6921   17.8243   -4.9604 C   0  0  0  0  0  0  0  0  0  0  0  0
   40.2122   16.5602   -4.7039 C   0  0  0  0  0  0  0  0  0  0  0  0
   39.4689   15.4108   -4.8519 C   0  0  0  0  0  0  0  0  0  0  0  0
   38.1623   15.5316   -5.2710 C   0  0  0  0  0  0  0  0  0  0  0  0
   37.6419   16.8005   -5.5281 C   0  0  0  0  0  0  0  0  0  0  0  0
 22 23  1  0  0  0
 23 24  2  0  0  0
 24 25  1  0  0  0
 25 26  2  0  0  0
 26 27  1  0  0  0
 27 28  2  0  0  0
 28 17  1  0  0  0
 17 18  1  0  0  0
 18 19  2  0  0  0
 19 20  1  0  0  0
 20 21  2  0  0  0
 21 16  1  0  0  0
 16  1  1  0  0  0
  1  2  1  0  0  0
  2  3  2  0  0  0
  2  4  1  0  0  0
  4  5  1  0  0  0
  5  6  1  0  0  0
  6  7  1  0  0  0
  7 10  1  0  0  0
 10 11  2  0  0  0
 11 12  1  0  0  0
 12 13  2  0  0  0
 13 14  1  0  0  0
 14 15  2  0  0  0
  7  8  1  0  0  0
  8  9  1  0  0  0
 28 23  1  0  0  0
 21 17  1  0  0  0
  9  4  1  0  0  0
 15 10  1  0  0  0
M  END
> <minimizedAffinity>
-6.82106

> <CNNscore>
0.1186158210

> <CNNaffinity>
5.2820348740

> <CNN_VS>
0.6265329123

> <CNNaffinity_variance>
0.3886529803

$$$$
[H]c1c([H])c([H])c(N2C([H])([H])C([H])([H])N(C(=O)C([H])([H])Sc3nnc([H])n3-c3c([H])c([H])c([H])c([H])c3C([H])([H])[H])C([H])([H])C2([H])[H])c([H])c1[H]


 28 31  0  0  0  0  0  0  0  0999 V2000
   42.5745   12.8736  -15.3587 C   0  0  0  0  0  0  0  0  0  0  0  0
   41.7639   12.4173  -16.5048 C   0  0  0  0  0  0  0  0  0  0  0  0
   42.3255   11.8376  -17.4605 O   0  0  0  0  0  0  0  0  0  0  0  0
   40.3664   12.6223  -16.5425 N   0  0  0  0  0  0  0  0  0  0  0  0
   39.7250   13.3020  -15.4584 C   0  0  0  0  0  0  0  0  0  0  0  0
   38.2234   13.4170  -15.6376 C   0  0  0  0  0  0  0  0  0  0  0  0
   37.6606   12.2027  -16.1784 N   0  0  0  0  0  0  0  0  0  0  0  0
   38.4424   11.3097  -17.0318 C   0  0  0  0  0  0  0  0  0  0  0  0
   39.5619   12.1572  -17.6525 C   0  0  0  0  0  0  0  0  0  0  0  0
   36.3257   11.8648  -15.8898 C   0  0  0  0  0  0  0  0  0  0  0  0
   35.7223   12.3128  -14.7420 C   0  0  0  0  0  0  0  0  0  0  0  0
   34.4065   11.9517  -14.4851 C   0  0  0  0  0  0  0  0  0  0  0  0
   33.6876   11.1551  -15.3522 C   0  0  0  0  0  0  0  0  0  0  0  0
   34.2949   10.7011  -16.5137 C   0  0  0  0  0  0  0  0  0  0  0  0
   35.5982   11.0580  -16.7688 C   0  0  0  0  0  0  0  0  0  0  0  0
   44.2007   13.4902  -15.8870 S   0  0  0  0  0  0  0  0  0  0  0  0
   45.8129   13.9748  -13.6237 N   0  0  0  0  0  0  0  0  0  0  0  0
   46.7370   13.3501  -12.8881 C   0  0  0  0  0  0  0  0  0  0  0  0
   46.9121   12.1341  -13.4232 N   0  0  0  0  0  0  0  0  0  0  0  0
   46.1223   12.0176  -14.4523 N   0  0  0  0  0  0  0  0  0  0  0  0
   45.4256   13.1509  -14.5998 C   0  0  0  0  0  0  0  0  0  0  0  0
   43.5496   14.2318  -11.9927 C   0  0  0  0  0  0  0  0  0  0  0  0
   44.2137   15.4236  -12.5966 C   0  0  0  0  0  0  0  0  0  0  0  0
   43.7289   16.6933  -12.3688 C   0  0  0  0  0  0  0  0  0  0  0  0
   44.3683   17.7863  -12.9438 C   0  0  0  0  0  0  0  0  0  0  0  0
   45.4818   17.6553  -13.7430 C   0  0  0  0  0  0  0  0  0  0  0  0
   45.9703   16.3881  -13.9739 C   0  0  0  0  0  0  0  0  0  0  0  0
   45.3275   15.2925  -13.3963 C   0  0  0  0  0  0  0  0  0  0  0  0
 22 23  1  0  0  0
 23 24  2  0  0  0
 24 25  1  0  0  0
 25 26  2  0  0  0
 26 27  1  0  0  0
 27 28  2  0  0  0
 28 17  1  0  0  0
 17 18  1  0  0  0
 18 19  2  0  0  0
 19 20  1  0  0  0
 20 21  2  0  0  0
 21 16  1  0  0  0
 16  1  1  0  0  0
  1  2  1  0  0  0
  2  3  2  0  0  0
  2  4  1  0  0  0
  4  5  1  0  0  0
  5  6  1  0  0  0
  6  7  1  0  0  0
  7 10  1  0  0  0
 10 11  2  0  0  0
 11 12  1  0  0  0
 12 13  2  0  0  0
 13 14  1  0  0  0
 14 15  2  0  0  0
  7  8  1  0  0  0
  8  9  1  0  0  0
 28 23  1  0  0  0
 21 17  1  0  0  0
  9  4  1  0  0  0
 15 10  1  0  0  0
M  END
> <minimizedAffinity>
-7.56841

> <CNNscore>
0.1169366464

> <CNNaffinity>
6.0398659706

> <CNN_VS>
0.7062816620

> <CNNaffinity_variance>
0.0387757160

$$$$
[H]c1c([H])c([H])c(N2C([H])([H])C([H])([H])N(C(=O)C([H])([H])Sc3nnc([H])n3-c3c([H])c([H])c([H])c([H])c3C([H])([H])[H])C([H])([H])C2([H])[H])c([H])c1[H]


 28 31  0  0  0  0  0  0  0  0999 V2000
   35.6142   15.0080  -10.2806 C   0  0  0  0  0  0  0  0  0  0  0  0
   36.9100   14.9887  -10.9873 C   0  0  0  0  0  0  0  0  0  0  0  0
   37.9564   15.2556  -10.3560 O   0  0  0  0  0  0  0  0  0  0  0  0
   36.9908   14.6739  -12.3624 N   0  0  0  0  0  0  0  0  0  0  0  0
   35.7925   14.3865  -13.0905 C   0  0  0  0  0  0  0  0  0  0  0  0
   36.0518   14.0421  -14.5445 C   0  0  0  0  0  0  0  0  0  0  0  0
   37.2179   13.2039  -14.6899 N   0  0  0  0  0  0  0  0  0  0  0  0
   38.3211   13.2532  -13.7322 C   0  0  0  0  0  0  0  0  0  0  0  0
   38.2604   14.6305  -13.0565 C   0  0  0  0  0  0  0  0  0  0  0  0
   37.3087   12.3198  -15.7805 C   0  0  0  0  0  0  0  0  0  0  0  0
   36.1771   11.8575  -16.4035 C   0  0  0  0  0  0  0  0  0  0  0  0
   36.3044   10.9787  -17.4708 C   0  0  0  0  0  0  0  0  0  0  0  0
   37.5374   10.5570  -17.9237 C   0  0  0  0  0  0  0  0  0  0  0  0
   38.6833   11.0231  -17.2960 C   0  0  0  0  0  0  0  0  0  0  0  0
   38.5581   11.8934  -16.2387 C   0  0  0  0  0  0  0  0  0  0  0  0
   35.7511   15.7876   -8.6444 S   0  0  0  0  0  0  0  0  0  0  0  0
   35.2343   14.2862   -6.3131 N   0  0  0  0  0  0  0  0  0  0  0  0
   35.7590   13.2632   -5.6322 C   0  0  0  0  0  0  0  0  0  0  0  0
   36.8522   12.8653   -6.2972 N   0  0  0  0  0  0  0  0  0  0  0  0
   36.9930   13.6193   -7.3500 N   0  0  0  0  0  0  0  0  0  0  0  0
   35.9977   14.5136   -7.3840 C   0  0  0  0  0  0  0  0  0  0  0  0
   35.5621   16.4935   -4.6193 C   0  0  0  0  0  0  0  0  0  0  0  0
   34.2157   16.0880   -5.1185 C   0  0  0  0  0  0  0  0  0  0  0  0
   33.0873   16.7917   -4.7573 C   0  0  0  0  0  0  0  0  0  0  0  0
   31.8450   16.3918   -5.2380 C   0  0  0  0  0  0  0  0  0  0  0  0
   31.6891   15.3076   -6.0722 C   0  0  0  0  0  0  0  0  0  0  0  0
   32.8140   14.6008   -6.4360 C   0  0  0  0  0  0  0  0  0  0  0  0
   34.0597   15.0032   -5.9527 C   0  0  0  0  0  0  0  0  0  0  0  0
 22 23  1  0  0  0
 23 24  2  0  0  0
 24 25  1  0  0  0
 25 26  2  0  0  0
 26 27  1  0  0  0
 27 28  2  0  0  0
 28 17  1  0  0  0
 17 18  1  0  0  0
 18 19  2  0  0  0
 19 20  1  0  0  0
 20 21  2  0  0  0
 21 16  1  0  0  0
 16  1  1  0  0  0
  1  2  1  0  0  0
  2  3  2  0  0  0
  2  4  1  0  0  0
  4  5  1  0  0  0
  5  6  1  0  0  0
  6  7  1  0  0  0
  7 10  1  0  0  0
 10 11  2  0  0  0
 11 12  1  0  0  0
 12 13  2  0  0  0
 13 14  1  0  0  0
 14 15  2  0  0  0
  7  8  1  0  0  0
  8  9  1  0  0  0
 28 23  1  0  0  0
 21 17  1  0  0  0
  9  4  1  0  0  0
 15 10  1  0  0  0
M  END
> <minimizedAffinity>
-8.37146

> <CNNscore>
0.1126518995

> <CNNaffinity>
5.1590466499

> <CNN_VS>
0.5811764002

> <CNNaffinity_variance>
0.4294263721

$$$$
[H]c1c([H])c([H])c(N2C([H])([H])C([H])([H])N(C(=O)C([H])([H])Sc3nnc([H])n3-c3c([H])c([H])c([H])c([H])c3C([H])([H])[H])C([H])([H])C2([H])[H])c([H])c1[H]


 28 31  0  0  0  0  0  0  0  0999 V2000
   36.3498   15.1969   -9.1167 C   0  0  0  0  0  0  0  0  0  0  0  0
   37.2675   14.9919  -10.2545 C   0  0  0  0  0  0  0  0  0  0  0  0
   38.5017   15.0774  -10.0695 O   0  0  0  0  0  0  0  0  0  0  0  0
   36.7786   14.7002  -11.5477 N   0  0  0  0  0  0  0  0  0  0  0  0
   35.3662   14.6203  -11.7650 C   0  0  0  0  0  0  0  0  0  0  0  0
   35.0064   14.2734  -13.1968 C   0  0  0  0  0  0  0  0  0  0  0  0
   35.8900   13.2671  -13.7354 N   0  0  0  0  0  0  0  0  0  0  0  0
   37.2649   13.1214  -13.2609 C   0  0  0  0  0  0  0  0  0  0  0  0
   37.6734   14.4752  -12.6632 C   0  0  0  0  0  0  0  0  0  0  0  0
   35.4293   12.4051  -14.7474 C   0  0  0  0  0  0  0  0  0  0  0  0
   34.1150   12.0139  -14.7897 C   0  0  0  0  0  0  0  0  0  0  0  0
   33.6977   11.1549  -15.7974 C   0  0  0  0  0  0  0  0  0  0  0  0
   34.5676   10.6834  -16.7589 C   0  0  0  0  0  0  0  0  0  0  0  0
   35.8969   11.0775  -16.7189 C   0  0  0  0  0  0  0  0  0  0  0  0
   36.3111   11.9282  -15.7210 C   0  0  0  0  0  0  0  0  0  0  0  0
   36.9232   14.3316   -7.6246 S   0  0  0  0  0  0  0  0  0  0  0  0
   35.8218   15.9026   -5.5568 N   0  0  0  0  0  0  0  0  0  0  0  0
   36.2282   16.7297   -4.5894 C   0  0  0  0  0  0  0  0  0  0  0  0
   37.5645   16.7970   -4.6628 N   0  0  0  0  0  0  0  0  0  0  0  0
   37.9636   16.0370   -5.6425 N   0  0  0  0  0  0  0  0  0  0  0  0
   36.8972   15.4675   -6.2169 C   0  0  0  0  0  0  0  0  0  0  0  0
   34.3538   17.6459   -7.1861 C   0  0  0  0  0  0  0  0  0  0  0  0
   33.7446   16.4037   -6.6273 C   0  0  0  0  0  0  0  0  0  0  0  0
   32.4334   16.0769   -6.8974 C   0  0  0  0  0  0  0  0  0  0  0  0
   31.8917   14.9124   -6.3638 C   0  0  0  0  0  0  0  0  0  0  0  0
   32.6177   14.0574   -5.5653 C   0  0  0  0  0  0  0  0  0  0  0  0
   33.9289   14.3798   -5.2922 C   0  0  0  0  0  0  0  0  0  0  0  0
   34.4709   15.5486   -5.8282 C   0  0  0  0  0  0  0  0  0  0  0  0
 22 23  1  0  0  0
 23 24  2  0  0  0
 24 25  1  0  0  0
 25 26  2  0  0  0
 26 27  1  0  0  0
 27 28  2  0  0  0
 28 17  1  0  0  0
 17 18  1  0  0  0
 18 19  2  0  0  0
 19 20  1  0  0  0
 20 21  2  0  0  0
 21 16  1  0  0  0
 16  1  1  0  0  0
  1  2  1  0  0  0
  2  3  2  0  0  0
  2  4  1  0  0  0
  4  5  1  0  0  0
  5  6  1  0  0  0
  6  7  1  0  0  0
  7 10  1  0  0  0
 10 11  2  0  0  0
 11 12  1  0  0  0
 12 13  2  0  0  0
 13 14  1  0  0  0
 14 15  2  0  0  0
  7  8  1  0  0  0
  8  9  1  0  0  0
 28 23  1  0  0  0
 21 17  1  0  0  0
  9  4  1  0  0  0
 15 10  1  0  0  0
M  END
> <minimizedAffinity>
-7.22104

> <CNNscore>
0.0956965536

> <CNNaffinity>
5.0716466904

> <CNN_VS>
0.4853391051

> <CNNaffinity_variance>
0.6666603088

$$$$
[H]c1c([H])c([H])c(N2C([H])([H])C([H])([H])N(C(=O)C([H])([H])Sc3nnc([H])n3-c3c([H])c([H])c([H])c([H])c3C([H])([H])[H])C([H])([H])C2([H])[H])c([H])c1[H]


 28 31  0  0  0  0  0  0  0  0999 V2000
   36.0153   15.8458   -9.9060 C   0  0  0  0  0  0  0  0  0  0  0  0
   36.7411   15.8212  -11.1911 C   0  0  0  0  0  0  0  0  0  0  0  0
   37.8936   16.3035  -11.2533 O   0  0  0  0  0  0  0  0  0  0  0  0
   36.1593   15.2627  -12.3513 N   0  0  0  0  0  0  0  0  0  0  0  0
   34.8335   14.7273  -12.2863 C   0  0  0  0  0  0  0  0  0  0  0  0
   34.3661   14.1426  -13.6053 C   0  0  0  0  0  0  0  0  0  0  0  0
   35.4218   13.4107  -14.2633 N   0  0  0  0  0  0  0  0  0  0  0  0
   36.8297   13.7473  -14.0597 C   0  0  0  0  0  0  0  0  0  0  0  0
   36.8739   15.2144  -13.6093 C   0  0  0  0  0  0  0  0  0  0  0  0
   35.0990   12.3503  -15.1299 C   0  0  0  0  0  0  0  0  0  0  0  0
   36.0263   11.8623  -16.0154 C   0  0  0  0  0  0  0  0  0  0  0  0
   35.6697   10.8214  -16.8620 C   0  0  0  0  0  0  0  0  0  0  0  0
   34.4085   10.2627  -16.8380 C   0  0  0  0  0  0  0  0  0  0  0  0
   33.4690   10.7538  -15.9434 C   0  0  0  0  0  0  0  0  0  0  0  0
   33.8213   11.7849  -15.1046 C   0  0  0  0  0  0  0  0  0  0  0  0
   36.5171   17.2570   -8.8762 S   0  0  0  0  0  0  0  0  0  0  0  0
   35.9092   17.0686   -6.1281 N   0  0  0  0  0  0  0  0  0  0  0  0
   36.3726   16.4664   -5.0290 C   0  0  0  0  0  0  0  0  0  0  0  0
   37.4427   15.7471   -5.3940 N   0  0  0  0  0  0  0  0  0  0  0  0
   37.6291   15.9035   -6.6736 N   0  0  0  0  0  0  0  0  0  0  0  0
   36.6870   16.7227   -7.1562 C   0  0  0  0  0  0  0  0  0  0  0  0
   33.4416   15.8819   -6.7207 C   0  0  0  0  0  0  0  0  0  0  0  0
   33.5618   17.3491   -6.4778 C   0  0  0  0  0  0  0  0  0  0  0  0
   32.4553   18.1682   -6.5396 C   0  0  0  0  0  0  0  0  0  0  0  0
   32.5964   19.5322   -6.3080 C   0  0  0  0  0  0  0  0  0  0  0  0
   33.8110   20.1107   -6.0149 C   0  0  0  0  0  0  0  0  0  0  0  0
   34.9201   19.2962   -5.9522 C   0  0  0  0  0  0  0  0  0  0  0  0
   34.7769   17.9278   -6.1848 C   0  0  0  0  0  0  0  0  0  0  0  0
 22 23  1  0  0  0
 23 24  2  0  0  0
 24 25  1  0  0  0
 25 26  2  0  0  0
 26 27  1  0  0  0
 27 28  2  0  0  0
 28 17  1  0  0  0
 17 18  1  0  0  0
 18 19  2  0  0  0
 19 20  1  0  0  0
 20 21  2  0  0  0
 21 16  1  0  0  0
 16  1  1  0  0  0
  1  2  1  0  0  0
  2  3  2  0  0  0
  2  4  1  0  0  0
  4  5  1  0  0  0
  5  6  1  0  0  0
  6  7  1  0  0  0
  7 10  1  0  0  0
 10 11  2  0  0  0
 11 12  1  0  0  0
 12 13  2  0  0  0
 13 14  1  0  0  0
 14 15  2  0  0  0
  7  8  1  0  0  0
  8  9  1  0  0  0
 28 23  1  0  0  0
 21 17  1  0  0  0
  9  4  1  0  0  0
 15 10  1  0  0  0
M  END
> <minimizedAffinity>
-6.83892

> <CNNscore>
0.0769846216

> <CNNaffinity>
5.2972574234

> <CNN_VS>
0.4078073502

> <CNNaffinity_variance>
0.5198742151

$$$$
[H]c1c([H])c([H])c(N2C([H])([H])C([H])([H])N(C(=O)C([H])([H])Sc3nnc([H])n3-c3c([H])c([H])c([H])c([H])c3C([H])([H])[H])C([H])([H])C2([H])[H])c([H])c1[H]


 28 31  0  0  0  0  0  0  0  0999 V2000
   36.6053   14.9615   -8.8871 C   0  0  0  0  0  0  0  0  0  0  0  0
   37.5594   14.9957  -10.0129 C   0  0  0  0  0  0  0  0  0  0  0  0
   38.7662   15.2343   -9.7864 O   0  0  0  0  0  0  0  0  0  0  0  0
   37.1356   14.7632  -11.3406 N   0  0  0  0  0  0  0  0  0  0  0  0
   35.7520   14.5084  -11.6037 C   0  0  0  0  0  0  0  0  0  0  0  0
   35.4658   14.2528  -13.0710 C   0  0  0  0  0  0  0  0  0  0  0  0
   36.4906   13.4353  -13.6752 N   0  0  0  0  0  0  0  0  0  0  0  0
   37.8652   13.4381  -13.1780 C   0  0  0  0  0  0  0  0  0  0  0  0
   38.0694   14.7724  -12.4468 C   0  0  0  0  0  0  0  0  0  0  0  0
   36.1712   12.6179  -14.7749 C   0  0  0  0  0  0  0  0  0  0  0  0
   34.8894   12.1666  -14.9633 C   0  0  0  0  0  0  0  0  0  0  0  0
   34.6127   11.3540  -16.0545 C   0  0  0  0  0  0  0  0  0  0  0  0
   35.5906   10.9875  -16.9560 C   0  0  0  0  0  0  0  0  0  0  0  0
   36.8874   11.4427  -16.7683 C   0  0  0  0  0  0  0  0  0  0  0  0
   37.1624   12.2474  -15.6877 C   0  0  0  0  0  0  0  0  0  0  0  0
   37.0082   16.2058   -7.6250 S   0  0  0  0  0  0  0  0  0  0  0  0
   37.7352   14.6852   -5.3630 N   0  0  0  0  0  0  0  0  0  0  0  0
   37.2411   14.3523   -4.1671 C   0  0  0  0  0  0  0  0  0  0  0  0
   36.0443   14.9446   -4.0554 N   0  0  0  0  0  0  0  0  0  0  0  0
   35.8125   15.6175   -5.1463 N   0  0  0  0  0  0  0  0  0  0  0  0
   36.8508   15.4729   -5.9785 C   0  0  0  0  0  0  0  0  0  0  0  0
   39.9565   16.2752   -4.7412 C   0  0  0  0  0  0  0  0  0  0  0  0
   40.0871   15.0491   -5.5813 C   0  0  0  0  0  0  0  0  0  0  0  0
   41.3121   14.6617   -6.0798 C   0  0  0  0  0  0  0  0  0  0  0  0
   41.4047   13.5138   -6.8595 C   0  0  0  0  0  0  0  0  0  0  0  0
   40.3105   12.7342   -7.1607 C   0  0  0  0  0  0  0  0  0  0  0  0
   39.0837   13.1173   -6.6650 C   0  0  0  0  0  0  0  0  0  0  0  0
   38.9924   14.2693   -5.8828 C   0  0  0  0  0  0  0  0  0  0  0  0
 22 23  1  0  0  0
 23 24  2  0  0  0
 24 25  1  0  0  0
 25 26  2  0  0  0
 26 27  1  0  0  0
 27 28  2  0  0  0
 28 17  1  0  0  0
 17 18  1  0  0  0
 18 19  2  0  0  0
 19 20  1  0  0  0
 20 21  2  0  0  0
 21 16  1  0  0  0
 16  1  1  0  0  0
  1  2  1  0  0  0
  2  3  2  0  0  0
  2  4  1  0  0  0
  4  5  1  0  0  0
  5  6  1  0  0  0
  6  7  1  0  0  0
  7 10  1  0  0  0
 10 11  2  0  0  0
 11 12  1  0  0  0
 12 13  2  0  0  0
 13 14  1  0  0  0
 14 15  2  0  0  0
  7  8  1  0  0  0
  8  9  1  0  0  0
 28 23  1  0  0  0
 21 17  1  0  0  0
  9  4  1  0  0  0
 15 10  1  0  0  0
M  END
> <minimizedAffinity>
-7.15610

> <CNNscore>
0.0711179078

> <CNNaffinity>
5.0165929794

> <CNN_VS>
0.3567695916

> <CNNaffinity_variance>
0.2738178372

$$$$
[H]OC(C([H])([H])[H])(C([H])([H])[H])C([H])([H])C([H])([H])N([H])S(=O)(=O)c1c([H])c([H])c(C([H])([H])[H])c(-c2c([H])nc(N([H])[H])c(-c3onc(C([H])([H])[H])c3[H])c2[H])c1[H]


 34 36  0  0  0  0  0  0  0  0999 V2000
   41.3064   13.1405  -15.4623 C   0  0  0  0  0  0  0  0  0  0  0  0
   40.6748   13.9161  -14.4828 C   0  0  0  0  0  0  0  0  0  0  0  0
   41.3850   14.5245  -13.4694 C   0  0  0  0  0  0  0  0  0  0  0  0
   42.7469   14.3821  -13.3960 C   0  0  0  0  0  0  0  0  0  0  0  0
   43.3928   13.6242  -14.3480 C   0  0  0  0  0  0  0  0  0  0  0  0
   42.6636   13.0052  -15.3811 C   0  0  0  0  0  0  0  0  0  0  0  0
   43.3875   12.2081  -16.4073 C   0  0  0  0  0  0  0  0  0  0  0  0
   38.4890   11.5441  -17.3039 C   0  0  0  0  0  0  0  0  0  0  0  0
   39.2088   12.1844  -16.2848 C   0  0  0  0  0  0  0  0  0  0  0  0
   40.5331   12.4917  -16.5150 C   0  0  0  0  0  0  0  0  0  0  0  0
   41.0845   12.1539  -17.7357 C   0  0  0  0  0  0  0  0  0  0  0  0
   40.3844   11.5434  -18.6978 N   0  0  0  0  0  0  0  0  0  0  0  0
   39.0736   11.2330  -18.4857 C   0  0  0  0  0  0  0  0  0  0  0  0
   38.3729   10.5888  -19.5288 N   0  0  0  0  0  0  0  0  0  0  0  0
   38.3315    9.5494  -19.6397 H   0  0  0  0  0  0  0  0  0  0  0  0
   37.8641   11.1468  -20.2357 H   0  0  0  0  0  0  0  0  0  0  0  0
   33.7006   11.6229  -15.6258 C   0  0  0  0  0  0  0  0  0  0  0  0
   34.9883   11.2429  -16.2815 C   0  0  0  0  0  0  0  0  0  0  0  0
   36.1910   11.9752  -16.2748 C   0  0  0  0  0  0  0  0  0  0  0  0
   37.0842   11.2452  -16.9949 C   0  0  0  0  0  0  0  0  0  0  0  0
   36.4663   10.1472  -17.4096 O   0  0  0  0  0  0  0  0  0  0  0  0
   35.2597   10.1483  -16.9974 N   0  0  0  0  0  0  0  0  0  0  0  0
   40.5295   15.4894  -12.2649 S   0  0  0  0  0  0  0  0  0  0  0  0
   41.4008   15.5175  -11.0302 O   0  0  0  0  0  0  0  0  0  0  0  0
   40.2955   16.8553  -12.8059 O   0  0  0  0  0  0  0  0  0  0  0  0
   39.0921   14.6647  -11.8669 N   0  0  0  0  0  0  0  0  0  0  0  0
   39.0586   14.5943  -10.8077 H   0  0  0  0  0  0  0  0  0  0  0  0
   37.9058   15.3419  -12.3499 C   0  0  0  0  0  0  0  0  0  0  0  0
   37.0719   14.4773  -13.2383 C   0  0  0  0  0  0  0  0  0  0  0  0
   36.0062   13.7269  -12.5119 C   0  0  0  0  0  0  0  0  0  0  0  0
   34.6068   14.1076  -12.8726 C   0  0  0  0  0  0  0  0  0  0  0  0
   36.1882   12.2498  -12.7637 C   0  0  0  0  0  0  0  0  0  0  0  0
   36.1630   13.9253  -11.1387 O   0  0  0  0  0  0  0  0  0  0  0  0
   35.9553   13.1193  -10.6249 H   0  0  0  0  0  0  0  0  0  0  0  0
 17 18  1  0  0  0
 18 19  1  0  0  0
 19 20  2  0  0  0
 20  8  1  0  0  0
  8  9  2  0  0  0
  9 10  1  0  0  0
 10  1  1  0  0  0
  1  2  2  0  0  0
  2  3  1  0  0  0
  3 23  1  0  0  0
 23 24  2  0  0  0
 23 25  2  0  0  0
 23 26  1  0  0  0
 26 28  1  0  0  0
 28 29  1  0  0  0
 29 30  1  0  0  0
 30 31  1  0  0  0
 30 32  1  0  0  0
 30 33  1  0  0  0
  3  4  2  0  0  0
  4  5  1  0  0  0
  5  6  2  0  0  0
  6  7  1  0  0  0
 10 11  2  0  0  0
 11 12  1  0  0  0
 12 13  2  0  0  0
 13 14  1  0  0  0
 20 21  1  0  0  0
 21 22  1  0  0  0
 22 18  2  0  0  0
 13  8  1  0  0  0
  6  1  1  0  0  0
 26 27  1  0  0  0
 33 34  1  0  0  0
 14 15  1  0  0  0
 14 16  1  0  0  0
M  END
> <minimizedAffinity>
-9.54241

> <CNNscore>
0.9804347754

> <CNNaffinity>
8.0093574524

> <CNN_VS>
7.8526525497

> <CNNaffinity_variance>
0.0591531880

$$$$
[H]OC(C([H])([H])[H])(C([H])([H])[H])C([H])([H])C([H])([H])N([H])S(=O)(=O)c1c([H])c([H])c(C([H])([H])[H])c(-c2c([H])nc(N([H])[H])c(-c3onc(C([H])([H])[H])c3[H])c2[H])c1[H]


 34 36  0  0  0  0  0  0  0  0999 V2000
   41.6857   12.8190  -15.7857 C   0  0  0  0  0  0  0  0  0  0  0  0
   43.0707   12.6677  -15.9224 C   0  0  0  0  0  0  0  0  0  0  0  0
   43.9529   13.1995  -15.0057 C   0  0  0  0  0  0  0  0  0  0  0  0
   43.4875   13.8997  -13.9223 C   0  0  0  0  0  0  0  0  0  0  0  0
   42.1286   14.0626  -13.7644 C   0  0  0  0  0  0  0  0  0  0  0  0
   41.2317   13.5175  -14.7027 C   0  0  0  0  0  0  0  0  0  0  0  0
   39.7687   13.6916  -14.4984 C   0  0  0  0  0  0  0  0  0  0  0  0
   38.5925   11.5149  -17.4009 C   0  0  0  0  0  0  0  0  0  0  0  0
   39.4497   12.0678  -16.4384 C   0  0  0  0  0  0  0  0  0  0  0  0
   40.7719   12.2630  -16.7771 C   0  0  0  0  0  0  0  0  0  0  0  0
   41.1862   11.9047  -18.0452 C   0  0  0  0  0  0  0  0  0  0  0  0
   40.3560   11.3786  -18.9522 N   0  0  0  0  0  0  0  0  0  0  0  0
   39.0453   11.1794  -18.6327 C   0  0  0  0  0  0  0  0  0  0  0  0
   38.2048   10.6215  -19.6207 N   0  0  0  0  0  0  0  0  0  0  0  0
   38.0620    9.5923  -19.7422 H   0  0  0  0  0  0  0  0  0  0  0  0
   37.6899   11.2370  -20.2734 H   0  0  0  0  0  0  0  0  0  0  0  0
   34.0435   11.8724  -15.1805 C   0  0  0  0  0  0  0  0  0  0  0  0
   35.1997   11.4570  -16.0309 C   0  0  0  0  0  0  0  0  0  0  0  0
   36.4829   12.0363  -16.0579 C   0  0  0  0  0  0  0  0  0  0  0  0
   37.1977   11.3334  -16.9766 C   0  0  0  0  0  0  0  0  0  0  0  0
   36.4035   10.3936  -17.4722 O   0  0  0  0  0  0  0  0  0  0  0  0
   35.2537   10.4670  -16.9259 N   0  0  0  0  0  0  0  0  0  0  0  0
   45.6878   12.9736  -15.2351 S   0  0  0  0  0  0  0  0  0  0  0  0
   46.1764   12.1413  -14.0719 O   0  0  0  0  0  0  0  0  0  0  0  0
   45.9268   12.2952  -16.5373 O   0  0  0  0  0  0  0  0  0  0  0  0
   46.4282   14.5047  -15.1248 N   0  0  0  0  0  0  0  0  0  0  0  0
   45.6852   15.2258  -15.3618 H   0  0  0  0  0  0  0  0  0  0  0  0
   46.9672   14.7727  -13.8070 C   0  0  0  0  0  0  0  0  0  0  0  0
   47.2909   16.2167  -13.6010 C   0  0  0  0  0  0  0  0  0  0  0  0
   46.0893   17.0714  -13.3731 C   0  0  0  0  0  0  0  0  0  0  0  0
   45.2391   16.6704  -12.2113 C   0  0  0  0  0  0  0  0  0  0  0  0
   46.5339   18.5007  -13.1794 C   0  0  0  0  0  0  0  0  0  0  0  0
   45.2889   17.0485  -14.5170 O   0  0  0  0  0  0  0  0  0  0  0  0
   44.8751   17.9170  -14.6934 H   0  0  0  0  0  0  0  0  0  0  0  0
 17 18  1  0  0  0
 18 19  1  0  0  0
 19 20  2  0  0  0
 20  8  1  0  0  0
  8  9  2  0  0  0
  9 10  1  0  0  0
 10  1  1  0  0  0
  1  2  2  0  0  0
  2  3  1  0  0  0
  3 23  1  0  0  0
 23 24  2  0  0  0
 23 25  2  0  0  0
 23 26  1  0  0  0
 26 28  1  0  0  0
 28 29  1  0  0  0
 29 30  1  0  0  0
 30 31  1  0  0  0
 30 32  1  0  0  0
 30 33  1  0  0  0
  3  4  2  0  0  0
  4  5  1  0  0  0
  5  6  2  0  0  0
  6  7  1  0  0  0
 10 11  2  0  0  0
 11 12  1  0  0  0
 12 13  2  0  0  0
 13 14  1  0  0  0
 20 21  1  0  0  0
 21 22  1  0  0  0
 22 18  2  0  0  0
 13  8  1  0  0  0
  6  1  1  0  0  0
 26 27  1  0  0  0
 33 34  1  0  0  0
 14 15  1  0  0  0
 14 16  1  0  0  0
M  END
> <minimizedAffinity>
-9.34970

> <CNNscore>
0.9347250462

> <CNNaffinity>
7.4472594261

> <CNN_VS>
6.9611396790

> <CNNaffinity_variance>
0.0578810871

$$$$
[H]OC(C([H])([H])[H])(C([H])([H])[H])C([H])([H])C([H])([H])N([H])S(=O)(=O)c1c([H])c([H])c(C([H])([H])[H])c(-c2c([H])nc(N([H])[H])c(-c3onc(C([H])([H])[H])c3[H])c2[H])c1[H]


 34 36  0  0  0  0  0  0  0  0999 V2000
   41.7760   12.9260  -15.5910 C   0  0  0  0  0  0  0  0  0  0  0  0
   43.1588   12.7089  -15.6139 C   0  0  0  0  0  0  0  0  0  0  0  0
   43.9950   13.2541  -14.6625 C   0  0  0  0  0  0  0  0  0  0  0  0
   43.4841   14.0335  -13.6565 C   0  0  0  0  0  0  0  0  0  0  0  0
   42.1264   14.2624  -13.6111 C   0  0  0  0  0  0  0  0  0  0  0  0
   41.2765   13.7033  -14.5844 C   0  0  0  0  0  0  0  0  0  0  0  0
   39.8121   13.9503  -14.5013 C   0  0  0  0  0  0  0  0  0  0  0  0
   38.7741   11.5657  -17.3274 C   0  0  0  0  0  0  0  0  0  0  0  0
   39.5820   12.1337  -16.3317 C   0  0  0  0  0  0  0  0  0  0  0  0
   40.9127   12.3538  -16.6178 C   0  0  0  0  0  0  0  0  0  0  0  0
   41.3835   12.0042  -17.8685 C   0  0  0  0  0  0  0  0  0  0  0  0
   40.5999   11.4633  -18.8076 N   0  0  0  0  0  0  0  0  0  0  0  0
   39.2816   11.2395  -18.5403 C   0  0  0  0  0  0  0  0  0  0  0  0
   38.4914   10.6668  -19.5608 N   0  0  0  0  0  0  0  0  0  0  0  0
   38.3727    9.6352  -19.6879 H   0  0  0  0  0  0  0  0  0  0  0  0
   37.9914   11.2730  -20.2335 H   0  0  0  0  0  0  0  0  0  0  0  0
   34.1374   11.8309  -15.2823 C   0  0  0  0  0  0  0  0  0  0  0  0
   35.3324   11.4412  -16.0902 C   0  0  0  0  0  0  0  0  0  0  0  0
   36.6057   12.0418  -16.0635 C   0  0  0  0  0  0  0  0  0  0  0  0
   37.3672   11.3578  -16.9588 C   0  0  0  0  0  0  0  0  0  0  0  0
   36.6087   10.4089  -17.4914 O   0  0  0  0  0  0  0  0  0  0  0  0
   35.4375   10.4591  -16.9895 N   0  0  0  0  0  0  0  0  0  0  0  0
   45.7297   12.9425  -14.7471 S   0  0  0  0  0  0  0  0  0  0  0  0
   46.0043   12.3770  -16.1216 O   0  0  0  0  0  0  0  0  0  0  0  0
   46.4686   14.2128  -14.5159 O   0  0  0  0  0  0  0  0  0  0  0  0
   46.0944   11.7311  -13.6052 N   0  0  0  0  0  0  0  0  0  0  0  0
   47.0251   11.3064  -13.8908 H   0  0  0  0  0  0  0  0  0  0  0  0
   46.1853   12.2447  -12.2535 C   0  0  0  0  0  0  0  0  0  0  0  0
   47.1509   11.4769  -11.4106 C   0  0  0  0  0  0  0  0  0  0  0  0
   46.4941   10.6166  -10.3835 C   0  0  0  0  0  0  0  0  0  0  0  0
   47.2780    9.4127   -9.9719 C   0  0  0  0  0  0  0  0  0  0  0  0
   46.2043   11.4498   -9.1587 C   0  0  0  0  0  0  0  0  0  0  0  0
   45.2628   10.1780  -10.8746 O   0  0  0  0  0  0  0  0  0  0  0  0
   44.5804   10.1402  -10.1749 H   0  0  0  0  0  0  0  0  0  0  0  0
 17 18  1  0  0  0
 18 19  1  0  0  0
 19 20  2  0  0  0
 20  8  1  0  0  0
  8  9  2  0  0  0
  9 10  1  0  0  0
 10  1  1  0  0  0
  1  2  2  0  0  0
  2  3  1  0  0  0
  3 23  1  0  0  0
 23 24  2  0  0  0
 23 25  2  0  0  0
 23 26  1  0  0  0
 26 28  1  0  0  0
 28 29  1  0  0  0
 29 30  1  0  0  0
 30 31  1  0  0  0
 30 32  1  0  0  0
 30 33  1  0  0  0
  3  4  2  0  0  0
  4  5  1  0  0  0
  5  6  2  0  0  0
  6  7  1  0  0  0
 10 11  2  0  0  0
 11 12  1  0  0  0
 12 13  2  0  0  0
 13 14  1  0  0  0
 20 21  1  0  0  0
 21 22  1  0  0  0
 22 18  2  0  0  0
 13  8  1  0  0  0
  6  1  1  0  0  0
 26 27  1  0  0  0
 33 34  1  0  0  0
 14 15  1  0  0  0
 14 16  1  0  0  0
M  END
> <minimizedAffinity>
-9.30045

> <CNNscore>
0.8750488162

> <CNNaffinity>
7.3103685379

> <CNN_VS>
6.3969292641

> <CNNaffinity_variance>
0.1104233414

$$$$
[H]OC(C([H])([H])[H])(C([H])([H])[H])C([H])([H])C([H])([H])N([H])S(=O)(=O)c1c([H])c([H])c(C([H])([H])[H])c(-c2c([H])nc(N([H])[H])c(-c3onc(C([H])([H])[H])c3[H])c2[H])c1[H]


 34 36  0  0  0  0  0  0  0  0999 V2000
   38.2478   12.1059  -16.2282 C   0  0  0  0  0  0  0  0  0  0  0  0
   37.6988   12.8275  -15.1615 C   0  0  0  0  0  0  0  0  0  0  0  0
   36.3448   12.8198  -14.9006 C   0  0  0  0  0  0  0  0  0  0  0  0
   35.4913   12.0943  -15.6916 C   0  0  0  0  0  0  0  0  0  0  0  0
   36.0062   11.3750  -16.7477 C   0  0  0  0  0  0  0  0  0  0  0  0
   37.3894   11.3856  -17.0101 C   0  0  0  0  0  0  0  0  0  0  0  0
   37.9217   10.5851  -18.1451 C   0  0  0  0  0  0  0  0  0  0  0  0
   41.9012   12.7180  -15.8346 C   0  0  0  0  0  0  0  0  0  0  0  0
   40.5290   12.6757  -15.5486 C   0  0  0  0  0  0  0  0  0  0  0  0
   39.6809   12.1428  -16.4962 C   0  0  0  0  0  0  0  0  0  0  0  0
   40.2238   11.6782  -17.6784 C   0  0  0  0  0  0  0  0  0  0  0  0
   41.5353   11.7256  -17.9361 N   0  0  0  0  0  0  0  0  0  0  0  0
   42.3872   12.2494  -17.0091 C   0  0  0  0  0  0  0  0  0  0  0  0
   43.7635   12.2794  -17.3231 N   0  0  0  0  0  0  0  0  0  0  0  0
   44.2250   13.0778  -17.8171 H   0  0  0  0  0  0  0  0  0  0  0  0
   44.3735   11.4852  -17.0641 H   0  0  0  0  0  0  0  0  0  0  0  0
   43.7101   14.9886  -11.6724 C   0  0  0  0  0  0  0  0  0  0  0  0
   43.5773   14.2809  -12.9816 C   0  0  0  0  0  0  0  0  0  0  0  0
   42.3819   13.9139  -13.6291 C   0  0  0  0  0  0  0  0  0  0  0  0
   42.7492   13.2971  -14.7839 C   0  0  0  0  0  0  0  0  0  0  0  0
   44.0747   13.2902  -14.8334 O   0  0  0  0  0  0  0  0  0  0  0  0
   44.5490   13.8573  -13.7944 N   0  0  0  0  0  0  0  0  0  0  0  0
   35.7153   13.7508  -13.5403 S   0  0  0  0  0  0  0  0  0  0  0  0
   35.5794   12.7907  -12.3808 O   0  0  0  0  0  0  0  0  0  0  0  0
   36.6545   14.8617  -13.2290 O   0  0  0  0  0  0  0  0  0  0  0  0
   34.1517   14.2848  -13.9579 N   0  0  0  0  0  0  0  0  0  0  0  0
   33.8431   13.7126  -14.7979 H   0  0  0  0  0  0  0  0  0  0  0  0
   33.1980   14.1237  -12.8792 C   0  0  0  0  0  0  0  0  0  0  0  0
   33.1039   15.3348  -12.0094 C   0  0  0  0  0  0  0  0  0  0  0  0
   31.9050   15.3403  -11.1211 C   0  0  0  0  0  0  0  0  0  0  0  0
   32.1329   15.9010   -9.7547 C   0  0  0  0  0  0  0  0  0  0  0  0
   30.8025   16.1242  -11.7904 C   0  0  0  0  0  0  0  0  0  0  0  0
   31.4393   14.0321  -10.9744 O   0  0  0  0  0  0  0  0  0  0  0  0
   30.4625   13.9912  -10.9422 H   0  0  0  0  0  0  0  0  0  0  0  0
 17 18  1  0  0  0
 18 19  1  0  0  0
 19 20  2  0  0  0
 20  8  1  0  0  0
  8  9  2  0  0  0
  9 10  1  0  0  0
 10  1  1  0  0  0
  1  2  2  0  0  0
  2  3  1  0  0  0
  3 23  1  0  0  0
 23 24  2  0  0  0
 23 25  2  0  0  0
 23 26  1  0  0  0
 26 28  1  0  0  0
 28 29  1  0  0  0
 29 30  1  0  0  0
 30 31  1  0  0  0
 30 32  1  0  0  0
 30 33  1  0  0  0
  3  4  2  0  0  0
  4  5  1  0  0  0
  5  6  2  0  0  0
  6  7  1  0  0  0
 10 11  2  0  0  0
 11 12  1  0  0  0
 12 13  2  0  0  0
 13 14  1  0  0  0
 20 21  1  0  0  0
 21 22  1  0  0  0
 22 18  2  0  0  0
 13  8  1  0  0  0
  6  1  1  0  0  0
 26 27  1  0  0  0
 33 34  1  0  0  0
 14 15  1  0  0  0
 14 16  1  0  0  0
M  END
> <minimizedAffinity>
-8.38809

> <CNNscore>
0.7967286110

> <CNNaffinity>
7.4225015640

> <CNN_VS>
5.9137191772

> <CNNaffinity_variance>
0.1315979660

$$$$
[H]OC(C([H])([H])[H])(C([H])([H])[H])C([H])([H])C([H])([H])N([H])S(=O)(=O)c1c([H])c([H])c(C([H])([H])[H])c(-c2c([H])nc(N([H])[H])c(-c3onc(C([H])([H])[H])c3[H])c2[H])c1[H]


 34 36  0  0  0  0  0  0  0  0999 V2000
   41.0758   13.8681  -14.4549 C   0  0  0  0  0  0  0  0  0  0  0  0
   42.4162   13.7281  -14.0757 C   0  0  0  0  0  0  0  0  0  0  0  0
   42.9551   14.4529  -13.0338 C   0  0  0  0  0  0  0  0  0  0  0  0
   42.1794   15.3413  -12.3340 C   0  0  0  0  0  0  0  0  0  0  0  0
   40.8569   15.4975  -12.6869 C   0  0  0  0  0  0  0  0  0  0  0  0
   40.3109   14.7551  -13.7513 C   0  0  0  0  0  0  0  0  0  0  0  0
   38.8753   14.9287  -14.0995 C   0  0  0  0  0  0  0  0  0  0  0  0
   38.7065   11.9806  -16.6231 C   0  0  0  0  0  0  0  0  0  0  0  0
   39.2045   12.7306  -15.5478 C   0  0  0  0  0  0  0  0  0  0  0  0
   40.5315   13.1041  -15.5716 C   0  0  0  0  0  0  0  0  0  0  0  0
   41.3036   12.7214  -16.6513 C   0  0  0  0  0  0  0  0  0  0  0  0
   40.8136   12.0061  -17.6695 N   0  0  0  0  0  0  0  0  0  0  0  0
   39.5031   11.6291  -17.6609 C   0  0  0  0  0  0  0  0  0  0  0  0
   39.0283   10.8749  -18.7562 N   0  0  0  0  0  0  0  0  0  0  0  0
   39.0590    9.8299  -18.7933 H   0  0  0  0  0  0  0  0  0  0  0  0
   38.6233   11.3521  -19.5798 H   0  0  0  0  0  0  0  0  0  0  0  0
   33.7715   11.6711  -15.4826 C   0  0  0  0  0  0  0  0  0  0  0  0
   35.1292   11.4488  -16.0655 C   0  0  0  0  0  0  0  0  0  0  0  0
   36.3047   12.1669  -15.7733 C   0  0  0  0  0  0  0  0  0  0  0  0
   37.2861   11.6157  -16.5363 C   0  0  0  0  0  0  0  0  0  0  0  0
   36.7437   10.6322  -17.2420 O   0  0  0  0  0  0  0  0  0  0  0  0
   35.5017   10.5383  -16.9690 N   0  0  0  0  0  0  0  0  0  0  0  0
   44.6523   14.2304  -12.6051 S   0  0  0  0  0  0  0  0  0  0  0  0
   45.1364   13.0136  -13.3598 O   0  0  0  0  0  0  0  0  0  0  0  0
   45.4170   15.4508  -12.9779 O   0  0  0  0  0  0  0  0  0  0  0  0
   44.7229   13.8709  -10.9407 N   0  0  0  0  0  0  0  0  0  0  0  0
   43.9053   14.3694  -10.4812 H   0  0  0  0  0  0  0  0  0  0  0  0
   44.6434   12.4497  -10.6708 C   0  0  0  0  0  0  0  0  0  0  0  0
   45.8524   11.9305   -9.9629 C   0  0  0  0  0  0  0  0  0  0  0  0
   45.7735   12.0530   -8.4779 C   0  0  0  0  0  0  0  0  0  0  0  0
   45.6730   10.7568   -7.7409 C   0  0  0  0  0  0  0  0  0  0  0  0
   46.9873   12.8009   -7.9824 C   0  0  0  0  0  0  0  0  0  0  0  0
   44.6587   12.8237   -8.1418 O   0  0  0  0  0  0  0  0  0  0  0  0
   44.8308   13.4031   -7.3728 H   0  0  0  0  0  0  0  0  0  0  0  0
 17 18  1  0  0  0
 18 19  1  0  0  0
 19 20  2  0  0  0
 20  8  1  0  0  0
  8  9  2  0  0  0
  9 10  1  0  0  0
 10  1  1  0  0  0
  1  2  2  0  0  0
  2  3  1  0  0  0
  3 23  1  0  0  0
 23 24  2  0  0  0
 23 25  2  0  0  0
 23 26  1  0  0  0
 26 28  1  0  0  0
 28 29  1  0  0  0
 29 30  1  0  0  0
 30 31  1  0  0  0
 30 32  1  0  0  0
 30 33  1  0  0  0
  3  4  2  0  0  0
  4  5  1  0  0  0
  5  6  2  0  0  0
  6  7  1  0  0  0
 10 11  2  0  0  0
 11 12  1  0  0  0
 12 13  2  0  0  0
 13 14  1  0  0  0
 20 21  1  0  0  0
 21 22  1  0  0  0
 22 18  2  0  0  0
 13  8  1  0  0  0
  6  1  1  0  0  0
 26 27  1  0  0  0
 33 34  1  0  0  0
 14 15  1  0  0  0
 14 16  1  0  0  0
M  END
> <minimizedAffinity>
-7.84822

> <CNNscore>
0.6841192842

> <CNNaffinity>
6.8109331131

> <CNN_VS>
4.6594905853

> <CNNaffinity_variance>
0.0688593015

$$$$
[H]OC(C([H])([H])[H])(C([H])([H])[H])C([H])([H])C([H])([H])N([H])S(=O)(=O)c1c([H])c([H])c(C([H])([H])[H])c(-c2c([H])nc(N([H])[H])c(-c3onc(C([H])([H])[H])c3[H])c2[H])c1[H]


 34 36  0  0  0  0  0  0  0  0999 V2000
   37.7568   11.8154  -16.4239 C   0  0  0  0  0  0  0  0  0  0  0  0
   37.0674   12.3874  -15.3481 C   0  0  0  0  0  0  0  0  0  0  0  0
   35.7025   12.2522  -15.2063 C   0  0  0  0  0  0  0  0  0  0  0  0
   34.9772   11.5435  -16.1295 C   0  0  0  0  0  0  0  0  0  0  0  0
   35.6318   10.9702  -17.1976 C   0  0  0  0  0  0  0  0  0  0  0  0
   37.0256   11.1107  -17.3381 C   0  0  0  0  0  0  0  0  0  0  0  0
   37.7104   10.4656  -18.4902 C   0  0  0  0  0  0  0  0  0  0  0  0
   41.2779   12.8213  -15.7405 C   0  0  0  0  0  0  0  0  0  0  0  0
   39.8953   12.6522  -15.5774 C   0  0  0  0  0  0  0  0  0  0  0  0
   39.1985   11.9862  -16.5633 C   0  0  0  0  0  0  0  0  0  0  0  0
   39.8952   11.5198  -17.6611 C   0  0  0  0  0  0  0  0  0  0  0  0
   41.2143   11.6890  -17.8018 N   0  0  0  0  0  0  0  0  0  0  0  0
   41.9179   12.3453  -16.8355 C   0  0  0  0  0  0  0  0  0  0  0  0
   43.3084   12.5011  -17.0253 N   0  0  0  0  0  0  0  0  0  0  0  0
   43.7346   13.3163  -17.5235 H   0  0  0  0  0  0  0  0  0  0  0  0
   43.9657   11.7887  -16.6642 H   0  0  0  0  0  0  0  0  0  0  0  0
   42.4636   15.7256  -11.7517 C   0  0  0  0  0  0  0  0  0  0  0  0
   42.5176   14.7941  -12.9187 C   0  0  0  0  0  0  0  0  0  0  0  0
   41.4384   14.3798  -13.7228 C   0  0  0  0  0  0  0  0  0  0  0  0
   41.9603   13.5384  -14.6549 C   0  0  0  0  0  0  0  0  0  0  0  0
   43.2647   13.4487  -14.4317 O   0  0  0  0  0  0  0  0  0  0  0  0
   43.5830   14.1727  -13.4314 N   0  0  0  0  0  0  0  0  0  0  0  0
   34.8926   12.9977  -13.8272 S   0  0  0  0  0  0  0  0  0  0  0  0
   33.4100   12.9573  -14.1185 O   0  0  0  0  0  0  0  0  0  0  0  0
   35.2325   12.2428  -12.5912 O   0  0  0  0  0  0  0  0  0  0  0  0
   35.3661   14.6340  -13.7715 N   0  0  0  0  0  0  0  0  0  0  0  0
   34.5288   15.1869  -13.4230 H   0  0  0  0  0  0  0  0  0  0  0  0
   36.4994   14.8597  -12.8976 C   0  0  0  0  0  0  0  0  0  0  0  0
   36.2260   15.8974  -11.8580 C   0  0  0  0  0  0  0  0  0  0  0  0
   36.2258   15.3618  -10.4653 C   0  0  0  0  0  0  0  0  0  0  0  0
   37.5556   15.3728   -9.7834 C   0  0  0  0  0  0  0  0  0  0  0  0
   35.2473   16.1560   -9.6347 C   0  0  0  0  0  0  0  0  0  0  0  0
   35.7649   14.0439  -10.4828 O   0  0  0  0  0  0  0  0  0  0  0  0
   35.2144   13.8367   -9.7013 H   0  0  0  0  0  0  0  0  0  0  0  0
 17 18  1  0  0  0
 18 19  1  0  0  0
 19 20  2  0  0  0
 20  8  1  0  0  0
  8  9  2  0  0  0
  9 10  1  0  0  0
 10  1  1  0  0  0
  1  2  2  0  0  0
  2  3  1  0  0  0
  3 23  1  0  0  0
 23 24  2  0  0  0
 23 25  2  0  0  0
 23 26  1  0  0  0
 26 28  1  0  0  0
 28 29  1  0  0  0
 29 30  1  0  0  0
 30 31  1  0  0  0
 30 32  1  0  0  0
 30 33  1  0  0  0
  3  4  2  0  0  0
  4  5  1  0  0  0
  5  6  2  0  0  0
  6  7  1  0  0  0
 10 11  2  0  0  0
 11 12  1  0  0  0
 12 13  2  0  0  0
 13 14  1  0  0  0
 20 21  1  0  0  0
 21 22  1  0  0  0
 22 18  2  0  0  0
 13  8  1  0  0  0
  6  1  1  0  0  0
 26 27  1  0  0  0
 33 34  1  0  0  0
 14 15  1  0  0  0
 14 16  1  0  0  0
M  END
> <minimizedAffinity>
-9.79058

> <CNNscore>
0.6616719365

> <CNNaffinity>
7.2156319618

> <CNN_VS>
4.7743811607

> <CNNaffinity_variance>
0.1124793515

$$$$
[H]OC(C([H])([H])[H])(C([H])([H])[H])C([H])([H])C([H])([H])N([H])S(=O)(=O)c1c([H])c([H])c(C([H])([H])[H])c(-c2c([H])nc(N([H])[H])c(-c3onc(C([H])([H])[H])c3[H])c2[H])c1[H]


 34 36  0  0  0  0  0  0  0  0999 V2000
   42.8571   13.1729  -15.4272 C   0  0  0  0  0  0  0  0  0  0  0  0
   42.6841   14.0176  -14.3243 C   0  0  0  0  0  0  0  0  0  0  0  0
   43.7576   14.5227  -13.6216 C   0  0  0  0  0  0  0  0  0  0  0  0
   45.0392   14.2049  -13.9919 C   0  0  0  0  0  0  0  0  0  0  0  0
   45.2368   13.3757  -15.0743 C   0  0  0  0  0  0  0  0  0  0  0  0
   44.1377   12.8626  -15.7889 C   0  0  0  0  0  0  0  0  0  0  0  0
   44.3792   11.9849  -16.9652 C   0  0  0  0  0  0  0  0  0  0  0  0
   39.3737   12.1410  -16.2510 C   0  0  0  0  0  0  0  0  0  0  0  0
   40.4630   12.6795  -15.5509 C   0  0  0  0  0  0  0  0  0  0  0  0
   41.7066   12.6360  -16.1449 C   0  0  0  0  0  0  0  0  0  0  0  0
   41.8178   12.0648  -17.3978 C   0  0  0  0  0  0  0  0  0  0  0  0
   40.7689   11.5556  -18.0527 N   0  0  0  0  0  0  0  0  0  0  0  0
   39.5323   11.5912  -17.4789 C   0  0  0  0  0  0  0  0  0  0  0  0
   38.4536   11.0422  -18.2060 N   0  0  0  0  0  0  0  0  0  0  0  0
   38.1679   10.0378  -18.1436 H   0  0  0  0  0  0  0  0  0  0  0  0
   37.8976   11.6392  -18.8420 H   0  0  0  0  0  0  0  0  0  0  0  0
   35.6155   12.2331  -12.8424 C   0  0  0  0  0  0  0  0  0  0  0  0
   36.4109   12.2655  -14.1069 C   0  0  0  0  0  0  0  0  0  0  0  0
   37.8060   12.1227  -14.2342 C   0  0  0  0  0  0  0  0  0  0  0  0
   38.0780   12.2192  -15.5630 C   0  0  0  0  0  0  0  0  0  0  0  0
   36.9283   12.4076  -16.1972 O   0  0  0  0  0  0  0  0  0  0  0  0
   35.9700   12.4338  -15.3564 N   0  0  0  0  0  0  0  0  0  0  0  0
   43.4724   15.5827  -12.2400 S   0  0  0  0  0  0  0  0  0  0  0  0
   42.5314   16.6680  -12.7104 O   0  0  0  0  0  0  0  0  0  0  0  0
   42.8867   14.7900  -11.1256 O   0  0  0  0  0  0  0  0  0  0  0  0
   44.9555   16.3199  -11.8383 N   0  0  0  0  0  0  0  0  0  0  0  0
   45.7247   15.7050  -12.2362 H   0  0  0  0  0  0  0  0  0  0  0  0
   45.0767   17.6615  -12.3716 C   0  0  0  0  0  0  0  0  0  0  0  0
   45.7639   17.6930  -13.6979 C   0  0  0  0  0  0  0  0  0  0  0  0
   47.1782   18.1632  -13.6266 C   0  0  0  0  0  0  0  0  0  0  0  0
   47.4102   19.3361  -12.7300 C   0  0  0  0  0  0  0  0  0  0  0  0
   48.0521   17.0210  -13.1685 C   0  0  0  0  0  0  0  0  0  0  0  0
   47.6085   18.5126  -14.9081 O   0  0  0  0  0  0  0  0  0  0  0  0
   48.5443   18.2718  -15.0600 H   0  0  0  0  0  0  0  0  0  0  0  0
 17 18  1  0  0  0
 18 19  1  0  0  0
 19 20  2  0  0  0
 20  8  1  0  0  0
  8  9  2  0  0  0
  9 10  1  0  0  0
 10  1  1  0  0  0
  1  2  2  0  0  0
  2  3  1  0  0  0
  3 23  1  0  0  0
 23 24  2  0  0  0
 23 25  2  0  0  0
 23 26  1  0  0  0
 26 28  1  0  0  0
 28 29  1  0  0  0
 29 30  1  0  0  0
 30 31  1  0  0  0
 30 32  1  0  0  0
 30 33  1  0  0  0
  3  4  2  0  0  0
  4  5  1  0  0  0
  5  6  2  0  0  0
  6  7  1  0  0  0
 10 11  2  0  0  0
 11 12  1  0  0  0
 12 13  2  0  0  0
 13 14  1  0  0  0
 20 21  1  0  0  0
 21 22  1  0  0  0
 22 18  2  0  0  0
 13  8  1  0  0  0
  6  1  1  0  0  0
 26 27  1  0  0  0
 33 34  1  0  0  0
 14 15  1  0  0  0
 14 16  1  0  0  0
M  END
> <minimizedAffinity>
-7.82806

> <CNNscore>
0.6595470905

> <CNNaffinity>
6.9133973122

> <CNN_VS>
4.5597109795

> <CNNaffinity_variance>
0.2522432208

$$$$
[H]OC(C([H])([H])[H])(C([H])([H])[H])C([H])([H])C([H])([H])N([H])S(=O)(=O)c1c([H])c([H])c(C([H])([H])[H])c(-c2c([H])nc(N([H])[H])c(-c3onc(C([H])([H])[H])c3[H])c2[H])c1[H]


 34 36  0  0  0  0  0  0  0  0999 V2000
   41.1000   13.8615  -14.3665 C   0  0  0  0  0  0  0  0  0  0  0  0
   42.4091   13.6716  -13.9080 C   0  0  0  0  0  0  0  0  0  0  0  0
   42.9163   14.3868  -12.8437 C   0  0  0  0  0  0  0  0  0  0  0  0
   42.1388   15.3148  -12.1996 C   0  0  0  0  0  0  0  0  0  0  0  0
   40.8467   15.5206  -12.6309 C   0  0  0  0  0  0  0  0  0  0  0  0
   40.3330   14.7878  -13.7178 C   0  0  0  0  0  0  0  0  0  0  0  0
   38.9285   15.0157  -14.1512 C   0  0  0  0  0  0  0  0  0  0  0  0
   38.8010   11.9824  -16.6161 C   0  0  0  0  0  0  0  0  0  0  0  0
   39.2657   12.7236  -15.5200 C   0  0  0  0  0  0  0  0  0  0  0  0
   40.5902   13.1065  -15.5053 C   0  0  0  0  0  0  0  0  0  0  0  0
   41.3926   12.7414  -16.5688 C   0  0  0  0  0  0  0  0  0  0  0  0
   40.9341   12.0343  -17.6073 N   0  0  0  0  0  0  0  0  0  0  0  0
   39.6266   11.6482  -17.6368 C   0  0  0  0  0  0  0  0  0  0  0  0
   39.1856   10.9032  -18.7523 N   0  0  0  0  0  0  0  0  0  0  0  0
   39.2248    9.8589  -18.8003 H   0  0  0  0  0  0  0  0  0  0  0  0
   38.7986   11.3869  -19.5807 H   0  0  0  0  0  0  0  0  0  0  0  0
   33.8545   11.5793  -15.5574 C   0  0  0  0  0  0  0  0  0  0  0  0
   35.2200   11.4008  -16.1371 C   0  0  0  0  0  0  0  0  0  0  0  0
   36.3885   12.1034  -15.7849 C   0  0  0  0  0  0  0  0  0  0  0  0
   37.3814   11.6067  -16.5701 C   0  0  0  0  0  0  0  0  0  0  0  0
   36.8522   10.6688  -17.3444 O   0  0  0  0  0  0  0  0  0  0  0  0
   35.6076   10.5522  -17.0930 N   0  0  0  0  0  0  0  0  0  0  0  0
   44.5750   14.1005  -12.3142 S   0  0  0  0  0  0  0  0  0  0  0  0
   44.7576   14.8629  -11.0220 O   0  0  0  0  0  0  0  0  0  0  0  0
   44.7854   12.6397  -12.1270 O   0  0  0  0  0  0  0  0  0  0  0  0
   45.6152   14.7898  -13.4750 N   0  0  0  0  0  0  0  0  0  0  0  0
   45.6646   14.1095  -14.2893 H   0  0  0  0  0  0  0  0  0  0  0  0
   45.1543   16.0809  -13.9436 C   0  0  0  0  0  0  0  0  0  0  0  0
   45.7651   17.2174  -13.1901 C   0  0  0  0  0  0  0  0  0  0  0  0
   47.1441   17.5621  -13.6439 C   0  0  0  0  0  0  0  0  0  0  0  0
   47.3173   17.6565  -15.1252 C   0  0  0  0  0  0  0  0  0  0  0  0
   47.5506   18.8762  -13.0224 C   0  0  0  0  0  0  0  0  0  0  0  0
   48.0355   16.5978  -13.1695 O   0  0  0  0  0  0  0  0  0  0  0  0
   48.8938   16.9875  -12.9083 H   0  0  0  0  0  0  0  0  0  0  0  0
 17 18  1  0  0  0
 18 19  1  0  0  0
 19 20  2  0  0  0
 20  8  1  0  0  0
  8  9  2  0  0  0
  9 10  1  0  0  0
 10  1  1  0  0  0
  1  2  2  0  0  0
  2  3  1  0  0  0
  3 23  1  0  0  0
 23 24  2  0  0  0
 23 25  2  0  0  0
 23 26  1  0  0  0
 26 28  1  0  0  0
 28 29  1  0  0  0
 29 30  1  0  0  0
 30 31  1  0  0  0
 30 32  1  0  0  0
 30 33  1  0  0  0
  3  4  2  0  0  0
  4  5  1  0  0  0
  5  6  2  0  0  0
  6  7  1  0  0  0
 10 11  2  0  0  0
 11 12  1  0  0  0
 12 13  2  0  0  0
 13 14  1  0  0  0
 20 21  1  0  0  0
 21 22  1  0  0  0
 22 18  2  0  0  0
 13  8  1  0  0  0
  6  1  1  0  0  0
 26 27  1  0  0  0
 33 34  1  0  0  0
 14 15  1  0  0  0
 14 16  1  0  0  0
M  END
> <minimizedAffinity>
-7.91369

> <CNNscore>
0.6352167130

> <CNNaffinity>
6.8399872780

> <CNN_VS>
4.3448743820

> <CNNaffinity_variance>
0.2416208982

$$$$
[H]OC(C([H])([H])[H])(C([H])([H])[H])C([H])([H])C([H])([H])N([H])S(=O)(=O)c1c([H])c([H])c(C([H])([H])[H])c(-c2c([H])nc(N([H])[H])c(-c3onc(C([H])([H])[H])c3[H])c2[H])c1[H]


 34 36  0  0  0  0  0  0  0  0999 V2000
   41.0777   13.9369  -14.2876 C   0  0  0  0  0  0  0  0  0  0  0  0
   42.3930   13.7824  -13.8338 C   0  0  0  0  0  0  0  0  0  0  0  0
   42.8836   14.5092  -12.7696 C   0  0  0  0  0  0  0  0  0  0  0  0
   42.0829   15.4140  -12.1210 C   0  0  0  0  0  0  0  0  0  0  0  0
   40.7842   15.5848  -12.5478 C   0  0  0  0  0  0  0  0  0  0  0  0
   40.2874   14.8403  -13.6346 C   0  0  0  0  0  0  0  0  0  0  0  0
   38.8758   15.0300  -14.0631 C   0  0  0  0  0  0  0  0  0  0  0  0
   38.8152   12.0283  -16.5495 C   0  0  0  0  0  0  0  0  0  0  0  0
   39.2631   12.7804  -15.4538 C   0  0  0  0  0  0  0  0  0  0  0  0
   40.5853   13.1703  -15.4265 C   0  0  0  0  0  0  0  0  0  0  0  0
   41.4021   12.8011  -16.4775 C   0  0  0  0  0  0  0  0  0  0  0  0
   40.9597   12.0835  -17.5157 N   0  0  0  0  0  0  0  0  0  0  0  0
   39.6546   11.6904  -17.5576 C   0  0  0  0  0  0  0  0  0  0  0  0
   39.2307   10.9344  -18.6724 N   0  0  0  0  0  0  0  0  0  0  0  0
   39.2758    9.8900  -18.7117 H   0  0  0  0  0  0  0  0  0  0  0  0
   38.8511   11.4096  -19.5091 H   0  0  0  0  0  0  0  0  0  0  0  0
   33.8519   11.6306  -15.5704 C   0  0  0  0  0  0  0  0  0  0  0  0
   35.2291   11.4411  -16.1181 C   0  0  0  0  0  0  0  0  0  0  0  0
   36.3868   12.1624  -15.7682 C   0  0  0  0  0  0  0  0  0  0  0  0
   37.3972   11.6456  -16.5173 C   0  0  0  0  0  0  0  0  0  0  0  0
   36.8879   10.6786  -17.2690 O   0  0  0  0  0  0  0  0  0  0  0  0
   35.6394   10.5629  -17.0372 N   0  0  0  0  0  0  0  0  0  0  0  0
   44.5513   14.2679  -12.2460 S   0  0  0  0  0  0  0  0  0  0  0  0
   45.0469   15.6033  -11.7404 O   0  0  0  0  0  0  0  0  0  0  0  0
   44.5865   13.2282  -11.1825 O   0  0  0  0  0  0  0  0  0  0  0  0
   45.4717   13.8595  -13.6210 N   0  0  0  0  0  0  0  0  0  0  0  0
   46.2858   14.5404  -13.6621 H   0  0  0  0  0  0  0  0  0  0  0  0
   45.9722   12.5007  -13.5767 C   0  0  0  0  0  0  0  0  0  0  0  0
   47.4400   12.4373  -13.3051 C   0  0  0  0  0  0  0  0  0  0  0  0
   47.8107   11.4435  -12.2556 C   0  0  0  0  0  0  0  0  0  0  0  0
   48.3056   12.0319  -10.9741 C   0  0  0  0  0  0  0  0  0  0  0  0
   46.6138   10.5728  -11.9603 C   0  0  0  0  0  0  0  0  0  0  0  0
   48.8085   10.6036  -12.7541 O   0  0  0  0  0  0  0  0  0  0  0  0
   48.7004    9.6814  -12.4462 H   0  0  0  0  0  0  0  0  0  0  0  0
 17 18  1  0  0  0
 18 19  1  0  0  0
 19 20  2  0  0  0
 20  8  1  0  0  0
  8  9  2  0  0  0
  9 10  1  0  0  0
 10  1  1  0  0  0
  1  2  2  0  0  0
  2  3  1  0  0  0
  3 23  1  0  0  0
 23 24  2  0  0  0
 23 25  2  0  0  0
 23 26  1  0  0  0
 26 28  1  0  0  0
 28 29  1  0  0  0
 29 30  1  0  0  0
 30 31  1  0  0  0
 30 32  1  0  0  0
 30 33  1  0  0  0
  3  4  2  0  0  0
  4  5  1  0  0  0
  5  6  2  0  0  0
  6  7  1  0  0  0
 10 11  2  0  0  0
 11 12  1  0  0  0
 12 13  2  0  0  0
 13 14  1  0  0  0
 20 21  1  0  0  0
 21 22  1  0  0  0
 22 18  2  0  0  0
 13  8  1  0  0  0
  6  1  1  0  0  0
 26 27  1  0  0  0
 33 34  1  0  0  0
 14 15  1  0  0  0
 14 16  1  0  0  0
M  END
> <minimizedAffinity>
-8.18943

> <CNNscore>
0.5309532285

> <CNNaffinity>
6.8908529282

> <CNN_VS>
3.6587204933

> <CNNaffinity_variance>
0.3163972497

$$$$
[H]/C(=C(/[H])c1c([H])c(OC([H])([H])[H])c([H])c(OC([H])([H])[H])c1[H])c1c([H])c([H])c(OC([H])([H])C([H])([H])[H])c([H])c1[H]


 21 22  0  0  0  0  0  0  0  0999 V2000
   37.5768   12.9102  -15.1195 C   0  0  0  0  0  0  0  0  0  0  0  0
   38.7256   13.3923  -14.7073 C   0  0  0  0  0  0  0  0  0  0  0  0
   33.7864   13.7213  -13.3352 C   0  0  0  0  0  0  0  0  0  0  0  0
   33.9336   12.7474  -14.2951 C   0  0  0  0  0  0  0  0  0  0  0  0
   35.1751   12.5001  -14.8622 C   0  0  0  0  0  0  0  0  0  0  0  0
   36.2918   13.2109  -14.4903 C   0  0  0  0  0  0  0  0  0  0  0  0
   36.1457   14.1835  -13.5320 C   0  0  0  0  0  0  0  0  0  0  0  0
   34.8989   14.4366  -12.9581 C   0  0  0  0  0  0  0  0  0  0  0  0
   32.5635   14.0056  -12.7382 O   0  0  0  0  0  0  0  0  0  0  0  0
   31.1076   15.1456  -11.2077 C   0  0  0  0  0  0  0  0  0  0  0  0
   32.4831   15.0884  -11.8419 C   0  0  0  0  0  0  0  0  0  0  0  0
   39.9860   13.0707  -15.3591 C   0  0  0  0  0  0  0  0  0  0  0  0
   39.9328   12.4867  -16.6282 C   0  0  0  0  0  0  0  0  0  0  0  0
   41.0588   12.1407  -17.3378 C   0  0  0  0  0  0  0  0  0  0  0  0
   42.2982   12.3761  -16.7819 C   0  0  0  0  0  0  0  0  0  0  0  0
   42.3539   12.9496  -15.5356 C   0  0  0  0  0  0  0  0  0  0  0  0
   41.2178   13.2982  -14.8206 C   0  0  0  0  0  0  0  0  0  0  0  0
   40.8861   11.5687  -18.5848 O   0  0  0  0  0  0  0  0  0  0  0  0
   39.6540   11.1587  -19.1121 C   0  0  0  0  0  0  0  0  0  0  0  0
   43.6137   13.1780  -14.9945 O   0  0  0  0  0  0  0  0  0  0  0  0
   44.7444   13.5141  -15.7458 C   0  0  0  0  0  0  0  0  0  0  0  0
 10 11  1  0  0  0
 11  9  1  0  0  0
  9  3  1  0  0  0
  3  4  2  0  0  0
  4  5  1  0  0  0
  5  6  2  0  0  0
  6  1  1  0  0  0
  1  2  2  0  0  0
  2 12  1  0  0  0
 12 13  2  0  0  0
 13 14  1  0  0  0
 14 18  1  0  0  0
 18 19  1  0  0  0
 14 15  2  0  0  0
 15 16  1  0  0  0
 16 20  1  0  0  0
 20 21  1  0  0  0
 16 17  2  0  0  0
  6  7  1  0  0  0
  7  8  2  0  0  0
  8  3  1  0  0  0
 17 12  1  0  0  0
M  END
> <minimizedAffinity>
-6.95138

> <CNNscore>
0.7256172895

> <CNNaffinity>
6.0692167282

> <CNN_VS>
4.4039287567

> <CNNaffinity_variance>
0.1847298443

$$$$
[H]/C(=C(/[H])c1c([H])c(OC([H])([H])[H])c([H])c(OC([H])([H])[H])c1[H])c1c([H])c([H])c(OC([H])([H])C([H])([H])[H])c([H])c1[H]


 21 22  0  0  0  0  0  0  0  0999 V2000
   41.4120   13.7861  -14.0485 C   0  0  0  0  0  0  0  0  0  0  0  0
   41.4593   13.2603  -15.2499 C   0  0  0  0  0  0  0  0  0  0  0  0
   44.6968   15.6629  -12.0745 C   0  0  0  0  0  0  0  0  0  0  0  0
   43.4338   16.2062  -12.0399 C   0  0  0  0  0  0  0  0  0  0  0  0
   42.3800   15.5795  -12.6886 C   0  0  0  0  0  0  0  0  0  0  0  0
   42.5566   14.4056  -13.3823 C   0  0  0  0  0  0  0  0  0  0  0  0
   43.8173   13.8624  -13.4174 C   0  0  0  0  0  0  0  0  0  0  0  0
   44.8812   14.4887  -12.7666 C   0  0  0  0  0  0  0  0  0  0  0  0
   45.7837   16.2536  -11.4403 O   0  0  0  0  0  0  0  0  0  0  0  0
   46.8293   18.3334  -12.0262 C   0  0  0  0  0  0  0  0  0  0  0  0
   45.7586   17.6418  -11.2060 C   0  0  0  0  0  0  0  0  0  0  0  0
   40.2986   12.6517  -15.8818 C   0  0  0  0  0  0  0  0  0  0  0  0
   39.0937   12.6559  -15.1727 C   0  0  0  0  0  0  0  0  0  0  0  0
   37.9336   12.1101  -15.6703 C   0  0  0  0  0  0  0  0  0  0  0  0
   37.9496   11.5316  -16.9215 C   0  0  0  0  0  0  0  0  0  0  0  0
   39.1315   11.5260  -17.6205 C   0  0  0  0  0  0  0  0  0  0  0  0
   40.3010   12.0766  -17.1180 C   0  0  0  0  0  0  0  0  0  0  0  0
   36.8004   12.1712  -14.8803 O   0  0  0  0  0  0  0  0  0  0  0  0
   35.4867   12.1977  -15.3682 C   0  0  0  0  0  0  0  0  0  0  0  0
   39.1246   10.9376  -18.8798 O   0  0  0  0  0  0  0  0  0  0  0  0
   37.9650   10.6069  -19.5883 C   0  0  0  0  0  0  0  0  0  0  0  0
 10 11  1  0  0  0
 11  9  1  0  0  0
  9  3  1  0  0  0
  3  4  2  0  0  0
  4  5  1  0  0  0
  5  6  2  0  0  0
  6  1  1  0  0  0
  1  2  2  0  0  0
  2 12  1  0  0  0
 12 13  2  0  0  0
 13 14  1  0  0  0
 14 18  1  0  0  0
 18 19  1  0  0  0
 14 15  2  0  0  0
 15 16  1  0  0  0
 16 20  1  0  0  0
 20 21  1  0  0  0
 16 17  2  0  0  0
  6  7  1  0  0  0
  7  8  2  0  0  0
  8  3  1  0  0  0
 17 12  1  0  0  0
M  END
> <minimizedAffinity>
-5.75345

> <CNNscore>
0.5155956149

> <CNNaffinity>
5.4332551956

> <CNN_VS>
2.8013625145

> <CNNaffinity_variance>
0.3100005090

$$$$
[H]/C(=C(/[H])c1c([H])c(OC([H])([H])[H])c([H])c(OC([H])([H])[H])c1[H])c1c([H])c([H])c(OC([H])([H])C([H])([H])[H])c([H])c1[H]


 21 22  0  0  0  0  0  0  0  0999 V2000
   40.5968   12.6917  -15.7230 C   0  0  0  0  0  0  0  0  0  0  0  0
   39.4585   12.7856  -15.0769 C   0  0  0  0  0  0  0  0  0  0  0  0
   44.2785   14.1473  -14.1309 C   0  0  0  0  0  0  0  0  0  0  0  0
   43.0960   14.2818  -13.4416 C   0  0  0  0  0  0  0  0  0  0  0  0
   41.9104   13.8013  -13.9777 C   0  0  0  0  0  0  0  0  0  0  0  0
   41.8733   13.1800  -15.2037 C   0  0  0  0  0  0  0  0  0  0  0  0
   43.0536   13.0453  -15.8926 C   0  0  0  0  0  0  0  0  0  0  0  0
   44.2495   13.5269  -15.3580 C   0  0  0  0  0  0  0  0  0  0  0  0
   45.4913   14.6123  -13.6352 O   0  0  0  0  0  0  0  0  0  0  0  0
   46.0666   16.7518  -14.5589 C   0  0  0  0  0  0  0  0  0  0  0  0
   45.6189   15.9815  -13.3327 C   0  0  0  0  0  0  0  0  0  0  0  0
   38.2062   12.2878  -15.6256 C   0  0  0  0  0  0  0  0  0  0  0  0
   38.2597   11.5701  -16.8243 C   0  0  0  0  0  0  0  0  0  0  0  0
   37.1411   11.0529  -17.4344 C   0  0  0  0  0  0  0  0  0  0  0  0
   35.9092   11.2452  -16.8463 C   0  0  0  0  0  0  0  0  0  0  0  0
   35.8533   11.9496  -15.6689 C   0  0  0  0  0  0  0  0  0  0  0  0
   36.9819   12.4709  -15.0543 C   0  0  0  0  0  0  0  0  0  0  0  0
   37.3133   10.3598  -18.6185 O   0  0  0  0  0  0  0  0  0  0  0  0
   38.2591   10.6806  -19.6018 C   0  0  0  0  0  0  0  0  0  0  0  0
   34.6011   12.1315  -15.0936 O   0  0  0  0  0  0  0  0  0  0  0  0
   34.3880   12.7036  -13.8353 C   0  0  0  0  0  0  0  0  0  0  0  0
 10 11  1  0  0  0
 11  9  1  0  0  0
  9  3  1  0  0  0
  3  4  2  0  0  0
  4  5  1  0  0  0
  5  6  2  0  0  0
  6  1  1  0  0  0
  1  2  2  0  0  0
  2 12  1  0  0  0
 12 13  2  0  0  0
 13 14  1  0  0  0
 14 18  1  0  0  0
 18 19  1  0  0  0
 14 15  2  0  0  0
 15 16  1  0  0  0
 16 20  1  0  0  0
 20 21  1  0  0  0
 16 17  2  0  0  0
  6  7  1  0  0  0
  7  8  2  0  0  0
  8  3  1  0  0  0
 17 12  1  0  0  0
M  END
> <minimizedAffinity>
-6.82525

> <CNNscore>
0.4299475253

> <CNNaffinity>
5.5880308151

> <CNN_VS>
2.4025599957

> <CNNaffinity_variance>
0.0533931181

$$$$
[H]/C(=C(/[H])c1c([H])c(OC([H])([H])[H])c([H])c(OC([H])([H])[H])c1[H])c1c([H])c([H])c(OC([H])([H])C([H])([H])[H])c([H])c1[H]


 21 22  0  0  0  0  0  0  0  0999 V2000
   36.2855   13.6872  -13.6352 C   0  0  0  0  0  0  0  0  0  0  0  0
   37.3513   13.0710  -14.0895 C   0  0  0  0  0  0  0  0  0  0  0  0
   36.3167   16.0153  -10.0592 C   0  0  0  0  0  0  0  0  0  0  0  0
   37.4268   15.3139  -10.4681 C   0  0  0  0  0  0  0  0  0  0  0  0
   37.3949   14.5632  -11.6341 C   0  0  0  0  0  0  0  0  0  0  0  0
   36.2657   14.4931  -12.4155 C   0  0  0  0  0  0  0  0  0  0  0  0
   35.1569   15.1932  -12.0080 C   0  0  0  0  0  0  0  0  0  0  0  0
   35.1833   15.9500  -10.8357 C   0  0  0  0  0  0  0  0  0  0  0  0
   36.3001   16.7811   -8.8991 O   0  0  0  0  0  0  0  0  0  0  0  0
   35.7413   17.0056   -6.5755 C   0  0  0  0  0  0  0  0  0  0  0  0
   36.3401   16.1249   -7.6540 C   0  0  0  0  0  0  0  0  0  0  0  0
   37.3335   12.2768  -15.3085 C   0  0  0  0  0  0  0  0  0  0  0  0
   36.0957   11.8182  -15.7694 C   0  0  0  0  0  0  0  0  0  0  0  0
   35.9582   11.0604  -16.9086 C   0  0  0  0  0  0  0  0  0  0  0  0
   37.0838   10.7337  -17.6344 C   0  0  0  0  0  0  0  0  0  0  0  0
   38.3010   11.1825  -17.1844 C   0  0  0  0  0  0  0  0  0  0  0  0
   38.4388   11.9467  -16.0353 C   0  0  0  0  0  0  0  0  0  0  0  0
   34.6843   10.6621  -17.2696 O   0  0  0  0  0  0  0  0  0  0  0  0
   33.5158   10.9905  -16.5689 C   0  0  0  0  0  0  0  0  0  0  0  0
   39.4224   10.8414  -17.9317 O   0  0  0  0  0  0  0  0  0  0  0  0
   40.4273   11.7416  -18.2996 C   0  0  0  0  0  0  0  0  0  0  0  0
 10 11  1  0  0  0
 11  9  1  0  0  0
  9  3  1  0  0  0
  3  4  2  0  0  0
  4  5  1  0  0  0
  5  6  2  0  0  0
  6  1  1  0  0  0
  1  2  2  0  0  0
  2 12  1  0  0  0
 12 13  2  0  0  0
 13 14  1  0  0  0
 14 18  1  0  0  0
 18 19  1  0  0  0
 14 15  2  0  0  0
 15 16  1  0  0  0
 16 20  1  0  0  0
 20 21  1  0  0  0
 16 17  2  0  0  0
  6  7  1  0  0  0
  7  8  2  0  0  0
  8  3  1  0  0  0
 17 12  1  0  0  0
M  END
> <minimizedAffinity>
-6.55569

> <CNNscore>
0.3736032248

> <CNNaffinity>
5.3365778923

> <CNN_VS>
1.9937627316

> <CNNaffinity_variance>
0.2414484322

$$$$
[H]/C(=C(/[H])c1c([H])c(OC([H])([H])[H])c([H])c(OC([H])([H])[H])c1[H])c1c([H])c([H])c(OC([H])([H])C([H])([H])[H])c([H])c1[H]


 21 22  0  0  0  0  0  0  0  0999 V2000
   36.6994   14.0999  -13.8163 C   0  0  0  0  0  0  0  0  0  0  0  0
   37.5295   13.1134  -14.0608 C   0  0  0  0  0  0  0  0  0  0  0  0
   36.6979   16.4703  -10.2680 C   0  0  0  0  0  0  0  0  0  0  0  0
   35.5247   16.0817  -10.8715 C   0  0  0  0  0  0  0  0  0  0  0  0
   35.5481   15.3111  -12.0247 C   0  0  0  0  0  0  0  0  0  0  0  0
   36.7309   14.9116  -12.6006 C   0  0  0  0  0  0  0  0  0  0  0  0
   37.9027   15.2991  -11.9987 C   0  0  0  0  0  0  0  0  0  0  0  0
   37.8851   16.0745  -10.8384 C   0  0  0  0  0  0  0  0  0  0  0  0
   36.7255   17.2421   -9.1120 O   0  0  0  0  0  0  0  0  0  0  0  0
   37.7912   19.3891   -8.9856 C   0  0  0  0  0  0  0  0  0  0  0  0
   37.9226   17.8957   -8.7627 C   0  0  0  0  0  0  0  0  0  0  0  0
   37.4682   12.3265  -15.2830 C   0  0  0  0  0  0  0  0  0  0  0  0
   36.2066   11.9472  -15.7511 C   0  0  0  0  0  0  0  0  0  0  0  0
   36.0277   11.2037  -16.8941 C   0  0  0  0  0  0  0  0  0  0  0  0
   37.1342   10.8108  -17.6164 C   0  0  0  0  0  0  0  0  0  0  0  0
   38.3747   11.1818  -17.1593 C   0  0  0  0  0  0  0  0  0  0  0  0
   38.5543   11.9316  -16.0065 C   0  0  0  0  0  0  0  0  0  0  0  0
   34.7331   10.8863  -17.2621 O   0  0  0  0  0  0  0  0  0  0  0  0
   33.6141   10.9998  -16.4260 C   0  0  0  0  0  0  0  0  0  0  0  0
   39.4762   10.7748  -17.9031 O   0  0  0  0  0  0  0  0  0  0  0  0
   40.5635   11.5973  -18.2149 C   0  0  0  0  0  0  0  0  0  0  0  0
 10 11  1  0  0  0
 11  9  1  0  0  0
  9  3  1  0  0  0
  3  4  2  0  0  0
  4  5  1  0  0  0
  5  6  2  0  0  0
  6  1  1  0  0  0
  1  2  2  0  0  0
  2 12  1  0  0  0
 12 13  2  0  0  0
 13 14  1  0  0  0
 14 18  1  0  0  0
 18 19  1  0  0  0
 14 15  2  0  0  0
 15 16  1  0  0  0
 16 20  1  0  0  0
 20 21  1  0  0  0
 16 17  2  0  0  0
  6  7  1  0  0  0
  7  8  2  0  0  0
  8  3  1  0  0  0
 17 12  1  0  0  0
M  END
> <minimizedAffinity>
-6.96897

> <CNNscore>
0.3675526083

> <CNNaffinity>
5.3406133652

> <CNN_VS>
1.9629564285

> <CNNaffinity_variance>
0.2573749125

$$$$
[H]/C(=C(/[H])c1c([H])c(OC([H])([H])[H])c([H])c(OC([H])([H])[H])c1[H])c1c([H])c([H])c(OC([H])([H])C([H])([H])[H])c([H])c1[H]


 21 22  0  0  0  0  0  0  0  0999 V2000
   36.9269   14.2280  -13.7500 C   0  0  0  0  0  0  0  0  0  0  0  0
   37.7552   13.3024  -14.1730 C   0  0  0  0  0  0  0  0  0  0  0  0
   37.5885   16.7688  -10.3861 C   0  0  0  0  0  0  0  0  0  0  0  0
   36.3545   16.6811  -10.9871 C   0  0  0  0  0  0  0  0  0  0  0  0
   36.1614   15.8487  -12.0797 C   0  0  0  0  0  0  0  0  0  0  0  0
   37.1842   15.0891  -12.5968 C   0  0  0  0  0  0  0  0  0  0  0  0
   38.4165   15.1761  -11.9974 C   0  0  0  0  0  0  0  0  0  0  0  0
   38.6166   16.0119  -10.8978 C   0  0  0  0  0  0  0  0  0  0  0  0
   37.8309   17.5882   -9.2896 O   0  0  0  0  0  0  0  0  0  0  0  0
   37.6910   19.7015   -8.1599 C   0  0  0  0  0  0  0  0  0  0  0  0
   37.8713   18.9824   -9.4819 C   0  0  0  0  0  0  0  0  0  0  0  0
   37.4653   12.4633  -15.3258 C   0  0  0  0  0  0  0  0  0  0  0  0
   38.5446   12.0131  -16.0919 C   0  0  0  0  0  0  0  0  0  0  0  0
   38.3904   11.2158  -17.2018 C   0  0  0  0  0  0  0  0  0  0  0  0
   37.1204   10.8389  -17.5832 C   0  0  0  0  0  0  0  0  0  0  0  0
   36.0581   11.2794  -16.8328 C   0  0  0  0  0  0  0  0  0  0  0  0
   36.2146   12.0835  -15.7137 C   0  0  0  0  0  0  0  0  0  0  0  0
   39.5299   10.8303  -17.8836 O   0  0  0  0  0  0  0  0  0  0  0  0
   40.6164   11.6704  -18.1632 C   0  0  0  0  0  0  0  0  0  0  0  0
   34.7868   10.8873  -17.2356 O   0  0  0  0  0  0  0  0  0  0  0  0
   33.6389   11.0062  -16.4457 C   0  0  0  0  0  0  0  0  0  0  0  0
 10 11  1  0  0  0
 11  9  1  0  0  0
  9  3  1  0  0  0
  3  4  2  0  0  0
  4  5  1  0  0  0
  5  6  2  0  0  0
  6  1  1  0  0  0
  1  2  2  0  0  0
  2 12  1  0  0  0
 12 13  2  0  0  0
 13 14  1  0  0  0
 14 18  1  0  0  0
 18 19  1  0  0  0
 14 15  2  0  0  0
 15 16  1  0  0  0
 16 20  1  0  0  0
 20 21  1  0  0  0
 16 17  2  0  0  0
  6  7  1  0  0  0
  7  8  2  0  0  0
  8  3  1  0  0  0
 17 12  1  0  0  0
M  END
> <minimizedAffinity>
-7.11477

> <CNNscore>
0.3261538148

> <CNNaffinity>
5.2371892929

> <CNN_VS>
1.7081292868

> <CNNaffinity_variance>
0.2336220294

$$$$
[H]/C(=C(/[H])c1c([H])c(OC([H])([H])[H])c([H])c(OC([H])([H])[H])c1[H])c1c([H])c([H])c(OC([H])([H])C([H])([H])[H])c([H])c1[H]


 21 22  0  0  0  0  0  0  0  0999 V2000
   36.9265   13.4913  -14.4963 C   0  0  0  0  0  0  0  0  0  0  0  0
   38.2121   13.7389  -14.4073 C   0  0  0  0  0  0  0  0  0  0  0  0
   34.0603   15.1965  -11.8343 C   0  0  0  0  0  0  0  0  0  0  0  0
   35.3995   15.4925  -11.7318 C   0  0  0  0  0  0  0  0  0  0  0  0
   36.3144   14.9270  -12.6077 C   0  0  0  0  0  0  0  0  0  0  0  0
   35.9213   14.0595  -13.5994 C   0  0  0  0  0  0  0  0  0  0  0  0
   34.5844   13.7634  -13.7025 C   0  0  0  0  0  0  0  0  0  0  0  0
   33.6595   14.3295  -12.8238 C   0  0  0  0  0  0  0  0  0  0  0  0
   33.1062   15.7380  -10.9804 O   0  0  0  0  0  0  0  0  0  0  0  0
   31.0378   15.3948   -9.8118 C   0  0  0  0  0  0  0  0  0  0  0  0
   31.7594   15.3617  -11.1442 C   0  0  0  0  0  0  0  0  0  0  0  0
   39.1843   13.1547  -15.3186 C   0  0  0  0  0  0  0  0  0  0  0  0
   38.7066   12.3203  -16.3336 C   0  0  0  0  0  0  0  0  0  0  0  0
   39.5323   11.7141  -17.2512 C   0  0  0  0  0  0  0  0  0  0  0  0
   40.8913   11.9328  -17.1751 C   0  0  0  0  0  0  0  0  0  0  0  0
   41.3637   12.7519  -16.1794 C   0  0  0  0  0  0  0  0  0  0  0  0
   40.5303   13.3628  -15.2544 C   0  0  0  0  0  0  0  0  0  0  0  0
   38.9491   10.9087  -18.2120 O   0  0  0  0  0  0  0  0  0  0  0  0
   37.6070   10.5049  -18.2088 C   0  0  0  0  0  0  0  0  0  0  0  0
   42.7371   12.9583  -16.1214 O   0  0  0  0  0  0  0  0  0  0  0  0
   43.4157   13.4293  -14.9930 C   0  0  0  0  0  0  0  0  0  0  0  0
 10 11  1  0  0  0
 11  9  1  0  0  0
  9  3  1  0  0  0
  3  4  2  0  0  0
  4  5  1  0  0  0
  5  6  2  0  0  0
  6  1  1  0  0  0
  1  2  2  0  0  0
  2 12  1  0  0  0
 12 13  2  0  0  0
 13 14  1  0  0  0
 14 18  1  0  0  0
 18 19  1  0  0  0
 14 15  2  0  0  0
 15 16  1  0  0  0
 16 20  1  0  0  0
 20 21  1  0  0  0
 16 17  2  0  0  0
  6  7  1  0  0  0
  7  8  2  0  0  0
  8  3  1  0  0  0
 17 12  1  0  0  0
M  END
> <minimizedAffinity>
-6.55204

> <CNNscore>
0.3210714161

> <CNNaffinity>
5.5409569740

> <CNN_VS>
1.7790429592

> <CNNaffinity_variance>
0.2526153922

$$$$
[H]/C(=C(/[H])c1c([H])c(OC([H])([H])[H])c([H])c(OC([H])([H])[H])c1[H])c1c([H])c([H])c(OC([H])([H])C([H])([H])[H])c([H])c1[H]


 21 22  0  0  0  0  0  0  0  0999 V2000
   41.3591   12.9071  -15.1405 C   0  0  0  0  0  0  0  0  0  0  0  0
   40.1591   13.3164  -14.8021 C   0  0  0  0  0  0  0  0  0  0  0  0
   45.0143   14.6331  -13.7733 C   0  0  0  0  0  0  0  0  0  0  0  0
   44.9292   14.0084  -14.9955 C   0  0  0  0  0  0  0  0  0  0  0  0
   43.7309   13.4539  -15.4206 C   0  0  0  0  0  0  0  0  0  0  0  0
   42.5968   13.5074  -14.6451 C   0  0  0  0  0  0  0  0  0  0  0  0
   42.6809   14.1310  -13.4246 C   0  0  0  0  0  0  0  0  0  0  0  0
   43.8840   14.6906  -12.9918 C   0  0  0  0  0  0  0  0  0  0  0  0
   46.1922   15.2033  -13.3042 O   0  0  0  0  0  0  0  0  0  0  0  0
   46.1393   17.4384  -14.1779 C   0  0  0  0  0  0  0  0  0  0  0  0
   46.8779   16.1158  -14.1286 C   0  0  0  0  0  0  0  0  0  0  0  0
   38.9485   12.6939  -15.3158 C   0  0  0  0  0  0  0  0  0  0  0  0
   39.0350   12.0033  -16.5284 C   0  0  0  0  0  0  0  0  0  0  0  0
   37.9569   11.3769  -17.1085 C   0  0  0  0  0  0  0  0  0  0  0  0
   36.7338   11.4264  -16.4744 C   0  0  0  0  0  0  0  0  0  0  0  0
   36.6456   12.1039  -15.2832 C   0  0  0  0  0  0  0  0  0  0  0  0
   37.7333   12.7354  -14.6989 C   0  0  0  0  0  0  0  0  0  0  0  0
   38.1593   10.7235  -18.3102 O   0  0  0  0  0  0  0  0  0  0  0  0
   39.2231   10.9750  -19.1872 C   0  0  0  0  0  0  0  0  0  0  0  0
   35.4030   12.1409  -14.6614 O   0  0  0  0  0  0  0  0  0  0  0  0
   35.2083   12.4313  -13.3073 C   0  0  0  0  0  0  0  0  0  0  0  0
 10 11  1  0  0  0
 11  9  1  0  0  0
  9  3  1  0  0  0
  3  4  2  0  0  0
  4  5  1  0  0  0
  5  6  2  0  0  0
  6  1  1  0  0  0
  1  2  2  0  0  0
  2 12  1  0  0  0
 12 13  2  0  0  0
 13 14  1  0  0  0
 14 18  1  0  0  0
 18 19  1  0  0  0
 14 15  2  0  0  0
 15 16  1  0  0  0
 16 20  1  0  0  0
 20 21  1  0  0  0
 16 17  2  0  0  0
  6  7  1  0  0  0
  7  8  2  0  0  0
  8  3  1  0  0  0
 17 12  1  0  0  0
M  END
> <minimizedAffinity>
-6.25340

> <CNNscore>
0.2996106744

> <CNNaffinity>
5.2544941902

> <CNN_VS>
1.5743025541

> <CNNaffinity_variance>
0.0937113389

$$$$
[H]/C(=C(/[H])c1c([H])c(OC([H])([H])[H])c([H])c(OC([H])([H])[H])c1[H])c1c([H])c([H])c(OC([H])([H])C([H])([H])[H])c([H])c1[H]


 21 22  0  0  0  0  0  0  0  0999 V2000
   36.3290   14.0999  -13.4948 C   0  0  0  0  0  0  0  0  0  0  0  0
   37.3364   13.3880  -13.9424 C   0  0  0  0  0  0  0  0  0  0  0  0
   36.6282   16.6297  -10.0715 C   0  0  0  0  0  0  0  0  0  0  0  0
   37.7458   16.2187  -10.7594 C   0  0  0  0  0  0  0  0  0  0  0  0
   37.6259   15.3961  -11.8699 C   0  0  0  0  0  0  0  0  0  0  0  0
   36.3996   14.9661  -12.3191 C   0  0  0  0  0  0  0  0  0  0  0  0
   35.2831   15.3760  -11.6328 C   0  0  0  0  0  0  0  0  0  0  0  0
   35.3980   16.2036  -10.5148 C   0  0  0  0  0  0  0  0  0  0  0  0
   36.6976   17.4534   -8.9537 O   0  0  0  0  0  0  0  0  0  0  0  0
   35.4948   18.8536   -7.4193 C   0  0  0  0  0  0  0  0  0  0  0  0
   35.6025   17.4887   -8.0695 C   0  0  0  0  0  0  0  0  0  0  0  0
   37.2291   12.5361  -15.1171 C   0  0  0  0  0  0  0  0  0  0  0  0
   38.4010   12.2504  -15.8239 C   0  0  0  0  0  0  0  0  0  0  0  0
   38.4198   11.4578  -16.9476 C   0  0  0  0  0  0  0  0  0  0  0  0
   37.2369   10.9171  -17.4045 C   0  0  0  0  0  0  0  0  0  0  0  0
   36.0841   11.1958  -16.7124 C   0  0  0  0  0  0  0  0  0  0  0  0
   36.0660   11.9952  -15.5793 C   0  0  0  0  0  0  0  0  0  0  0  0
   39.6377   11.2431  -17.5663 O   0  0  0  0  0  0  0  0  0  0  0  0
   39.8214   11.1291  -18.9510 C   0  0  0  0  0  0  0  0  0  0  0  0
   34.9032   10.6402  -17.1908 O   0  0  0  0  0  0  0  0  0  0  0  0
   33.6303   10.9583  -16.7064 C   0  0  0  0  0  0  0  0  0  0  0  0
 10 11  1  0  0  0
 11  9  1  0  0  0
  9  3  1  0  0  0
  3  4  2  0  0  0
  4  5  1  0  0  0
  5  6  2  0  0  0
  6  1  1  0  0  0
  1  2  2  0  0  0
  2 12  1  0  0  0
 12 13  2  0  0  0
 13 14  1  0  0  0
 14 18  1  0  0  0
 18 19  1  0  0  0
 14 15  2  0  0  0
 15 16  1  0  0  0
 16 20  1  0  0  0
 20 21  1  0  0  0
 16 17  2  0  0  0
  6  7  1  0  0  0
  7  8  2  0  0  0
  8  3  1  0  0  0
 17 12  1  0  0  0
M  END
> <minimizedAffinity>
-6.60969

> <CNNscore>
0.2995828986

> <CNNaffinity>
5.2865037918

> <CNN_VS>
1.5837460756

> <CNNaffinity_variance>
0.2814539373

$$$$
[H]/C(C(=O)N(C([H])([H])[H])C([H])([H])c1sc2c([H])c([H])c([H])c([H])c2c1C([H])([H])[H])=C(/[H])c1c([H])nc2c(c1[H])C([H])([H])N([H])C([H])([H])C([H])([H])N2[H]


 30 33  0  0  0  0  0  0  0  0999 V2000
   35.3810   14.8646  -12.7724 N   0  0  0  0  0  0  0  0  0  0  0  0
   34.2378   14.1281  -12.3057 C   0  0  0  0  0  0  0  0  0  0  0  0
   35.8603   15.9444  -11.8948 C   0  0  0  0  0  0  0  0  0  0  0  0
   36.5947   16.8462  -12.2983 O   0  0  0  0  0  0  0  0  0  0  0  0
   35.4788   15.8733  -10.4893 C   0  0  0  0  0  0  0  0  0  0  0  0
   36.0846   16.7639   -9.6877 C   0  0  0  0  0  0  0  0  0  0  0  0
   35.8181   16.8138   -8.2380 C   0  0  0  0  0  0  0  0  0  0  0  0
   36.8775   16.8041   -7.3584 C   0  0  0  0  0  0  0  0  0  0  0  0
   36.7109   16.6879   -5.9982 N   0  0  0  0  0  0  0  0  0  0  0  0
   35.4580   16.5800   -5.5263 C   0  0  0  0  0  0  0  0  0  0  0  0
   34.3872   16.6008   -6.3992 C   0  0  0  0  0  0  0  0  0  0  0  0
   34.5495   16.7151   -7.7565 C   0  0  0  0  0  0  0  0  0  0  0  0
   32.9552   16.5124   -5.9608 C   0  0  0  0  0  0  0  0  0  0  0  0
   32.8620   15.2198   -5.3418 N   0  0  0  0  0  0  0  0  0  0  0  0
   33.1835   15.1369   -3.9763 C   0  0  0  0  0  0  0  0  0  0  0  0
   34.2614   15.9007   -3.3612 C   0  0  0  0  0  0  0  0  0  0  0  0
   35.3789   16.3526   -4.1020 N   0  0  0  0  0  0  0  0  0  0  0  0
   33.3638   14.5454   -5.9673 H   0  0  0  0  0  0  0  0  0  0  0  0
   36.2730   16.5176   -3.5949 H   0  0  0  0  0  0  0  0  0  0  0  0
   36.0232   14.7195  -13.9731 C   0  0  0  0  0  0  0  0  0  0  0  0
   34.5309   12.3333  -15.4293 C   0  0  0  0  0  0  0  0  0  0  0  0
   36.0534   12.6035  -15.4763 C   0  0  0  0  0  0  0  0  0  0  0  0
   36.5543   13.5159  -14.6066 C   0  0  0  0  0  0  0  0  0  0  0  0
   38.3062   13.3207  -14.9198 S   0  0  0  0  0  0  0  0  0  0  0  0
   38.2282   12.1283  -16.1295 C   0  0  0  0  0  0  0  0  0  0  0  0
   39.1868   11.4903  -16.9355 C   0  0  0  0  0  0  0  0  0  0  0  0
   38.8270   10.5851  -17.9007 C   0  0  0  0  0  0  0  0  0  0  0  0
   37.4680   10.3500  -18.0152 C   0  0  0  0  0  0  0  0  0  0  0  0
   36.5475   10.9543  -17.2524 C   0  0  0  0  0  0  0  0  0  0  0  0
   36.8943   11.8967  -16.2564 C   0  0  0  0  0  0  0  0  0  0  0  0
 21 22  1  0  0  0
 22 23  2  0  0  0
 23 20  1  0  0  0
 20  1  1  0  0  0
  1  2  1  0  0  0
  1  3  1  0  0  0
  3  4  2  0  0  0
  3  5  1  0  0  0
  5  6  2  0  0  0
  6  7  1  0  0  0
  7  8  2  0  0  0
  8  9  1  0  0  0
  9 10  2  0  0  0
 10 11  1  0  0  0
 11 12  2  0  0  0
 11 13  1  0  0  0
 13 14  1  0  0  0
 14 15  1  0  0  0
 15 16  1  0  0  0
 16 17  1  0  0  0
 23 24  1  0  0  0
 24 25  1  0  0  0
 25 26  2  0  0  0
 26 27  1  0  0  0
 27 28  2  0  0  0
 28 29  1  0  0  0
 29 30  2  0  0  0
 30 22  1  0  0  0
 12  7  1  0  0  0
 30 25  1  0  0  0
 17 10  1  0  0  0
 14 18  1  0  0  0
 17 19  1  0  0  0
M  END
> <minimizedAffinity>
-7.41397

> <CNNscore>
0.2497822046

> <CNNaffinity>
5.9100127220

> <CNN_VS>
1.4762159586

> <CNNaffinity_variance>
0.3465673327

$$$$
[H]/C(C(=O)N(C([H])([H])[H])C([H])([H])c1sc2c([H])c([H])c([H])c([H])c2c1C([H])([H])[H])=C(/[H])c1c([H])nc2c(c1[H])C([H])([H])N([H])C([H])([H])C([H])([H])N2[H]


 30 33  0  0  0  0  0  0  0  0999 V2000
   36.1507   14.9857  -12.5234 N   0  0  0  0  0  0  0  0  0  0  0  0
   35.0123   15.0751  -11.6497 C   0  0  0  0  0  0  0  0  0  0  0  0
   37.4498   15.3514  -11.9367 C   0  0  0  0  0  0  0  0  0  0  0  0
   38.4292   15.6352  -12.6262 O   0  0  0  0  0  0  0  0  0  0  0  0
   37.5562   15.3042  -10.4832 C   0  0  0  0  0  0  0  0  0  0  0  0
   38.1922   16.3459   -9.9234 C   0  0  0  0  0  0  0  0  0  0  0  0
   38.3948   16.4422   -8.4657 C   0  0  0  0  0  0  0  0  0  0  0  0
   38.5450   15.2882   -7.7297 C   0  0  0  0  0  0  0  0  0  0  0  0
   38.5779   15.2846   -6.3548 N   0  0  0  0  0  0  0  0  0  0  0  0
   38.4567   16.4627   -5.7210 C   0  0  0  0  0  0  0  0  0  0  0  0
   38.3176   17.6279   -6.4503 C   0  0  0  0  0  0  0  0  0  0  0  0
   38.2829   17.6353   -7.8216 C   0  0  0  0  0  0  0  0  0  0  0  0
   38.2020   18.9887   -5.8293 C   0  0  0  0  0  0  0  0  0  0  0  0
   36.9865   18.9192   -5.0675 N   0  0  0  0  0  0  0  0  0  0  0  0
   37.0799   18.4339   -3.7520 C   0  0  0  0  0  0  0  0  0  0  0  0
   37.9677   17.3459   -3.3626 C   0  0  0  0  0  0  0  0  0  0  0  0
   38.3916   16.3573   -4.2818 N   0  0  0  0  0  0  0  0  0  0  0  0
   36.2729   18.4498   -5.6742 H   0  0  0  0  0  0  0  0  0  0  0  0
   38.6629   15.4230   -3.9113 H   0  0  0  0  0  0  0  0  0  0  0  0
   36.1465   14.6702  -13.8560 C   0  0  0  0  0  0  0  0  0  0  0  0
   34.5955   12.3268  -15.3202 C   0  0  0  0  0  0  0  0  0  0  0  0
   36.1174   12.5896  -15.4079 C   0  0  0  0  0  0  0  0  0  0  0  0
   36.6504   13.4787  -14.5331 C   0  0  0  0  0  0  0  0  0  0  0  0
   38.3907   13.2812  -14.9046 S   0  0  0  0  0  0  0  0  0  0  0  0
   38.2681   12.1178  -16.1386 C   0  0  0  0  0  0  0  0  0  0  0  0
   39.1976   11.4934  -16.9883 C   0  0  0  0  0  0  0  0  0  0  0  0
   38.8028   10.6130  -17.9626 C   0  0  0  0  0  0  0  0  0  0  0  0
   37.4394   10.3881  -18.0406 C   0  0  0  0  0  0  0  0  0  0  0  0
   36.5465   10.9795  -17.2360 C   0  0  0  0  0  0  0  0  0  0  0  0
   36.9296   11.8966  -16.2296 C   0  0  0  0  0  0  0  0  0  0  0  0
 21 22  1  0  0  0
 22 23  2  0  0  0
 23 20  1  0  0  0
 20  1  1  0  0  0
  1  2  1  0  0  0
  1  3  1  0  0  0
  3  4  2  0  0  0
  3  5  1  0  0  0
  5  6  2  0  0  0
  6  7  1  0  0  0
  7  8  2  0  0  0
  8  9  1  0  0  0
  9 10  2  0  0  0
 10 11  1  0  0  0
 11 12  2  0  0  0
 11 13  1  0  0  0
 13 14  1  0  0  0
 14 15  1  0  0  0
 15 16  1  0  0  0
 16 17  1  0  0  0
 23 24  1  0  0  0
 24 25  1  0  0  0
 25 26  2  0  0  0
 26 27  1  0  0  0
 27 28  2  0  0  0
 28 29  1  0  0  0
 29 30  2  0  0  0
 30 22  1  0  0  0
 12  7  1  0  0  0
 30 25  1  0  0  0
 17 10  1  0  0  0
 14 18  1  0  0  0
 17 19  1  0  0  0
M  END
> <minimizedAffinity>
-7.70997

> <CNNscore>
0.2460163236

> <CNNaffinity>
5.8289861679

> <CNN_VS>
1.4340257645

> <CNNaffinity_variance>
0.2519416511

$$$$
[H]/C(C(=O)N(C([H])([H])[H])C([H])([H])c1sc2c([H])c([H])c([H])c([H])c2c1C([H])([H])[H])=C(/[H])c1c([H])nc2c(c1[H])C([H])([H])N([H])C([H])([H])C([H])([H])N2[H]


 30 33  0  0  0  0  0  0  0  0999 V2000
   38.6047   15.2510  -12.0325 N   0  0  0  0  0  0  0  0  0  0  0  0
   37.8015   14.9202  -10.8867 C   0  0  0  0  0  0  0  0  0  0  0  0
   39.8087   16.0558  -11.7711 C   0  0  0  0  0  0  0  0  0  0  0  0
   40.3934   16.6766  -12.6587 O   0  0  0  0  0  0  0  0  0  0  0  0
   40.3313   16.0417  -10.4099 C   0  0  0  0  0  0  0  0  0  0  0  0
   41.6704   16.0247  -10.3128 C   0  0  0  0  0  0  0  0  0  0  0  0
   42.3559   15.9957   -9.0073 C   0  0  0  0  0  0  0  0  0  0  0  0
   43.6110   16.5505   -8.8939 C   0  0  0  0  0  0  0  0  0  0  0  0
   44.3782   16.4234   -7.7595 N   0  0  0  0  0  0  0  0  0  0  0  0
   43.8673   15.7265   -6.7311 C   0  0  0  0  0  0  0  0  0  0  0  0
   42.6040   15.1759   -6.8301 C   0  0  0  0  0  0  0  0  0  0  0  0
   41.8364   15.2993   -7.9603 C   0  0  0  0  0  0  0  0  0  0  0  0
   41.9439   14.4054   -5.7249 C   0  0  0  0  0  0  0  0  0  0  0  0
   42.7968   13.2646   -5.5412 N   0  0  0  0  0  0  0  0  0  0  0  0
   43.8821   13.4093   -4.6603 C   0  0  0  0  0  0  0  0  0  0  0  0
   44.6665   14.6327   -4.5527 C   0  0  0  0  0  0  0  0  0  0  0  0
   44.7788   15.5492   -5.6247 N   0  0  0  0  0  0  0  0  0  0  0  0
   43.0330   12.9037   -6.4960 H   0  0  0  0  0  0  0  0  0  0  0  0
   45.6223   16.1578   -5.6671 H   0  0  0  0  0  0  0  0  0  0  0  0
   38.3323   14.9627  -13.3432 C   0  0  0  0  0  0  0  0  0  0  0  0
   36.8083   12.4112  -14.4426 C   0  0  0  0  0  0  0  0  0  0  0  0
   38.1989   12.8994  -14.9127 C   0  0  0  0  0  0  0  0  0  0  0  0
   38.8080   13.8594  -14.1731 C   0  0  0  0  0  0  0  0  0  0  0  0
   40.3992   13.9250  -14.9913 S   0  0  0  0  0  0  0  0  0  0  0  0
   40.1271   12.7548  -16.1946 C   0  0  0  0  0  0  0  0  0  0  0  0
   40.8812   12.2760  -17.2799 C   0  0  0  0  0  0  0  0  0  0  0  0
   40.3764   11.3450  -18.1511 C   0  0  0  0  0  0  0  0  0  0  0  0
   39.0881   10.9180  -17.8806 C   0  0  0  0  0  0  0  0  0  0  0  0
   38.3618   11.3697  -16.8497 C   0  0  0  0  0  0  0  0  0  0  0  0
   38.8585   12.3351  -15.9431 C   0  0  0  0  0  0  0  0  0  0  0  0
 21 22  1  0  0  0
 22 23  2  0  0  0
 23 20  1  0  0  0
 20  1  1  0  0  0
  1  2  1  0  0  0
  1  3  1  0  0  0
  3  4  2  0  0  0
  3  5  1  0  0  0
  5  6  2  0  0  0
  6  7  1  0  0  0
  7  8  2  0  0  0
  8  9  1  0  0  0
  9 10  2  0  0  0
 10 11  1  0  0  0
 11 12  2  0  0  0
 11 13  1  0  0  0
 13 14  1  0  0  0
 14 15  1  0  0  0
 15 16  1  0  0  0
 16 17  1  0  0  0
 23 24  1  0  0  0
 24 25  1  0  0  0
 25 26  2  0  0  0
 26 27  1  0  0  0
 27 28  2  0  0  0
 28 29  1  0  0  0
 29 30  2  0  0  0
 30 22  1  0  0  0
 12  7  1  0  0  0
 30 25  1  0  0  0
 17 10  1  0  0  0
 14 18  1  0  0  0
 17 19  1  0  0  0
M  END
> <minimizedAffinity>
-8.14818

> <CNNscore>
0.2319994867

> <CNNaffinity>
5.4219312668

> <CNN_VS>
1.2578852177

> <CNNaffinity_variance>
0.1825354099

$$$$
[H]/C(C(=O)N(C([H])([H])[H])C([H])([H])c1sc2c([H])c([H])c([H])c([H])c2c1C([H])([H])[H])=C(/[H])c1c([H])nc2c(c1[H])C([H])([H])N([H])C([H])([H])C([H])([H])N2[H]


 30 33  0  0  0  0  0  0  0  0999 V2000
   38.5889   15.2320  -12.0432 N   0  0  0  0  0  0  0  0  0  0  0  0
   37.8235   14.9477  -10.8598 C   0  0  0  0  0  0  0  0  0  0  0  0
   39.8155   16.0218  -11.8491 C   0  0  0  0  0  0  0  0  0  0  0  0
   40.3772   16.6071  -12.7749 O   0  0  0  0  0  0  0  0  0  0  0  0
   40.3881   16.0358  -10.5082 C   0  0  0  0  0  0  0  0  0  0  0  0
   41.7300   16.0330  -10.4606 C   0  0  0  0  0  0  0  0  0  0  0  0
   42.4635   16.0326   -9.1811 C   0  0  0  0  0  0  0  0  0  0  0  0
   41.9080   15.4072   -8.0874 C   0  0  0  0  0  0  0  0  0  0  0  0
   42.4496   15.4987   -6.8265 N   0  0  0  0  0  0  0  0  0  0  0  0
   43.5647   16.2318   -6.6740 C   0  0  0  0  0  0  0  0  0  0  0  0
   44.1369   16.8537   -7.7671 C   0  0  0  0  0  0  0  0  0  0  0  0
   43.5989   16.7660   -9.0259 C   0  0  0  0  0  0  0  0  0  0  0  0
   45.3939   17.6696   -7.6959 C   0  0  0  0  0  0  0  0  0  0  0  0
   45.0494   18.7607   -6.8279 N   0  0  0  0  0  0  0  0  0  0  0  0
   45.2171   18.5604   -5.4471 C   0  0  0  0  0  0  0  0  0  0  0  0
   44.9339   17.2947   -4.7828 C   0  0  0  0  0  0  0  0  0  0  0  0
   44.0037   16.3649   -5.3043 N   0  0  0  0  0  0  0  0  0  0  0  0
   44.1038   19.0999   -7.1252 H   0  0  0  0  0  0  0  0  0  0  0  0
   43.5390   15.7083   -4.6434 H   0  0  0  0  0  0  0  0  0  0  0  0
   38.2630   14.9126  -13.3343 C   0  0  0  0  0  0  0  0  0  0  0  0
   36.7621   12.3214  -14.3707 C   0  0  0  0  0  0  0  0  0  0  0  0
   38.1273   12.8356  -14.8853 C   0  0  0  0  0  0  0  0  0  0  0  0
   38.7374   13.8137  -14.1707 C   0  0  0  0  0  0  0  0  0  0  0  0
   40.3018   13.9071  -15.0364 S   0  0  0  0  0  0  0  0  0  0  0  0
   40.0193   12.7226  -16.2232 C   0  0  0  0  0  0  0  0  0  0  0  0
   40.7509   12.2520  -17.3273 C   0  0  0  0  0  0  0  0  0  0  0  0
   40.2405   11.3042  -18.1769 C   0  0  0  0  0  0  0  0  0  0  0  0
   38.9702   10.8519  -17.8652 C   0  0  0  0  0  0  0  0  0  0  0  0
   38.2654   11.2956  -16.8161 C   0  0  0  0  0  0  0  0  0  0  0  0
   38.7679   12.2779  -15.9312 C   0  0  0  0  0  0  0  0  0  0  0  0
 21 22  1  0  0  0
 22 23  2  0  0  0
 23 20  1  0  0  0
 20  1  1  0  0  0
  1  2  1  0  0  0
  1  3  1  0  0  0
  3  4  2  0  0  0
  3  5  1  0  0  0
  5  6  2  0  0  0
  6  7  1  0  0  0
  7  8  2  0  0  0
  8  9  1  0  0  0
  9 10  2  0  0  0
 10 11  1  0  0  0
 11 12  2  0  0  0
 11 13  1  0  0  0
 13 14  1  0  0  0
 14 15  1  0  0  0
 15 16  1  0  0  0
 16 17  1  0  0  0
 23 24  1  0  0  0
 24 25  1  0  0  0
 25 26  2  0  0  0
 26 27  1  0  0  0
 27 28  2  0  0  0
 28 29  1  0  0  0
 29 30  2  0  0  0
 30 22  1  0  0  0
 12  7  1  0  0  0
 30 25  1  0  0  0
 17 10  1  0  0  0
 14 18  1  0  0  0
 17 19  1  0  0  0
M  END
> <minimizedAffinity>
-8.18842

> <CNNscore>
0.2233846486

> <CNNaffinity>
5.4295606613

> <CNN_VS>
1.2128804922

> <CNNaffinity_variance>
0.2163992375

$$$$
[H]/C(C(=O)N(C([H])([H])[H])C([H])([H])c1sc2c([H])c([H])c([H])c([H])c2c1C([H])([H])[H])=C(/[H])c1c([H])nc2c(c1[H])C([H])([H])N([H])C([H])([H])C([H])([H])N2[H]


 30 33  0  0  0  0  0  0  0  0999 V2000
   36.2166   14.4907  -12.3553 N   0  0  0  0  0  0  0  0  0  0  0  0
   34.8091   14.7468  -12.2121 C   0  0  0  0  0  0  0  0  0  0  0  0
   37.1193   15.5816  -11.9542 C   0  0  0  0  0  0  0  0  0  0  0  0
   38.2939   15.6342  -12.3186 O   0  0  0  0  0  0  0  0  0  0  0  0
   36.5814   16.5838  -11.0420 C   0  0  0  0  0  0  0  0  0  0  0  0
   37.1213   16.5849   -9.8126 C   0  0  0  0  0  0  0  0  0  0  0  0
   36.6780   17.5276   -8.7686 C   0  0  0  0  0  0  0  0  0  0  0  0
   35.5902   17.2049   -7.9886 C   0  0  0  0  0  0  0  0  0  0  0  0
   35.0197   18.0935   -7.1074 N   0  0  0  0  0  0  0  0  0  0  0  0
   35.5578   19.3210   -7.0174 C   0  0  0  0  0  0  0  0  0  0  0  0
   36.6568   19.6512   -7.7868 C   0  0  0  0  0  0  0  0  0  0  0  0
   37.2276   18.7681   -8.6678 C   0  0  0  0  0  0  0  0  0  0  0  0
   37.3383   20.9867   -7.7334 C   0  0  0  0  0  0  0  0  0  0  0  0
   36.3284   21.9083   -8.1729 N   0  0  0  0  0  0  0  0  0  0  0  0
   35.4586   22.4220   -7.1959 C   0  0  0  0  0  0  0  0  0  0  0  0
   34.9521   21.6314   -6.0815 C   0  0  0  0  0  0  0  0  0  0  0  0
   34.8336   20.2234   -6.1527 N   0  0  0  0  0  0  0  0  0  0  0  0
   35.8670   21.4785   -9.0097 H   0  0  0  0  0  0  0  0  0  0  0  0
   34.1269   19.7565   -5.5473 H   0  0  0  0  0  0  0  0  0  0  0  0
   36.8029   13.3752  -12.8914 C   0  0  0  0  0  0  0  0  0  0  0  0
   39.5269   13.3606  -14.5103 C   0  0  0  0  0  0  0  0  0  0  0  0
   38.1936   12.7389  -14.9888 C   0  0  0  0  0  0  0  0  0  0  0  0
   37.0735   13.0443  -14.2876 C   0  0  0  0  0  0  0  0  0  0  0  0
   35.8341   12.2679  -15.3205 S   0  0  0  0  0  0  0  0  0  0  0  0
   36.8540   11.6186  -16.5160 C   0  0  0  0  0  0  0  0  0  0  0  0
   36.6432   10.8085  -17.6452 C   0  0  0  0  0  0  0  0  0  0  0  0
   37.6859   10.3707  -18.4208 C   0  0  0  0  0  0  0  0  0  0  0  0
   38.9419   10.7850  -18.0133 C   0  0  0  0  0  0  0  0  0  0  0  0
   39.1523   11.5557  -16.9381 C   0  0  0  0  0  0  0  0  0  0  0  0
   38.0934   12.0126  -16.1191 C   0  0  0  0  0  0  0  0  0  0  0  0
 21 22  1  0  0  0
 22 23  2  0  0  0
 23 20  1  0  0  0
 20  1  1  0  0  0
  1  2  1  0  0  0
  1  3  1  0  0  0
  3  4  2  0  0  0
  3  5  1  0  0  0
  5  6  2  0  0  0
  6  7  1  0  0  0
  7  8  2  0  0  0
  8  9  1  0  0  0
  9 10  2  0  0  0
 10 11  1  0  0  0
 11 12  2  0  0  0
 11 13  1  0  0  0
 13 14  1  0  0  0
 14 15  1  0  0  0
 15 16  1  0  0  0
 16 17  1  0  0  0
 23 24  1  0  0  0
 24 25  1  0  0  0
 25 26  2  0  0  0
 26 27  1  0  0  0
 27 28  2  0  0  0
 28 29  1  0  0  0
 29 30  2  0  0  0
 30 22  1  0  0  0
 12  7  1  0  0  0
 30 25  1  0  0  0
 17 10  1  0  0  0
 14 18  1  0  0  0
 17 19  1  0  0  0
M  END
> <minimizedAffinity>
-8.63093

> <CNNscore>
0.1939839274

> <CNNaffinity>
5.6429686546

> <CNN_VS>
1.0946452618

> <CNNaffinity_variance>
0.1925270259

$$$$
[H]/C(C(=O)N(C([H])([H])[H])C([H])([H])c1sc2c([H])c([H])c([H])c([H])c2c1C([H])([H])[H])=C(/[H])c1c([H])nc2c(c1[H])C([H])([H])N([H])C([H])([H])C([H])([H])N2[H]


 30 33  0  0  0  0  0  0  0  0999 V2000
   40.5084   13.2102  -15.3088 N   0  0  0  0  0  0  0  0  0  0  0  0
   40.0748   14.3944  -14.6184 C   0  0  0  0  0  0  0  0  0  0  0  0
   41.9603   13.0652  -15.5007 C   0  0  0  0  0  0  0  0  0  0  0  0
   42.4428   12.2997  -16.3352 O   0  0  0  0  0  0  0  0  0  0  0  0
   42.8251   13.8280  -14.6082 C   0  0  0  0  0  0  0  0  0  0  0  0
   44.1110   13.9042  -14.9870 C   0  0  0  0  0  0  0  0  0  0  0  0
   45.1165   14.6279  -14.1867 C   0  0  0  0  0  0  0  0  0  0  0  0
   45.3372   14.2490  -12.8814 C   0  0  0  0  0  0  0  0  0  0  0  0
   46.1366   14.9696  -12.0252 N   0  0  0  0  0  0  0  0  0  0  0  0
   46.7170   16.0850  -12.4976 C   0  0  0  0  0  0  0  0  0  0  0  0
   46.5119   16.4676  -13.8093 C   0  0  0  0  0  0  0  0  0  0  0  0
   45.7141   15.7523  -14.6659 C   0  0  0  0  0  0  0  0  0  0  0  0
   47.1387   17.6815  -14.4291 C   0  0  0  0  0  0  0  0  0  0  0  0
   46.6002   18.7750  -13.6696 N   0  0  0  0  0  0  0  0  0  0  0  0
   47.2834   19.1406  -12.4972 C   0  0  0  0  0  0  0  0  0  0  0  0
   47.9024   18.1748  -11.5986 C   0  0  0  0  0  0  0  0  0  0  0  0
   47.4486   16.8380  -11.5055 N   0  0  0  0  0  0  0  0  0  0  0  0
   45.5745   18.5928  -13.5583 H   0  0  0  0  0  0  0  0  0  0  0  0
   47.6172   16.3204  -10.6181 H   0  0  0  0  0  0  0  0  0  0  0  0
   39.7162   12.2441  -15.8696 C   0  0  0  0  0  0  0  0  0  0  0  0
   37.9789   10.7477  -18.0567 C   0  0  0  0  0  0  0  0  0  0  0  0
   37.4261   11.4368  -16.7869 C   0  0  0  0  0  0  0  0  0  0  0  0
   38.2726   12.2339  -16.0885 C   0  0  0  0  0  0  0  0  0  0  0  0
   37.1399   12.9138  -14.8800 S   0  0  0  0  0  0  0  0  0  0  0  0
   35.7224   12.1079  -15.3622 C   0  0  0  0  0  0  0  0  0  0  0  0
   34.4090   12.0591  -14.8641 C   0  0  0  0  0  0  0  0  0  0  0  0
   33.4547   11.2536  -15.4306 C   0  0  0  0  0  0  0  0  0  0  0  0
   33.8782   10.5068  -16.5161 C   0  0  0  0  0  0  0  0  0  0  0  0
   35.1279   10.5461  -16.9966 C   0  0  0  0  0  0  0  0  0  0  0  0
   36.1306   11.3630  -16.4240 C   0  0  0  0  0  0  0  0  0  0  0  0
 21 22  1  0  0  0
 22 23  2  0  0  0
 23 20  1  0  0  0
 20  1  1  0  0  0
  1  2  1  0  0  0
  1  3  1  0  0  0
  3  4  2  0  0  0
  3  5  1  0  0  0
  5  6  2  0  0  0
  6  7  1  0  0  0
  7  8  2  0  0  0
  8  9  1  0  0  0
  9 10  2  0  0  0
 10 11  1  0  0  0
 11 12  2  0  0  0
 11 13  1  0  0  0
 13 14  1  0  0  0
 14 15  1  0  0  0
 15 16  1  0  0  0
 16 17  1  0  0  0
 23 24  1  0  0  0
 24 25  1  0  0  0
 25 26  2  0  0  0
 26 27  1  0  0  0
 27 28  2  0  0  0
 28 29  1  0  0  0
 29 30  2  0  0  0
 30 22  1  0  0  0
 12  7  1  0  0  0
 30 25  1  0  0  0
 17 10  1  0  0  0
 14 18  1  0  0  0
 17 19  1  0  0  0
M  END
> <minimizedAffinity>
-8.39090

> <CNNscore>
0.1856492907

> <CNNaffinity>
5.9824609756

> <CNN_VS>
1.1106396914

> <CNNaffinity_variance>
0.2985392213

$$$$
[H]/C(C(=O)N(C([H])([H])[H])C([H])([H])c1sc2c([H])c([H])c([H])c([H])c2c1C([H])([H])[H])=C(/[H])c1c([H])nc2c(c1[H])C([H])([H])N([H])C([H])([H])C([H])([H])N2[H]


 30 33  0  0  0  0  0  0  0  0999 V2000
   36.1624   14.6699  -12.1829 N   0  0  0  0  0  0  0  0  0  0  0  0
   34.7308   14.7945  -12.2310 C   0  0  0  0  0  0  0  0  0  0  0  0
   36.8931   15.8017  -11.5904 C   0  0  0  0  0  0  0  0  0  0  0  0
   38.0968   15.9802  -11.7761 O   0  0  0  0  0  0  0  0  0  0  0  0
   36.1409   16.6859  -10.7081 C   0  0  0  0  0  0  0  0  0  0  0  0
   36.2385   16.4039   -9.3990 C   0  0  0  0  0  0  0  0  0  0  0  0
   35.5279   17.1952   -8.3772 C   0  0  0  0  0  0  0  0  0  0  0  0
   36.1991   18.2005   -7.7178 C   0  0  0  0  0  0  0  0  0  0  0  0
   35.6596   18.8738   -6.6468 N   0  0  0  0  0  0  0  0  0  0  0  0
   34.4280   18.5235   -6.2411 C   0  0  0  0  0  0  0  0  0  0  0  0
   33.7410   17.5244   -6.9033 C   0  0  0  0  0  0  0  0  0  0  0  0
   34.2763   16.8495   -7.9709 C   0  0  0  0  0  0  0  0  0  0  0  0
   32.3539   17.0856   -6.5371 C   0  0  0  0  0  0  0  0  0  0  0  0
   32.4941   16.5727   -5.2030 N   0  0  0  0  0  0  0  0  0  0  0  0
   32.3776   17.4916   -4.1461 C   0  0  0  0  0  0  0  0  0  0  0  0
   32.8982   18.8512   -4.2080 C   0  0  0  0  0  0  0  0  0  0  0  0
   33.9823   19.2025   -5.0465 N   0  0  0  0  0  0  0  0  0  0  0  0
   33.3571   15.9786   -5.1940 H   0  0  0  0  0  0  0  0  0  0  0  0
   34.5668   20.0217   -4.7800 H   0  0  0  0  0  0  0  0  0  0  0  0
   36.9205   13.6501  -12.6933 C   0  0  0  0  0  0  0  0  0  0  0  0
   39.6268   13.4902  -14.3339 C   0  0  0  0  0  0  0  0  0  0  0  0
   38.2658   12.9106  -14.7865 C   0  0  0  0  0  0  0  0  0  0  0  0
   37.1650   13.2762  -14.0835 C   0  0  0  0  0  0  0  0  0  0  0  0
   35.8866   12.5255  -15.0874 S   0  0  0  0  0  0  0  0  0  0  0  0
   36.8692   11.8087  -16.2756 C   0  0  0  0  0  0  0  0  0  0  0  0
   36.6163   10.9814  -17.3835 C   0  0  0  0  0  0  0  0  0  0  0  0
   37.6339   10.4848  -18.1571 C   0  0  0  0  0  0  0  0  0  0  0  0
   38.9089   10.8586  -17.7700 C   0  0  0  0  0  0  0  0  0  0  0  0
   39.1592   11.6453  -16.7151 C   0  0  0  0  0  0  0  0  0  0  0  0
   38.1267   12.1626  -15.8984 C   0  0  0  0  0  0  0  0  0  0  0  0
 21 22  1  0  0  0
 22 23  2  0  0  0
 23 20  1  0  0  0
 20  1  1  0  0  0
  1  2  1  0  0  0
  1  3  1  0  0  0
  3  4  2  0  0  0
  3  5  1  0  0  0
  5  6  2  0  0  0
  6  7  1  0  0  0
  7  8  2  0  0  0
  8  9  1  0  0  0
  9 10  2  0  0  0
 10 11  1  0  0  0
 11 12  2  0  0  0
 11 13  1  0  0  0
 13 14  1  0  0  0
 14 15  1  0  0  0
 15 16  1  0  0  0
 16 17  1  0  0  0
 23 24  1  0  0  0
 24 25  1  0  0  0
 25 26  2  0  0  0
 26 27  1  0  0  0
 27 28  2  0  0  0
 28 29  1  0  0  0
 29 30  2  0  0  0
 30 22  1  0  0  0
 12  7  1  0  0  0
 30 25  1  0  0  0
 17 10  1  0  0  0
 14 18  1  0  0  0
 17 19  1  0  0  0
M  END
> <minimizedAffinity>
-8.29171

> <CNNscore>
0.1837179512

> <CNNaffinity>
5.5753159523

> <CNN_VS>
1.0242856741

> <CNNaffinity_variance>
0.3380075395

$$$$
[H]/C(C(=O)N(C([H])([H])[H])C([H])([H])c1sc2c([H])c([H])c([H])c([H])c2c1C([H])([H])[H])=C(/[H])c1c([H])nc2c(c1[H])C([H])([H])N([H])C([H])([H])C([H])([H])N2[H]


 30 33  0  0  0  0  0  0  0  0999 V2000
   37.5245   14.9085  -12.0747 N   0  0  0  0  0  0  0  0  0  0  0  0
   38.4768   15.6891  -11.3324 C   0  0  0  0  0  0  0  0  0  0  0  0
   36.4914   14.2207  -11.2840 C   0  0  0  0  0  0  0  0  0  0  0  0
   35.8333   13.2817  -11.7318 O   0  0  0  0  0  0  0  0  0  0  0  0
   36.2256   14.7404   -9.9478 C   0  0  0  0  0  0  0  0  0  0  0  0
   35.0391   15.3511   -9.7985 C   0  0  0  0  0  0  0  0  0  0  0  0
   34.6244   15.9424   -8.5126 C   0  0  0  0  0  0  0  0  0  0  0  0
   35.2063   17.1180   -8.0939 C   0  0  0  0  0  0  0  0  0  0  0  0
   34.9927   17.6464   -6.8422 N   0  0  0  0  0  0  0  0  0  0  0  0
   34.1818   16.9754   -6.0077 C   0  0  0  0  0  0  0  0  0  0  0  0
   33.5834   15.8011   -6.4221 C   0  0  0  0  0  0  0  0  0  0  0  0
   33.7950   15.2702   -7.6692 C   0  0  0  0  0  0  0  0  0  0  0  0
   32.6448   15.0000   -5.5689 C   0  0  0  0  0  0  0  0  0  0  0  0
   33.4531   14.5926   -4.4539 N   0  0  0  0  0  0  0  0  0  0  0  0
   33.5355   15.4756   -3.3637 C   0  0  0  0  0  0  0  0  0  0  0  0
   33.5942   16.9241   -3.5111 C   0  0  0  0  0  0  0  0  0  0  0  0
   34.0991   17.5398   -4.6806 N   0  0  0  0  0  0  0  0  0  0  0  0
   34.3695   14.2678   -4.8443 H   0  0  0  0  0  0  0  0  0  0  0  0
   34.4949   18.4994   -4.6014 H   0  0  0  0  0  0  0  0  0  0  0  0
   37.5193   14.6770  -13.4244 C   0  0  0  0  0  0  0  0  0  0  0  0
   36.5290   12.0784  -14.9436 C   0  0  0  0  0  0  0  0  0  0  0  0
   37.9198   12.7369  -15.1018 C   0  0  0  0  0  0  0  0  0  0  0  0
   38.2652   13.6932  -14.2042 C   0  0  0  0  0  0  0  0  0  0  0  0
   39.9655   13.9790  -14.6870 S   0  0  0  0  0  0  0  0  0  0  0  0
   40.0607   12.8831  -15.9836 C   0  0  0  0  0  0  0  0  0  0  0  0
   41.0566   12.5660  -16.9235 C   0  0  0  0  0  0  0  0  0  0  0  0
   40.8348   11.6590  -17.9278 C   0  0  0  0  0  0  0  0  0  0  0  0
   39.5748   11.0866  -17.9413 C   0  0  0  0  0  0  0  0  0  0  0  0
   38.6194   11.3837  -17.0507 C   0  0  0  0  0  0  0  0  0  0  0  0
   38.8227   12.3214  -16.0115 C   0  0  0  0  0  0  0  0  0  0  0  0
 21 22  1  0  0  0
 22 23  2  0  0  0
 23 20  1  0  0  0
 20  1  1  0  0  0
  1  2  1  0  0  0
  1  3  1  0  0  0
  3  4  2  0  0  0
  3  5  1  0  0  0
  5  6  2  0  0  0
  6  7  1  0  0  0
  7  8  2  0  0  0
  8  9  1  0  0  0
  9 10  2  0  0  0
 10 11  1  0  0  0
 11 12  2  0  0  0
 11 13  1  0  0  0
 13 14  1  0  0  0
 14 15  1  0  0  0
 15 16  1  0  0  0
 16 17  1  0  0  0
 23 24  1  0  0  0
 24 25  1  0  0  0
 25 26  2  0  0  0
 26 27  1  0  0  0
 27 28  2  0  0  0
 28 29  1  0  0  0
 29 30  2  0  0  0
 30 22  1  0  0  0
 12  7  1  0  0  0
 30 25  1  0  0  0
 17 10  1  0  0  0
 14 18  1  0  0  0
 17 19  1  0  0  0
M  END
> <minimizedAffinity>
-8.68781

> <CNNscore>
0.1718707532

> <CNNaffinity>
5.3095006943

> <CNN_VS>
0.9125478864

> <CNNaffinity_variance>
0.2155096829

$$$$
[H]/C(C(=O)N(C([H])([H])[H])C([H])([H])c1sc2c([H])c([H])c([H])c([H])c2c1C([H])([H])[H])=C(/[H])c1c([H])nc2c(c1[H])C([H])([H])N([H])C([H])([H])C([H])([H])N2[H]


 30 33  0  0  0  0  0  0  0  0999 V2000
   40.6003   13.1477  -15.3161 N   0  0  0  0  0  0  0  0  0  0  0  0
   40.1687   14.2540  -14.5054 C   0  0  0  0  0  0  0  0  0  0  0  0
   42.0537   13.0023  -15.4957 C   0  0  0  0  0  0  0  0  0  0  0  0
   42.5428   12.3275  -16.4016 O   0  0  0  0  0  0  0  0  0  0  0  0
   42.9103   13.6467  -14.5071 C   0  0  0  0  0  0  0  0  0  0  0  0
   44.1858   13.8250  -14.8867 C   0  0  0  0  0  0  0  0  0  0  0  0
   45.1826   14.4499  -13.9973 C   0  0  0  0  0  0  0  0  0  0  0  0
   45.9313   15.5073  -14.4635 C   0  0  0  0  0  0  0  0  0  0  0  0
   46.9851   16.0382  -13.7571 N   0  0  0  0  0  0  0  0  0  0  0  0
   47.2821   15.4909  -12.5670 C   0  0  0  0  0  0  0  0  0  0  0  0
   46.5297   14.4374  -12.0844 C   0  0  0  0  0  0  0  0  0  0  0  0
   45.4788   13.9042  -12.7867 C   0  0  0  0  0  0  0  0  0  0  0  0
   46.7720   13.7820  -10.7569 C   0  0  0  0  0  0  0  0  0  0  0  0
   48.0908   13.2270  -10.8806 N   0  0  0  0  0  0  0  0  0  0  0  0
   49.1725   14.0632  -10.5555 C   0  0  0  0  0  0  0  0  0  0  0  0
   49.2057   15.4857  -10.8697 C   0  0  0  0  0  0  0  0  0  0  0  0
   48.4664   16.0347  -11.9438 N   0  0  0  0  0  0  0  0  0  0  0  0
   48.1406   12.7660  -11.8201 H   0  0  0  0  0  0  0  0  0  0  0  0
   48.8095   16.9158  -12.3794 H   0  0  0  0  0  0  0  0  0  0  0  0
   39.8067   12.2631  -15.9965 C   0  0  0  0  0  0  0  0  0  0  0  0
   38.0018   10.7784  -18.1364 C   0  0  0  0  0  0  0  0  0  0  0  0
   37.4888   11.4622  -16.8471 C   0  0  0  0  0  0  0  0  0  0  0  0
   38.3571   12.2553  -16.1713 C   0  0  0  0  0  0  0  0  0  0  0  0
   37.2626   12.9307  -14.9257 S   0  0  0  0  0  0  0  0  0  0  0  0
   35.8301   12.1283  -15.3681 C   0  0  0  0  0  0  0  0  0  0  0  0
   34.5324   12.0785  -14.8304 C   0  0  0  0  0  0  0  0  0  0  0  0
   33.5604   11.2765  -15.3712 C   0  0  0  0  0  0  0  0  0  0  0  0
   33.9498   10.5343  -16.4724 C   0  0  0  0  0  0  0  0  0  0  0  0
   35.1843   10.5746  -16.9907 C   0  0  0  0  0  0  0  0  0  0  0  0
   36.2049   11.3880  -16.4452 C   0  0  0  0  0  0  0  0  0  0  0  0
 21 22  1  0  0  0
 22 23  2  0  0  0
 23 20  1  0  0  0
 20  1  1  0  0  0
  1  2  1  0  0  0
  1  3  1  0  0  0
  3  4  2  0  0  0
  3  5  1  0  0  0
  5  6  2  0  0  0
  6  7  1  0  0  0
  7  8  2  0  0  0
  8  9  1  0  0  0
  9 10  2  0  0  0
 10 11  1  0  0  0
 11 12  2  0  0  0
 11 13  1  0  0  0
 13 14  1  0  0  0
 14 15  1  0  0  0
 15 16  1  0  0  0
 16 17  1  0  0  0
 23 24  1  0  0  0
 24 25  1  0  0  0
 25 26  2  0  0  0
 26 27  1  0  0  0
 27 28  2  0  0  0
 28 29  1  0  0  0
 29 30  2  0  0  0
 30 22  1  0  0  0
 12  7  1  0  0  0
 30 25  1  0  0  0
 17 10  1  0  0  0
 14 18  1  0  0  0
 17 19  1  0  0  0
M  END
> <minimizedAffinity>
-7.84324

> <CNNscore>
0.1640796661

> <CNNaffinity>
5.9523305893

> <CNN_VS>
0.9766564369

> <CNNaffinity_variance>
0.2572889030

$$$$
[H]c1c([H])c([H])c(C([H])([H])N(C([H])([H])[H])C([H])([H])C([H])([H])OC(=O)C2=C(C([H])([H])[H])N=C(C([H])([H])[H])C([H])(C(=O)OC([H])([H])[H])C2([H])c2c([H])c([H])c([H])c([N+](=O)[O-])c2[H])c([H])c1[H]


 35 37  0  0  0  0  0  0  0  0999 V2000
   39.3838   16.1093   -7.2642 C   0  0  0  0  0  0  0  0  0  0  0  0
   38.6732   17.1594   -6.5273 C   0  0  0  0  0  0  0  0  0  0  0  0
   39.4200   17.7864   -5.3611 C   0  0  0  0  0  0  0  0  0  0  0  0
   37.5151   17.5824   -6.7736 N   0  0  0  0  0  0  0  0  0  0  0  0
   36.7569   17.0537   -7.8441 C   0  0  0  0  0  0  0  0  0  0  0  0
   35.3715   17.6087   -8.0459 C   0  0  0  0  0  0  0  0  0  0  0  0
   37.2711   16.1062   -8.5996 C   0  0  0  0  0  0  0  0  0  0  0  0
   38.6564   15.5719   -8.4060 C   0  0  0  0  0  0  0  0  0  0  0  0
   39.3879   15.7365   -9.6985 C   0  0  0  0  0  0  0  0  0  0  0  0
   40.5663   16.4218   -9.8078 C   0  0  0  0  0  0  0  0  0  0  0  0
   41.2275   16.5375  -11.0138 C   0  0  0  0  0  0  0  0  0  0  0  0
   40.6853   15.9438  -12.1486 C   0  0  0  0  0  0  0  0  0  0  0  0
   39.4918   15.2475  -12.0473 C   0  0  0  0  0  0  0  0  0  0  0  0
   38.8594   15.1539  -10.8214 C   0  0  0  0  0  0  0  0  0  0  0  0
   38.9582   14.6499  -13.2182 N   0  0  0  0  0  0  0  0  0  0  0  0
   38.2108   13.6674  -13.0912 O   0  0  0  0  0  0  0  0  0  0  0  0
   39.2302   15.1066  -14.4767 O   0  0  0  0  0  0  0  0  0  0  0  0
   39.7181   15.0491   -6.2378 C   0  0  0  0  0  0  0  0  0  0  0  0
   40.8776   14.7700   -5.9343 O   0  0  0  0  0  0  0  0  0  0  0  0
   38.5833   14.3020   -4.2175 C   0  0  0  0  0  0  0  0  0  0  0  0
   38.6668   14.3881   -5.6367 O   0  0  0  0  0  0  0  0  0  0  0  0
   36.4940   15.5579   -9.6998 C   0  0  0  0  0  0  0  0  0  0  0  0
   36.1228   14.3275   -9.5969 O   0  0  0  0  0  0  0  0  0  0  0  0
   36.0880   16.1765  -10.8592 O   0  0  0  0  0  0  0  0  0  0  0  0
   34.9059   15.6768  -11.5081 C   0  0  0  0  0  0  0  0  0  0  0  0
   35.2032   14.8740  -12.7101 C   0  0  0  0  0  0  0  0  0  0  0  0
   34.2182   14.0191  -13.2359 N   0  0  0  0  0  0  0  0  0  0  0  0
   32.8912   14.1037  -12.8198 C   0  0  0  0  0  0  0  0  0  0  0  0
   34.7268   12.6759  -13.2792 C   0  0  0  0  0  0  0  0  0  0  0  0
   34.9014   12.1317  -14.6398 C   0  0  0  0  0  0  0  0  0  0  0  0
   36.0776   12.2141  -15.3623 C   0  0  0  0  0  0  0  0  0  0  0  0
   36.1996   11.6921  -16.6320 C   0  0  0  0  0  0  0  0  0  0  0  0
   35.1097   11.0646  -17.2034 C   0  0  0  0  0  0  0  0  0  0  0  0
   33.9292   10.9726  -16.4992 C   0  0  0  0  0  0  0  0  0  0  0  0
   33.8338   11.4978  -15.2434 C   0  0  0  0  0  0  0  0  0  0  0  0
 20 21  1  0  0  0
 21 18  1  0  0  0
 18 19  2  0  0  0
 18  1  1  0  0  0
  1  2  1  0  0  0
  2  3  1  0  0  0
  2  4  2  0  0  0
  4  5  1  0  0  0
  5  6  1  0  0  0
  5  7  2  0  0  0
  7 22  1  0  0  0
 22 23  2  0  0  0
 22 24  1  0  0  0
 24 25  1  0  0  0
 25 26  1  0  0  0
 26 27  1  0  0  0
 27 28  1  0  0  0
 27 29  1  0  0  0
 29 30  1  0  0  0
 30 31  2  0  0  0
 31 32  1  0  0  0
 32 33  2  0  0  0
 33 34  1  0  0  0
 34 35  2  0  0  0
  7  8  1  0  0  0
  8  9  1  0  0  0
  9 10  2  0  0  0
 10 11  1  0  0  0
 11 12  2  0  0  0
 12 13  1  0  0  0
 13 15  1  0  0  0
 15 16  2  0  0  0
 15 17  1  0  0  0
 13 14  2  0  0  0
  8  1  1  0  0  0
 14  9  1  0  0  0
 35 30  1  0  0  0
M  CHG 1  15   1
M  CHG 1  17  -1
M  END
> <minimizedAffinity>
-6.84535

> <CNNscore>
0.2311955392

> <CNNaffinity>
6.0248126984

> <CNN_VS>
1.3929097652

> <CNNaffinity_variance>
0.1086549535

$$$$
[H]c1c([H])c([H])c(C([H])([H])N(C([H])([H])[H])C([H])([H])C([H])([H])OC(=O)C2=C(C([H])([H])[H])N=C(C([H])([H])[H])C([H])(C(=O)OC([H])([H])[H])C2([H])c2c([H])c([H])c([H])c([N+](=O)[O-])c2[H])c([H])c1[H]


 35 37  0  0  0  0  0  0  0  0999 V2000
   36.7952   15.3467   -9.8096 C   0  0  0  0  0  0  0  0  0  0  0  0
   35.6110   16.1974   -9.6520 C   0  0  0  0  0  0  0  0  0  0  0  0
   35.6641   17.2243   -8.5324 C   0  0  0  0  0  0  0  0  0  0  0  0
   34.5691   16.1533  -10.3543 N   0  0  0  0  0  0  0  0  0  0  0  0
   34.4438   15.2293  -11.4177 C   0  0  0  0  0  0  0  0  0  0  0  0
   33.1492   15.2371  -12.1870 C   0  0  0  0  0  0  0  0  0  0  0  0
   35.4344   14.4034  -11.6818 C   0  0  0  0  0  0  0  0  0  0  0  0
   36.7267   14.4133  -10.9257 C   0  0  0  0  0  0  0  0  0  0  0  0
   37.8281   14.6026  -11.9177 C   0  0  0  0  0  0  0  0  0  0  0  0
   37.7960   14.0753  -13.1791 C   0  0  0  0  0  0  0  0  0  0  0  0
   38.8212   14.2866  -14.0786 C   0  0  0  0  0  0  0  0  0  0  0  0
   39.9162   15.0544  -13.6967 C   0  0  0  0  0  0  0  0  0  0  0  0
   39.9573   15.5926  -12.4207 C   0  0  0  0  0  0  0  0  0  0  0  0
   38.9107   15.3583  -11.5482 C   0  0  0  0  0  0  0  0  0  0  0  0
   41.0842   16.3727  -12.0538 N   0  0  0  0  0  0  0  0  0  0  0  0
   41.3697   16.4673  -10.8499 O   0  0  0  0  0  0  0  0  0  0  0  0
   41.8670   17.0234  -12.9650 O   0  0  0  0  0  0  0  0  0  0  0  0
   36.9725   14.6484   -8.4791 C   0  0  0  0  0  0  0  0  0  0  0  0
   36.0587   14.0301   -7.9340 O   0  0  0  0  0  0  0  0  0  0  0  0
   38.9615   15.9342   -7.9150 C   0  0  0  0  0  0  0  0  0  0  0  0
   38.2123   14.7235   -7.8786 O   0  0  0  0  0  0  0  0  0  0  0  0
   35.3088   13.4499  -12.7727 C   0  0  0  0  0  0  0  0  0  0  0  0
   35.3692   12.1992  -12.4654 O   0  0  0  0  0  0  0  0  0  0  0  0
   35.1299   13.6952  -14.1141 O   0  0  0  0  0  0  0  0  0  0  0  0
   34.7200   12.5978  -14.9483 C   0  0  0  0  0  0  0  0  0  0  0  0
   35.7951   12.1157  -15.8368 C   0  0  0  0  0  0  0  0  0  0  0  0
   35.4710   11.3266  -16.9549 N   0  0  0  0  0  0  0  0  0  0  0  0
   34.1729   10.8645  -17.1612 C   0  0  0  0  0  0  0  0  0  0  0  0
   36.4797   10.3193  -17.1357 C   0  0  0  0  0  0  0  0  0  0  0  0
   37.7815   10.8343  -17.6021 C   0  0  0  0  0  0  0  0  0  0  0  0
   38.2415   10.7157  -18.9009 C   0  0  0  0  0  0  0  0  0  0  0  0
   39.4653   11.2113  -19.2964 C   0  0  0  0  0  0  0  0  0  0  0  0
   40.2604   11.8487  -18.3640 C   0  0  0  0  0  0  0  0  0  0  0  0
   39.8194   11.9767  -17.0651 C   0  0  0  0  0  0  0  0  0  0  0  0
   38.6037   11.4772  -16.6984 C   0  0  0  0  0  0  0  0  0  0  0  0
 20 21  1  0  0  0
 21 18  1  0  0  0
 18 19  2  0  0  0
 18  1  1  0  0  0
  1  2  1  0  0  0
  2  3  1  0  0  0
  2  4  2  0  0  0
  4  5  1  0  0  0
  5  6  1  0  0  0
  5  7  2  0  0  0
  7 22  1  0  0  0
 22 23  2  0  0  0
 22 24  1  0  0  0
 24 25  1  0  0  0
 25 26  1  0  0  0
 26 27  1  0  0  0
 27 28  1  0  0  0
 27 29  1  0  0  0
 29 30  1  0  0  0
 30 31  2  0  0  0
 31 32  1  0  0  0
 32 33  2  0  0  0
 33 34  1  0  0  0
 34 35  2  0  0  0
  7  8  1  0  0  0
  8  9  1  0  0  0
  9 10  2  0  0  0
 10 11  1  0  0  0
 11 12  2  0  0  0
 12 13  1  0  0  0
 13 15  1  0  0  0
 15 16  2  0  0  0
 15 17  1  0  0  0
 13 14  2  0  0  0
  8  1  1  0  0  0
 14  9  1  0  0  0
 35 30  1  0  0  0
M  CHG 1  15   1
M  CHG 1  17  -1
M  END
> <minimizedAffinity>
-8.43346

> <CNNscore>
0.2176618725

> <CNNaffinity>
6.1438584328

> <CNN_VS>
1.3372837305

> <CNNaffinity_variance>
0.7373865247

$$$$
[H]c1c([H])c([H])c(C([H])([H])N(C([H])([H])[H])C([H])([H])C([H])([H])OC(=O)C2=C(C([H])([H])[H])N=C(C([H])([H])[H])C([H])(C(=O)OC([H])([H])[H])C2([H])c2c([H])c([H])c([H])c([N+](=O)[O-])c2[H])c([H])c1[H]


 35 37  0  0  0  0  0  0  0  0999 V2000
   38.2509   16.4228   -5.9475 C   0  0  0  0  0  0  0  0  0  0  0  0
   37.4591   15.4848   -5.1450 C   0  0  0  0  0  0  0  0  0  0  0  0
   38.0048   15.1515   -3.7660 C   0  0  0  0  0  0  0  0  0  0  0  0
   36.3808   14.9400   -5.4931 N   0  0  0  0  0  0  0  0  0  0  0  0
   35.8055   15.2018   -6.7583 C   0  0  0  0  0  0  0  0  0  0  0  0
   34.5244   14.4844   -7.0933 C   0  0  0  0  0  0  0  0  0  0  0  0
   36.4042   16.0324   -7.5858 C   0  0  0  0  0  0  0  0  0  0  0  0
   37.6676   16.7575   -7.2395 C   0  0  0  0  0  0  0  0  0  0  0  0
   37.4083   18.2197   -7.4056 C   0  0  0  0  0  0  0  0  0  0  0  0
   37.9270   18.9583   -8.4331 C   0  0  0  0  0  0  0  0  0  0  0  0
   37.6507   20.3036   -8.5693 C   0  0  0  0  0  0  0  0  0  0  0  0
   36.8247   20.9277   -7.6405 C   0  0  0  0  0  0  0  0  0  0  0  0
   36.2948   20.1873   -6.5962 C   0  0  0  0  0  0  0  0  0  0  0  0
   36.5950   18.8416   -6.4938 C   0  0  0  0  0  0  0  0  0  0  0  0
   35.4545   20.8453   -5.6614 N   0  0  0  0  0  0  0  0  0  0  0  0
   34.2254   20.7546   -5.8067 O   0  0  0  0  0  0  0  0  0  0  0  0
   35.9372   21.5731   -4.6107 O   0  0  0  0  0  0  0  0  0  0  0  0
   39.6202   15.7917   -6.0749 C   0  0  0  0  0  0  0  0  0  0  0  0
   39.7949   14.7056   -6.6265 O   0  0  0  0  0  0  0  0  0  0  0  0
   41.9031   16.6116   -6.2837 C   0  0  0  0  0  0  0  0  0  0  0  0
   40.6923   16.4797   -5.5453 O   0  0  0  0  0  0  0  0  0  0  0  0
   35.8175   16.3024   -8.8887 C   0  0  0  0  0  0  0  0  0  0  0  0
   34.6054   16.7417   -8.9041 O   0  0  0  0  0  0  0  0  0  0  0  0
   36.3819   16.1548  -10.1343 O   0  0  0  0  0  0  0  0  0  0  0  0
   35.5251   15.7484  -11.2154 C   0  0  0  0  0  0  0  0  0  0  0  0
   35.7088   14.3347  -11.5969 C   0  0  0  0  0  0  0  0  0  0  0  0
   35.0874   13.8420  -12.7583 N   0  0  0  0  0  0  0  0  0  0  0  0
   33.7392   14.0833  -13.0142 C   0  0  0  0  0  0  0  0  0  0  0  0
   35.4805   12.4756  -12.9660 C   0  0  0  0  0  0  0  0  0  0  0  0
   36.3703   12.2646  -14.1242 C   0  0  0  0  0  0  0  0  0  0  0  0
   37.7512   12.2618  -14.0502 C   0  0  0  0  0  0  0  0  0  0  0  0
   38.5472   12.0607  -15.1572 C   0  0  0  0  0  0  0  0  0  0  0  0
   37.9457   11.8545  -16.3835 C   0  0  0  0  0  0  0  0  0  0  0  0
   36.5711   11.8537  -16.4773 C   0  0  0  0  0  0  0  0  0  0  0  0
   35.8051   12.0554  -15.3663 C   0  0  0  0  0  0  0  0  0  0  0  0
 20 21  1  0  0  0
 21 18  1  0  0  0
 18 19  2  0  0  0
 18  1  1  0  0  0
  1  2  1  0  0  0
  2  3  1  0  0  0
  2  4  2  0  0  0
  4  5  1  0  0  0
  5  6  1  0  0  0
  5  7  2  0  0  0
  7 22  1  0  0  0
 22 23  2  0  0  0
 22 24  1  0  0  0
 24 25  1  0  0  0
 25 26  1  0  0  0
 26 27  1  0  0  0
 27 28  1  0  0  0
 27 29  1  0  0  0
 29 30  1  0  0  0
 30 31  2  0  0  0
 31 32  1  0  0  0
 32 33  2  0  0  0
 33 34  1  0  0  0
 34 35  2  0  0  0
  7  8  1  0  0  0
  8  9  1  0  0  0
  9 10  2  0  0  0
 10 11  1  0  0  0
 11 12  2  0  0  0
 12 13  1  0  0  0
 13 15  1  0  0  0
 15 16  2  0  0  0
 15 17  1  0  0  0
 13 14  2  0  0  0
  8  1  1  0  0  0
 14  9  1  0  0  0
 35 30  1  0  0  0
M  CHG 1  15   1
M  CHG 1  17  -1
M  END
> <minimizedAffinity>
-6.64684

> <CNNscore>
0.1725803465

> <CNNaffinity>
5.4093894958

> <CNN_VS>
0.9335542917

> <CNNaffinity_variance>
0.3152523935

$$$$
[H]c1c([H])c([H])c(C([H])([H])N(C([H])([H])[H])C([H])([H])C([H])([H])OC(=O)C2=C(C([H])([H])[H])N=C(C([H])([H])[H])C([H])(C(=O)OC([H])([H])[H])C2([H])c2c([H])c([H])c([H])c([N+](=O)[O-])c2[H])c([H])c1[H]


 35 37  0  0  0  0  0  0  0  0999 V2000
   38.1590   15.9741   -8.1534 C   0  0  0  0  0  0  0  0  0  0  0  0
   37.0304   16.7798   -7.6761 C   0  0  0  0  0  0  0  0  0  0  0  0
   37.2681   17.5886   -6.4111 C   0  0  0  0  0  0  0  0  0  0  0  0
   35.8978   16.8604   -8.2160 N   0  0  0  0  0  0  0  0  0  0  0  0
   35.5993   16.1427   -9.3974 C   0  0  0  0  0  0  0  0  0  0  0  0
   34.2082   16.2859   -9.9566 C   0  0  0  0  0  0  0  0  0  0  0  0
   36.5216   15.3801   -9.9459 C   0  0  0  0  0  0  0  0  0  0  0  0
   37.9089   15.2567   -9.3961 C   0  0  0  0  0  0  0  0  0  0  0  0
   38.8609   15.6240  -10.4879 C   0  0  0  0  0  0  0  0  0  0  0  0
   39.7774   16.6323  -10.3719 C   0  0  0  0  0  0  0  0  0  0  0  0
   40.6569   16.9324  -11.3923 C   0  0  0  0  0  0  0  0  0  0  0  0
   40.6134   16.1933  -12.5697 C   0  0  0  0  0  0  0  0  0  0  0  0
   39.6881   15.1698  -12.6960 C   0  0  0  0  0  0  0  0  0  0  0  0
   38.8238   14.8997  -11.6513 C   0  0  0  0  0  0  0  0  0  0  0  0
   39.6627   14.4293  -13.9060 N   0  0  0  0  0  0  0  0  0  0  0  0
   39.3495   13.2295  -13.8570 O   0  0  0  0  0  0  0  0  0  0  0  0
   39.9673   14.9770  -15.1199 O   0  0  0  0  0  0  0  0  0  0  0  0
   38.5086   15.0481   -7.0090 C   0  0  0  0  0  0  0  0  0  0  0  0
   39.6689   14.8650   -6.6422 O   0  0  0  0  0  0  0  0  0  0  0  0
   37.2643   13.0033   -6.5638 C   0  0  0  0  0  0  0  0  0  0  0  0
   37.4706   14.3995   -6.3723 O   0  0  0  0  0  0  0  0  0  0  0  0
   36.2182   14.6382  -11.1593 C   0  0  0  0  0  0  0  0  0  0  0  0
   36.1279   13.3565  -11.0533 O   0  0  0  0  0  0  0  0  0  0  0  0
   36.0078   15.1173  -12.4313 O   0  0  0  0  0  0  0  0  0  0  0  0
   35.2211   14.3152  -13.3290 C   0  0  0  0  0  0  0  0  0  0  0  0
   35.9528   13.9319  -14.5518 C   0  0  0  0  0  0  0  0  0  0  0  0
   35.5475   12.7973  -15.2772 N   0  0  0  0  0  0  0  0  0  0  0  0
   34.2293   12.3478  -15.2384 C   0  0  0  0  0  0  0  0  0  0  0  0
   36.5204   11.7529  -15.1110 C   0  0  0  0  0  0  0  0  0  0  0  0
   37.3466   11.4912  -16.3054 C   0  0  0  0  0  0  0  0  0  0  0  0
   38.6790   11.8439  -16.4184 C   0  0  0  0  0  0  0  0  0  0  0  0
   39.4164   11.5809  -17.5527 C   0  0  0  0  0  0  0  0  0  0  0  0
   38.8042   10.9429  -18.6139 C   0  0  0  0  0  0  0  0  0  0  0  0
   37.4774   10.5836  -18.5202 C   0  0  0  0  0  0  0  0  0  0  0  0
   36.7690   10.8554  -17.3861 C   0  0  0  0  0  0  0  0  0  0  0  0
 20 21  1  0  0  0
 21 18  1  0  0  0
 18 19  2  0  0  0
 18  1  1  0  0  0
  1  2  1  0  0  0
  2  3  1  0  0  0
  2  4  2  0  0  0
  4  5  1  0  0  0
  5  6  1  0  0  0
  5  7  2  0  0  0
  7 22  1  0  0  0
 22 23  2  0  0  0
 22 24  1  0  0  0
 24 25  1  0  0  0
 25 26  1  0  0  0
 26 27  1  0  0  0
 27 28  1  0  0  0
 27 29  1  0  0  0
 29 30  1  0  0  0
 30 31  2  0  0  0
 31 32  1  0  0  0
 32 33  2  0  0  0
 33 34  1  0  0  0
 34 35  2  0  0  0
  7  8  1  0  0  0
  8  9  1  0  0  0
  9 10  2  0  0  0
 10 11  1  0  0  0
 11 12  2  0  0  0
 12 13  1  0  0  0
 13 15  1  0  0  0
 15 16  2  0  0  0
 15 17  1  0  0  0
 13 14  2  0  0  0
  8  1  1  0  0  0
 14  9  1  0  0  0
 35 30  1  0  0  0
M  CHG 1  15   1
M  CHG 1  17  -1
M  END
> <minimizedAffinity>
-6.42124

> <CNNscore>
0.1656423658

> <CNNaffinity>
6.0681009293

> <CNN_VS>
1.0051345825

> <CNNaffinity_variance>
0.1792740524

$$$$
[H]c1c([H])c([H])c(C([H])([H])N(C([H])([H])[H])C([H])([H])C([H])([H])OC(=O)C2=C(C([H])([H])[H])N=C(C([H])([H])[H])C([H])(C(=O)OC([H])([H])[H])C2([H])c2c([H])c([H])c([H])c([N+](=O)[O-])c2[H])c([H])c1[H]


 35 37  0  0  0  0  0  0  0  0999 V2000
   38.1346   15.2011   -7.2123 C   0  0  0  0  0  0  0  0  0  0  0  0
   37.5405   16.0459   -6.1711 C   0  0  0  0  0  0  0  0  0  0  0  0
   37.5655   15.4889   -4.7569 C   0  0  0  0  0  0  0  0  0  0  0  0
   37.0201   17.1774   -6.3434 N   0  0  0  0  0  0  0  0  0  0  0  0
   36.9620   17.7664   -7.6278 C   0  0  0  0  0  0  0  0  0  0  0  0
   36.2991   19.1142   -7.7373 C   0  0  0  0  0  0  0  0  0  0  0  0
   37.4641   17.1240   -8.6614 C   0  0  0  0  0  0  0  0  0  0  0  0
   38.1392   15.7927   -8.5433 C   0  0  0  0  0  0  0  0  0  0  0  0
   39.5109   15.9299   -9.1201 C   0  0  0  0  0  0  0  0  0  0  0  0
   40.6433   15.9633   -8.3542 C   0  0  0  0  0  0  0  0  0  0  0  0
   41.8975   16.0700   -8.9203 C   0  0  0  0  0  0  0  0  0  0  0  0
   42.0171   16.1457  -10.3039 C   0  0  0  0  0  0  0  0  0  0  0  0
   40.8752   16.1126  -11.0878 C   0  0  0  0  0  0  0  0  0  0  0  0
   39.6364   16.0050  -10.4833 C   0  0  0  0  0  0  0  0  0  0  0  0
   41.0220   16.1908  -12.4968 N   0  0  0  0  0  0  0  0  0  0  0  0
   41.9606   16.8602  -12.9561 O   0  0  0  0  0  0  0  0  0  0  0  0
   40.1776   15.5636  -13.3687 O   0  0  0  0  0  0  0  0  0  0  0  0
   37.3710   13.8959   -7.1599 C   0  0  0  0  0  0  0  0  0  0  0  0
   37.7833   12.9173   -6.5380 O   0  0  0  0  0  0  0  0  0  0  0  0
   34.9700   14.2917   -7.2380 C   0  0  0  0  0  0  0  0  0  0  0  0
   36.1738   13.8286   -7.8421 O   0  0  0  0  0  0  0  0  0  0  0  0
   37.4043   17.7248   -9.9844 C   0  0  0  0  0  0  0  0  0  0  0  0
   38.0788   18.8086  -10.1650 O   0  0  0  0  0  0  0  0  0  0  0  0
   36.7177   17.2936  -11.0954 O   0  0  0  0  0  0  0  0  0  0  0  0
   35.7511   16.2431  -10.9213 C   0  0  0  0  0  0  0  0  0  0  0  0
   36.1766   14.9629  -11.5193 C   0  0  0  0  0  0  0  0  0  0  0  0
   35.3593   14.3383  -12.4782 N   0  0  0  0  0  0  0  0  0  0  0  0
   33.9903   14.5910  -12.5357 C   0  0  0  0  0  0  0  0  0  0  0  0
   35.6939   12.9428  -12.5535 C   0  0  0  0  0  0  0  0  0  0  0  0
   36.4060   12.5503  -13.7849 C   0  0  0  0  0  0  0  0  0  0  0  0
   37.7766   12.3858  -13.8685 C   0  0  0  0  0  0  0  0  0  0  0  0
   38.4036   12.0177  -15.0394 C   0  0  0  0  0  0  0  0  0  0  0  0
   37.6373   11.8055  -16.1689 C   0  0  0  0  0  0  0  0  0  0  0  0
   36.2703   11.9644  -16.1054 C   0  0  0  0  0  0  0  0  0  0  0  0
   35.6733   12.3297  -14.9340 C   0  0  0  0  0  0  0  0  0  0  0  0
 20 21  1  0  0  0
 21 18  1  0  0  0
 18 19  2  0  0  0
 18  1  1  0  0  0
  1  2  1  0  0  0
  2  3  1  0  0  0
  2  4  2  0  0  0
  4  5  1  0  0  0
  5  6  1  0  0  0
  5  7  2  0  0  0
  7 22  1  0  0  0
 22 23  2  0  0  0
 22 24  1  0  0  0
 24 25  1  0  0  0
 25 26  1  0  0  0
 26 27  1  0  0  0
 27 28  1  0  0  0
 27 29  1  0  0  0
 29 30  1  0  0  0
 30 31  2  0  0  0
 31 32  1  0  0  0
 32 33  2  0  0  0
 33 34  1  0  0  0
 34 35  2  0  0  0
  7  8  1  0  0  0
  8  9  1  0  0  0
  9 10  2  0  0  0
 10 11  1  0  0  0
 11 12  2  0  0  0
 12 13  1  0  0  0
 13 15  1  0  0  0
 15 16  2  0  0  0
 15 17  1  0  0  0
 13 14  2  0  0  0
  8  1  1  0  0  0
 14  9  1  0  0  0
 35 30  1  0  0  0
M  CHG 1  15   1
M  CHG 1  17  -1
M  END
> <minimizedAffinity>
-8.15934

> <CNNscore>
0.1361114681

> <CNNaffinity>
5.3503990173

> <CNN_VS>
0.7282506824

> <CNNaffinity_variance>
0.9629819989

$$$$
[H]c1c([H])c([H])c(C([H])([H])N(C([H])([H])[H])C([H])([H])C([H])([H])OC(=O)C2=C(C([H])([H])[H])N=C(C([H])([H])[H])C([H])(C(=O)OC([H])([H])[H])C2([H])c2c([H])c([H])c([H])c([N+](=O)[O-])c2[H])c([H])c1[H]


 35 37  0  0  0  0  0  0  0  0999 V2000
   38.1931   16.0422  -10.5215 C   0  0  0  0  0  0  0  0  0  0  0  0
   38.7062   15.8125   -9.1670 C   0  0  0  0  0  0  0  0  0  0  0  0
   37.6651   15.6493   -8.0714 C   0  0  0  0  0  0  0  0  0  0  0  0
   39.9171   15.7380   -8.8369 N   0  0  0  0  0  0  0  0  0  0  0  0
   40.9457   15.8746   -9.7978 C   0  0  0  0  0  0  0  0  0  0  0  0
   42.3655   15.7931   -9.3023 C   0  0  0  0  0  0  0  0  0  0  0  0
   40.6334   16.0788  -11.0603 C   0  0  0  0  0  0  0  0  0  0  0  0
   39.2198   16.1397  -11.5501 C   0  0  0  0  0  0  0  0  0  0  0  0
   39.0711   15.1146  -12.6271 C   0  0  0  0  0  0  0  0  0  0  0  0
   39.9738   14.9622  -13.6430 C   0  0  0  0  0  0  0  0  0  0  0  0
   39.8175   13.9909  -14.6110 C   0  0  0  0  0  0  0  0  0  0  0  0
   38.7159   13.1437  -14.5555 C   0  0  0  0  0  0  0  0  0  0  0  0
   37.7962   13.2908  -13.5298 C   0  0  0  0  0  0  0  0  0  0  0  0
   37.9876   14.2759  -12.5788 C   0  0  0  0  0  0  0  0  0  0  0  0
   36.6807   12.4148  -13.4935 N   0  0  0  0  0  0  0  0  0  0  0  0
   35.9852   12.3024  -14.5152 O   0  0  0  0  0  0  0  0  0  0  0  0
   36.3385   11.6914  -12.3863 O   0  0  0  0  0  0  0  0  0  0  0  0
   37.3455   17.2920  -10.4272 C   0  0  0  0  0  0  0  0  0  0  0  0
   36.1181   17.2620  -10.5117 O   0  0  0  0  0  0  0  0  0  0  0  0
   37.7082   19.3038   -9.1049 C   0  0  0  0  0  0  0  0  0  0  0  0
   37.9974   18.4933  -10.2398 O   0  0  0  0  0  0  0  0  0  0  0  0
   41.6879   16.2224  -12.0514 C   0  0  0  0  0  0  0  0  0  0  0  0
   41.6305   17.2559  -12.8202 O   0  0  0  0  0  0  0  0  0  0  0  0
   42.7619   15.3974  -12.2915 O   0  0  0  0  0  0  0  0  0  0  0  0
   44.0214   16.0120  -12.6140 C   0  0  0  0  0  0  0  0  0  0  0  0
   45.1474   15.0581  -12.6067 C   0  0  0  0  0  0  0  0  0  0  0  0
   46.0305   15.0172  -13.7004 N   0  0  0  0  0  0  0  0  0  0  0  0
   45.9094   15.9128  -14.7608 C   0  0  0  0  0  0  0  0  0  0  0  0
   46.2151   13.6532  -14.1130 C   0  0  0  0  0  0  0  0  0  0  0  0
   45.1846   13.1505  -15.0420 C   0  0  0  0  0  0  0  0  0  0  0  0
   43.8237   13.2813  -14.8341 C   0  0  0  0  0  0  0  0  0  0  0  0
   42.8927   12.7972  -15.7277 C   0  0  0  0  0  0  0  0  0  0  0  0
   43.3334   12.1592  -16.8709 C   0  0  0  0  0  0  0  0  0  0  0  0
   44.6854   12.0193  -17.0956 C   0  0  0  0  0  0  0  0  0  0  0  0
   45.5872   12.5072  -16.1953 C   0  0  0  0  0  0  0  0  0  0  0  0
 20 21  1  0  0  0
 21 18  1  0  0  0
 18 19  2  0  0  0
 18  1  1  0  0  0
  1  2  1  0  0  0
  2  3  1  0  0  0
  2  4  2  0  0  0
  4  5  1  0  0  0
  5  6  1  0  0  0
  5  7  2  0  0  0
  7 22  1  0  0  0
 22 23  2  0  0  0
 22 24  1  0  0  0
 24 25  1  0  0  0
 25 26  1  0  0  0
 26 27  1  0  0  0
 27 28  1  0  0  0
 27 29  1  0  0  0
 29 30  1  0  0  0
 30 31  2  0  0  0
 31 32  1  0  0  0
 32 33  2  0  0  0
 33 34  1  0  0  0
 34 35  2  0  0  0
  7  8  1  0  0  0
  8  9  1  0  0  0
  9 10  2  0  0  0
 10 11  1  0  0  0
 11 12  2  0  0  0
 12 13  1  0  0  0
 13 15  1  0  0  0
 15 16  2  0  0  0
 15 17  1  0  0  0
 13 14  2  0  0  0
  8  1  1  0  0  0
 14  9  1  0  0  0
 35 30  1  0  0  0
M  CHG 1  15   1
M  CHG 1  17  -1
M  END
> <minimizedAffinity>
-6.91634

> <CNNscore>
0.1108632833

> <CNNaffinity>
5.6125745773

> <CNN_VS>
0.6222284436

> <CNNaffinity_variance>
0.6057734489

$$$$
[H]c1c([H])c([H])c(C([H])([H])N(C([H])([H])[H])C([H])([H])C([H])([H])OC(=O)C2=C(C([H])([H])[H])N=C(C([H])([H])[H])C([H])(C(=O)OC([H])([H])[H])C2([H])c2c([H])c([H])c([H])c([N+](=O)[O-])c2[H])c([H])c1[H]


 35 37  0  0  0  0  0  0  0  0999 V2000
   34.8111   15.3549   -5.8610 C   0  0  0  0  0  0  0  0  0  0  0  0
   34.1920   14.7798   -7.0597 C   0  0  0  0  0  0  0  0  0  0  0  0
   32.7507   14.3183   -6.9173 C   0  0  0  0  0  0  0  0  0  0  0  0
   34.7418   14.6383   -8.1815 N   0  0  0  0  0  0  0  0  0  0  0  0
   36.0786   15.0469   -8.3962 C   0  0  0  0  0  0  0  0  0  0  0  0
   36.6570   14.8155   -9.7673 C   0  0  0  0  0  0  0  0  0  0  0  0
   36.7599   15.5885   -7.4085 C   0  0  0  0  0  0  0  0  0  0  0  0
   36.1733   15.8336   -6.0528 C   0  0  0  0  0  0  0  0  0  0  0  0
   36.3328   17.2880   -5.7487 C   0  0  0  0  0  0  0  0  0  0  0  0
   37.2237   17.7651   -4.8274 C   0  0  0  0  0  0  0  0  0  0  0  0
   37.3609   19.1169   -4.5852 C   0  0  0  0  0  0  0  0  0  0  0  0
   36.5754   20.0199   -5.2938 C   0  0  0  0  0  0  0  0  0  0  0  0
   35.6702   19.5455   -6.2293 C   0  0  0  0  0  0  0  0  0  0  0  0
   35.5619   18.1839   -6.4434 C   0  0  0  0  0  0  0  0  0  0  0  0
   34.8801   20.4854   -6.9401 N   0  0  0  0  0  0  0  0  0  0  0  0
   33.6478   20.4469   -6.7992 O   0  0  0  0  0  0  0  0  0  0  0  0
   35.4144   21.4288   -7.7714 O   0  0  0  0  0  0  0  0  0  0  0  0
   34.7178   14.2794   -4.8009 C   0  0  0  0  0  0  0  0  0  0  0  0
   35.3042   13.2023   -4.9035 O   0  0  0  0  0  0  0  0  0  0  0  0
   33.5807   15.8798   -3.3610 C   0  0  0  0  0  0  0  0  0  0  0  0
   33.9416   14.5421   -3.6911 O   0  0  0  0  0  0  0  0  0  0  0  0
   38.1356   16.0077   -7.6241 C   0  0  0  0  0  0  0  0  0  0  0  0
   38.3161   17.1261   -8.2395 O   0  0  0  0  0  0  0  0  0  0  0  0
   39.2975   15.3696   -7.2572 O   0  0  0  0  0  0  0  0  0  0  0  0
   40.2037   16.0722   -6.3892 C   0  0  0  0  0  0  0  0  0  0  0  0
   41.6072   15.6473   -6.5548 C   0  0  0  0  0  0  0  0  0  0  0  0
   42.0214   15.0761   -7.7713 N   0  0  0  0  0  0  0  0  0  0  0  0
   42.6521   13.8343   -7.8087 C   0  0  0  0  0  0  0  0  0  0  0  0
   42.6683   16.0782   -8.5726 C   0  0  0  0  0  0  0  0  0  0  0  0
   42.2199   16.1209   -9.9778 C   0  0  0  0  0  0  0  0  0  0  0  0
   43.0753   16.1212  -11.0645 C   0  0  0  0  0  0  0  0  0  0  0  0
   42.6155   16.1617  -12.3631 C   0  0  0  0  0  0  0  0  0  0  0  0
   41.2532   16.2034  -12.5880 C   0  0  0  0  0  0  0  0  0  0  0  0
   40.3851   16.2038  -11.5182 C   0  0  0  0  0  0  0  0  0  0  0  0
   40.8655   16.1634  -10.2417 C   0  0  0  0  0  0  0  0  0  0  0  0
 20 21  1  0  0  0
 21 18  1  0  0  0
 18 19  2  0  0  0
 18  1  1  0  0  0
  1  2  1  0  0  0
  2  3  1  0  0  0
  2  4  2  0  0  0
  4  5  1  0  0  0
  5  6  1  0  0  0
  5  7  2  0  0  0
  7 22  1  0  0  0
 22 23  2  0  0  0
 22 24  1  0  0  0
 24 25  1  0  0  0
 25 26  1  0  0  0
 26 27  1  0  0  0
 27 28  1  0  0  0
 27 29  1  0  0  0
 29 30  1  0  0  0
 30 31  2  0  0  0
 31 32  1  0  0  0
 32 33  2  0  0  0
 33 34  1  0  0  0
 34 35  2  0  0  0
  7  8  1  0  0  0
  8  9  1  0  0  0
  9 10  2  0  0  0
 10 11  1  0  0  0
 11 12  2  0  0  0
 12 13  1  0  0  0
 13 15  1  0  0  0
 15 16  2  0  0  0
 15 17  1  0  0  0
 13 14  2  0  0  0
  8  1  1  0  0  0
 14  9  1  0  0  0
 35 30  1  0  0  0
M  CHG 1  15   1
M  CHG 1  17  -1
M  END
> <minimizedAffinity>
-5.22479

> <CNNscore>
0.1104888618

> <CNNaffinity>
5.0102357864

> <CNN_VS>
0.5535752773

> <CNNaffinity_variance>
0.4703379571

$$$$
[H]c1c([H])c([H])c(C([H])([H])N(C([H])([H])[H])C([H])([H])C([H])([H])OC(=O)C2=C(C([H])([H])[H])N=C(C([H])([H])[H])C([H])(C(=O)OC([H])([H])[H])C2([H])c2c([H])c([H])c([H])c([N+](=O)[O-])c2[H])c([H])c1[H]


 35 37  0  0  0  0  0  0  0  0999 V2000
   39.4215   15.6984   -9.0698 C   0  0  0  0  0  0  0  0  0  0  0  0
   38.1981   15.1320   -8.4925 C   0  0  0  0  0  0  0  0  0  0  0  0
   37.0941   14.7736   -9.4740 C   0  0  0  0  0  0  0  0  0  0  0  0
   37.9857   14.9182   -7.2719 N   0  0  0  0  0  0  0  0  0  0  0  0
   38.9644   15.2202   -6.2966 C   0  0  0  0  0  0  0  0  0  0  0  0
   38.6088   14.9498   -4.8584 C   0  0  0  0  0  0  0  0  0  0  0  0
   40.1194   15.7296   -6.6701 C   0  0  0  0  0  0  0  0  0  0  0  0
   40.4746   15.9783   -8.1032 C   0  0  0  0  0  0  0  0  0  0  0  0
   41.7434   15.2421   -8.3877 C   0  0  0  0  0  0  0  0  0  0  0  0
   41.8730   13.8895   -8.2328 C   0  0  0  0  0  0  0  0  0  0  0  0
   43.0537   13.2370   -8.5244 C   0  0  0  0  0  0  0  0  0  0  0  0
   44.1414   13.9696   -8.9877 C   0  0  0  0  0  0  0  0  0  0  0  0
   44.0192   15.3404   -9.1477 C   0  0  0  0  0  0  0  0  0  0  0  0
   42.8198   15.9577   -8.8447 C   0  0  0  0  0  0  0  0  0  0  0  0
   45.1420   16.0666   -9.6220 N   0  0  0  0  0  0  0  0  0  0  0  0
   46.2760   15.6266   -9.3766 O   0  0  0  0  0  0  0  0  0  0  0  0
   45.0305   17.2265  -10.3352 O   0  0  0  0  0  0  0  0  0  0  0  0
   38.9802   16.9350   -9.8216 C   0  0  0  0  0  0  0  0  0  0  0  0
   38.4363   17.8862   -9.2612 O   0  0  0  0  0  0  0  0  0  0  0  0
   40.3130   16.2740  -11.7488 C   0  0  0  0  0  0  0  0  0  0  0  0
   39.2078   16.9708  -11.1819 O   0  0  0  0  0  0  0  0  0  0  0  0
   41.1276   16.0440   -5.6703 C   0  0  0  0  0  0  0  0  0  0  0  0
   41.3881   17.2916   -5.4754 O   0  0  0  0  0  0  0  0  0  0  0  0
   41.8584   15.1837   -4.8845 O   0  0  0  0  0  0  0  0  0  0  0  0
   43.2871   15.1743   -5.0489 C   0  0  0  0  0  0  0  0  0  0  0  0
   43.9961   14.5793   -3.8995 C   0  0  0  0  0  0  0  0  0  0  0  0
   44.8921   13.5161   -4.1104 N   0  0  0  0  0  0  0  0  0  0  0  0
   46.2675   13.7311   -4.1683 C   0  0  0  0  0  0  0  0  0  0  0  0
   44.3930   12.6738   -5.1622 C   0  0  0  0  0  0  0  0  0  0  0  0
   43.9518   11.3375   -4.7181 C   0  0  0  0  0  0  0  0  0  0  0  0
   44.8047   10.2687   -4.5117 C   0  0  0  0  0  0  0  0  0  0  0  0
   44.3517    9.0352   -4.0960 C   0  0  0  0  0  0  0  0  0  0  0  0
   42.9991    8.8595   -3.8777 C   0  0  0  0  0  0  0  0  0  0  0  0
   42.1336    9.9125   -4.0778 C   0  0  0  0  0  0  0  0  0  0  0  0
   42.6070   11.1241   -4.4899 C   0  0  0  0  0  0  0  0  0  0  0  0
 20 21  1  0  0  0
 21 18  1  0  0  0
 18 19  2  0  0  0
 18  1  1  0  0  0
  1  2  1  0  0  0
  2  3  1  0  0  0
  2  4  2  0  0  0
  4  5  1  0  0  0
  5  6  1  0  0  0
  5  7  2  0  0  0
  7 22  1  0  0  0
 22 23  2  0  0  0
 22 24  1  0  0  0
 24 25  1  0  0  0
 25 26  1  0  0  0
 26 27  1  0  0  0
 27 28  1  0  0  0
 27 29  1  0  0  0
 29 30  1  0  0  0
 30 31  2  0  0  0
 31 32  1  0  0  0
 32 33  2  0  0  0
 33 34  1  0  0  0
 34 35  2  0  0  0
  7  8  1  0  0  0
  8  9  1  0  0  0
  9 10  2  0  0  0
 10 11  1  0  0  0
 11 12  2  0  0  0
 12 13  1  0  0  0
 13 15  1  0  0  0
 15 16  2  0  0  0
 15 17  1  0  0  0
 13 14  2  0  0  0
  8  1  1  0  0  0
 14  9  1  0  0  0
 35 30  1  0  0  0
M  CHG 1  15   1
M  CHG 1  17  -1
M  END
> <minimizedAffinity>
-4.84732

> <CNNscore>
0.1093133762

> <CNNaffinity>
4.8301124573

> <CNN_VS>
0.5279958844

> <CNNaffinity_variance>
0.3764422536

$$$$
[H]c1c([H])c([H])c(C([H])([H])N(C([H])([H])[H])C([H])([H])C([H])([H])OC(=O)C2=C(C([H])([H])[H])N=C(C([H])([H])[H])C([H])(C(=O)OC([H])([H])[H])C2([H])c2c([H])c([H])c([H])c([N+](=O)[O-])c2[H])c([H])c1[H]


 35 37  0  0  0  0  0  0  0  0999 V2000
   37.7316   17.7185   -6.3976 C   0  0  0  0  0  0  0  0  0  0  0  0
   36.4920   18.5014   -6.4341 C   0  0  0  0  0  0  0  0  0  0  0  0
   36.5354   19.8625   -5.7586 C   0  0  0  0  0  0  0  0  0  0  0  0
   35.4102   18.1501   -6.9699 N   0  0  0  0  0  0  0  0  0  0  0  0
   35.2902   16.9010   -7.6222 C   0  0  0  0  0  0  0  0  0  0  0  0
   33.9479   16.5600   -8.2139 C   0  0  0  0  0  0  0  0  0  0  0  0
   36.3276   16.0922   -7.6746 C   0  0  0  0  0  0  0  0  0  0  0  0
   37.6650   16.4449   -7.1012 C   0  0  0  0  0  0  0  0  0  0  0  0
   38.6716   16.3275   -8.1994 C   0  0  0  0  0  0  0  0  0  0  0  0
   38.5662   17.0018   -9.3844 C   0  0  0  0  0  0  0  0  0  0  0  0
   39.5249   16.8872  -10.3706 C   0  0  0  0  0  0  0  0  0  0  0  0
   40.6275   16.0665  -10.1578 C   0  0  0  0  0  0  0  0  0  0  0  0
   40.7426   15.3795   -8.9602 C   0  0  0  0  0  0  0  0  0  0  0  0
   39.7611   15.5203   -7.9967 C   0  0  0  0  0  0  0  0  0  0  0  0
   41.8761   14.5487   -8.7656 N   0  0  0  0  0  0  0  0  0  0  0  0
   41.8158   13.6614   -7.9001 O   0  0  0  0  0  0  0  0  0  0  0  0
   43.0288   14.6819   -9.4868 O   0  0  0  0  0  0  0  0  0  0  0  0
   38.0643   17.5544   -4.9307 C   0  0  0  0  0  0  0  0  0  0  0  0
   37.3078   16.9851   -4.1445 O   0  0  0  0  0  0  0  0  0  0  0  0
   40.3466   18.2664   -5.3909 C   0  0  0  0  0  0  0  0  0  0  0  0
   39.2641   18.0705   -4.4863 O   0  0  0  0  0  0  0  0  0  0  0  0
   36.2078   14.8057   -8.3420 C   0  0  0  0  0  0  0  0  0  0  0  0
   35.7206   13.8322   -7.6513 O   0  0  0  0  0  0  0  0  0  0  0  0
   36.5456   14.4707   -9.6325 O   0  0  0  0  0  0  0  0  0  0  0  0
   35.6549   14.8763  -10.6863 C   0  0  0  0  0  0  0  0  0  0  0  0
   36.2404   14.7135  -12.0310 C   0  0  0  0  0  0  0  0  0  0  0  0
   35.5379   13.9911  -13.0120 N   0  0  0  0  0  0  0  0  0  0  0  0
   34.1545   14.1001  -13.1373 C   0  0  0  0  0  0  0  0  0  0  0  0
   36.0169   12.6367  -13.0408 C   0  0  0  0  0  0  0  0  0  0  0  0
   36.7081   12.2589  -14.2887 C   0  0  0  0  0  0  0  0  0  0  0  0
   38.0825   12.1827  -14.4207 C   0  0  0  0  0  0  0  0  0  0  0  0
   38.6895   11.8254  -15.6053 C   0  0  0  0  0  0  0  0  0  0  0  0
   37.8983   11.5328  -16.6992 C   0  0  0  0  0  0  0  0  0  0  0  0
   36.5270   11.6031  -16.5872 C   0  0  0  0  0  0  0  0  0  0  0  0
   35.9502   11.9596  -15.4031 C   0  0  0  0  0  0  0  0  0  0  0  0
 20 21  1  0  0  0
 21 18  1  0  0  0
 18 19  2  0  0  0
 18  1  1  0  0  0
  1  2  1  0  0  0
  2  3  1  0  0  0
  2  4  2  0  0  0
  4  5  1  0  0  0
  5  6  1  0  0  0
  5  7  2  0  0  0
  7 22  1  0  0  0
 22 23  2  0  0  0
 22 24  1  0  0  0
 24 25  1  0  0  0
 25 26  1  0  0  0
 26 27  1  0  0  0
 27 28  1  0  0  0
 27 29  1  0  0  0
 29 30  1  0  0  0
 30 31  2  0  0  0
 31 32  1  0  0  0
 32 33  2  0  0  0
 33 34  1  0  0  0
 34 35  2  0  0  0
  7  8  1  0  0  0
  8  9  1  0  0  0
  9 10  2  0  0  0
 10 11  1  0  0  0
 11 12  2  0  0  0
 12 13  1  0  0  0
 13 15  1  0  0  0
 15 16  2  0  0  0
 15 17  1  0  0  0
 13 14  2  0  0  0
  8  1  1  0  0  0
 14  9  1  0  0  0
 35 30  1  0  0  0
M  CHG 1  15   1
M  CHG 1  17  -1
M  END
> <minimizedAffinity>
-6.64271

> <CNNscore>
0.1046423987

> <CNNaffinity>
5.3859238625

> <CNN_VS>
0.5635960102

> <CNNaffinity_variance>
0.4491819441

$$$$
[H]/C(=C(\[H])C([H])([H])C([H])([H])C([H])([H])C([H])([H])C([H])([H])C([H])([H])C([H])([H])C([H])([H])[H])C([H])([H])C([H])([H])C([H])([H])C([H])([H])C([H])([H])C([H])([H])C([H])([H])C(=O)c1nc2c([H])c([H])c([H])nc2o1


 28 29  0  0  0  0  0  0  0  0999 V2000
   36.0137   11.5435  -17.0559 C   0  0  0  0  0  0  0  0  0  0  0  0
   37.1318   10.9019  -17.7255 C   0  0  0  0  0  0  0  0  0  0  0  0
   38.4866   10.8110  -17.1857 C   0  0  0  0  0  0  0  0  0  0  0  0
   39.2653   12.0728  -16.9929 C   0  0  0  0  0  0  0  0  0  0  0  0
   40.6076   11.9620  -17.6755 C   0  0  0  0  0  0  0  0  0  0  0  0
   40.6403   11.6003  -18.8696 O   0  0  0  0  0  0  0  0  0  0  0  0
   41.8218   12.2643  -16.9707 C   0  0  0  0  0  0  0  0  0  0  0  0
   41.9362   13.1126  -15.9185 N   0  0  0  0  0  0  0  0  0  0  0  0
   43.2171   13.1560  -15.5074 C   0  0  0  0  0  0  0  0  0  0  0  0
   43.9216   13.8041  -14.5307 C   0  0  0  0  0  0  0  0  0  0  0  0
   45.2712   13.5923  -14.4071 C   0  0  0  0  0  0  0  0  0  0  0  0
   45.8949   12.7210  -15.2800 C   0  0  0  0  0  0  0  0  0  0  0  0
   45.2055   12.0702  -16.2557 N   0  0  0  0  0  0  0  0  0  0  0  0
   43.8853   12.2853  -16.3671 C   0  0  0  0  0  0  0  0  0  0  0  0
   43.0151   11.7806  -17.2178 O   0  0  0  0  0  0  0  0  0  0  0  0
   34.9280   10.7830  -16.4130 C   0  0  0  0  0  0  0  0  0  0  0  0
   34.1034   11.5525  -15.4396 C   0  0  0  0  0  0  0  0  0  0  0  0
   34.7638   12.8172  -14.9112 C   0  0  0  0  0  0  0  0  0  0  0  0
   36.2038   12.2715  -13.0250 C   0  0  0  0  0  0  0  0  0  0  0  0
   35.0341   12.6494  -13.4782 C   0  0  0  0  0  0  0  0  0  0  0  0
   37.3491   11.9791  -13.8574 C   0  0  0  0  0  0  0  0  0  0  0  0
   38.5216   12.9276  -13.6161 C   0  0  0  0  0  0  0  0  0  0  0  0
   38.0985   14.3497  -13.6304 C   0  0  0  0  0  0  0  0  0  0  0  0
   38.6693   15.1959  -12.4927 C   0  0  0  0  0  0  0  0  0  0  0  0
   37.6089   15.7525  -11.6217 C   0  0  0  0  0  0  0  0  0  0  0  0
   37.1536   14.9906  -10.4431 C   0  0  0  0  0  0  0  0  0  0  0  0
   34.8339   15.5348  -11.1448 C   0  0  0  0  0  0  0  0  0  0  0  0
   35.7192   14.9759  -10.0830 C   0  0  0  0  0  0  0  0  0  0  0  0
 27 28  1  0  0  0
 28 26  1  0  0  0
 26 25  1  0  0  0
 25 24  1  0  0  0
 24 23  1  0  0  0
 23 22  1  0  0  0
 22 21  1  0  0  0
 21 19  1  0  0  0
 19 20  2  0  0  0
 20 18  1  0  0  0
 18 17  1  0  0  0
 17 16  1  0  0  0
 16  1  1  0  0  0
  1  2  1  0  0  0
  2  3  1  0  0  0
  3  4  1  0  0  0
  4  5  1  0  0  0
  5  6  2  0  0  0
  5  7  1  0  0  0
  7  8  2  0  0  0
  8  9  1  0  0  0
  9 10  2  0  0  0
 10 11  1  0  0  0
 11 12  2  0  0  0
 12 13  1  0  0  0
 13 14  2  0  0  0
 14 15  1  0  0  0
 15  7  1  0  0  0
 14  9  1  0  0  0
M  END
> <minimizedAffinity>
-6.42486

> <CNNscore>
0.4189062715

> <CNNaffinity>
6.9567108154

> <CNN_VS>
2.9142098427

> <CNNaffinity_variance>
0.0901810676

$$$$
[H]/C(=C(\[H])C([H])([H])C([H])([H])C([H])([H])C([H])([H])C([H])([H])C([H])([H])C([H])([H])C([H])([H])[H])C([H])([H])C([H])([H])C([H])([H])C([H])([H])C([H])([H])C([H])([H])C([H])([H])C(=O)c1nc2c([H])c([H])c([H])nc2o1


 28 29  0  0  0  0  0  0  0  0999 V2000
   43.1920   12.3148  -16.8093 C   0  0  0  0  0  0  0  0  0  0  0  0
   42.3861   12.9178  -15.7619 C   0  0  0  0  0  0  0  0  0  0  0  0
   40.9251   12.9288  -15.7356 C   0  0  0  0  0  0  0  0  0  0  0  0
   40.1872   12.9663  -17.0355 C   0  0  0  0  0  0  0  0  0  0  0  0
   39.3602   11.7133  -17.1973 C   0  0  0  0  0  0  0  0  0  0  0  0
   39.8935   10.7106  -17.7150 O   0  0  0  0  0  0  0  0  0  0  0  0
   37.9906   11.6717  -16.7674 C   0  0  0  0  0  0  0  0  0  0  0  0
   37.5047   12.2058  -15.6191 N   0  0  0  0  0  0  0  0  0  0  0  0
   36.1802   11.9801  -15.5383 C   0  0  0  0  0  0  0  0  0  0  0  0
   35.1800   12.2657  -14.6504 C   0  0  0  0  0  0  0  0  0  0  0  0
   33.8966   11.8591  -14.9131 C   0  0  0  0  0  0  0  0  0  0  0  0
   33.6402   11.1636  -16.0796 C   0  0  0  0  0  0  0  0  0  0  0  0
   34.6262   10.8733  -16.9709 N   0  0  0  0  0  0  0  0  0  0  0  0
   35.8782   11.2763  -16.7032 C   0  0  0  0  0  0  0  0  0  0  0  0
   36.9848   11.1177  -17.4002 O   0  0  0  0  0  0  0  0  0  0  0  0
   44.4779   11.6482  -16.5402 C   0  0  0  0  0  0  0  0  0  0  0  0
   45.5930   12.5545  -16.1465 C   0  0  0  0  0  0  0  0  0  0  0  0
   45.8333   12.6479  -14.6470 C   0  0  0  0  0  0  0  0  0  0  0  0
   45.9968   15.0007  -14.0414 C   0  0  0  0  0  0  0  0  0  0  0  0
   46.5862   13.8754  -14.3617 C   0  0  0  0  0  0  0  0  0  0  0  0
   44.5657   15.1731  -13.9306 C   0  0  0  0  0  0  0  0  0  0  0  0
   44.1004   15.4029  -12.4941 C   0  0  0  0  0  0  0  0  0  0  0  0
   42.8811   16.2463  -12.4328 C   0  0  0  0  0  0  0  0  0  0  0  0
   42.0251   16.0391  -11.1836 C   0  0  0  0  0  0  0  0  0  0  0  0
   42.8080   15.4913  -10.0521 C   0  0  0  0  0  0  0  0  0  0  0  0
   43.2139   16.3777   -8.9448 C   0  0  0  0  0  0  0  0  0  0  0  0
   45.6732   16.1638   -9.2201 C   0  0  0  0  0  0  0  0  0  0  0  0
   44.5158   17.0775   -8.9992 C   0  0  0  0  0  0  0  0  0  0  0  0
 27 28  1  0  0  0
 28 26  1  0  0  0
 26 25  1  0  0  0
 25 24  1  0  0  0
 24 23  1  0  0  0
 23 22  1  0  0  0
 22 21  1  0  0  0
 21 19  1  0  0  0
 19 20  2  0  0  0
 20 18  1  0  0  0
 18 17  1  0  0  0
 17 16  1  0  0  0
 16  1  1  0  0  0
  1  2  1  0  0  0
  2  3  1  0  0  0
  3  4  1  0  0  0
  4  5  1  0  0  0
  5  6  2  0  0  0
  5  7  1  0  0  0
  7  8  2  0  0  0
  8  9  1  0  0  0
  9 10  2  0  0  0
 10 11  1  0  0  0
 11 12  2  0  0  0
 12 13  1  0  0  0
 13 14  2  0  0  0
 14 15  1  0  0  0
 15  7  1  0  0  0
 14  9  1  0  0  0
M  END
> <minimizedAffinity>
-5.70980

> <CNNscore>
0.2713770568

> <CNNaffinity>
6.4311971664

> <CNN_VS>
1.7452793121

> <CNNaffinity_variance>
0.0438781567

$$$$
[H]/C(=C(\[H])C([H])([H])C([H])([H])C([H])([H])C([H])([H])C([H])([H])C([H])([H])C([H])([H])C([H])([H])[H])C([H])([H])C([H])([H])C([H])([H])C([H])([H])C([H])([H])C([H])([H])C([H])([H])C(=O)c1nc2c([H])c([H])c([H])nc2o1


 28 29  0  0  0  0  0  0  0  0999 V2000
   39.8312   11.9079  -18.0348 C   0  0  0  0  0  0  0  0  0  0  0  0
   38.8567   10.8854  -17.6957 C   0  0  0  0  0  0  0  0  0  0  0  0
   37.6863   11.0974  -16.8469 C   0  0  0  0  0  0  0  0  0  0  0  0
   36.3287   11.0180  -17.4685 C   0  0  0  0  0  0  0  0  0  0  0  0
   35.2769   11.4387  -16.4701 C   0  0  0  0  0  0  0  0  0  0  0  0
   34.1008   11.0614  -16.6495 O   0  0  0  0  0  0  0  0  0  0  0  0
   35.6172   12.2548  -15.3385 C   0  0  0  0  0  0  0  0  0  0  0  0
   36.2177   13.4700  -15.3907 N   0  0  0  0  0  0  0  0  0  0  0  0
   36.3858   13.9473  -14.1435 C   0  0  0  0  0  0  0  0  0  0  0  0
   36.9110   15.0765  -13.5784 C   0  0  0  0  0  0  0  0  0  0  0  0
   36.9097   15.2220  -12.2145 C   0  0  0  0  0  0  0  0  0  0  0  0
   36.3727   14.2154  -11.4343 C   0  0  0  0  0  0  0  0  0  0  0  0
   35.8472   13.0874  -11.9841 N   0  0  0  0  0  0  0  0  0  0  0  0
   35.8541   12.9561  -13.3199 C   0  0  0  0  0  0  0  0  0  0  0  0
   35.4104   11.9720  -14.0751 O   0  0  0  0  0  0  0  0  0  0  0  0
   40.8825   12.3467  -17.1006 C   0  0  0  0  0  0  0  0  0  0  0  0
   40.5756   13.5884  -16.3367 C   0  0  0  0  0  0  0  0  0  0  0  0
   40.1046   13.3534  -14.9093 C   0  0  0  0  0  0  0  0  0  0  0  0
   41.7220   14.5163  -13.5088 C   0  0  0  0  0  0  0  0  0  0  0  0
   40.5403   14.4787  -14.0734 C   0  0  0  0  0  0  0  0  0  0  0  0
   42.7227   13.4805  -13.6339 C   0  0  0  0  0  0  0  0  0  0  0  0
   43.8332   13.8376  -14.6198 C   0  0  0  0  0  0  0  0  0  0  0  0
   45.1749   13.7867  -13.9883 C   0  0  0  0  0  0  0  0  0  0  0  0
   45.5797   15.0614  -13.2482 C   0  0  0  0  0  0  0  0  0  0  0  0
   45.2455   16.2841  -14.0139 C   0  0  0  0  0  0  0  0  0  0  0  0
   44.7579   17.4825  -13.3047 C   0  0  0  0  0  0  0  0  0  0  0  0
   46.6943   18.4142  -12.0589 C   0  0  0  0  0  0  0  0  0  0  0  0
   45.6575   18.6396  -13.1066 C   0  0  0  0  0  0  0  0  0  0  0  0
 27 28  1  0  0  0
 28 26  1  0  0  0
 26 25  1  0  0  0
 25 24  1  0  0  0
 24 23  1  0  0  0
 23 22  1  0  0  0
 22 21  1  0  0  0
 21 19  1  0  0  0
 19 20  2  0  0  0
 20 18  1  0  0  0
 18 17  1  0  0  0
 17 16  1  0  0  0
 16  1  1  0  0  0
  1  2  1  0  0  0
  2  3  1  0  0  0
  3  4  1  0  0  0
  4  5  1  0  0  0
  5  6  2  0  0  0
  5  7  1  0  0  0
  7  8  2  0  0  0
  8  9  1  0  0  0
  9 10  2  0  0  0
 10 11  1  0  0  0
 11 12  2  0  0  0
 12 13  1  0  0  0
 13 14  2  0  0  0
 14 15  1  0  0  0
 15  7  1  0  0  0
 14  9  1  0  0  0
M  END
> <minimizedAffinity>
-6.01622

> <CNNscore>
0.2322168648

> <CNNaffinity>
6.4444479942

> <CNN_VS>
1.4965095520

> <CNNaffinity_variance>
0.4033825994

$$$$
[H]/C(=C(\[H])C([H])([H])C([H])([H])C([H])([H])C([H])([H])C([H])([H])C([H])([H])C([H])([H])C([H])([H])[H])C([H])([H])C([H])([H])C([H])([H])C([H])([H])C([H])([H])C([H])([H])C([H])([H])C(=O)c1nc2c([H])c([H])c([H])nc2o1


 28 29  0  0  0  0  0  0  0  0999 V2000
   37.0910   13.4591  -14.2002 C   0  0  0  0  0  0  0  0  0  0  0  0
   38.1492   14.0709  -13.4152 C   0  0  0  0  0  0  0  0  0  0  0  0
   37.9608   15.1789  -12.4812 C   0  0  0  0  0  0  0  0  0  0  0  0
   37.8471   14.8722  -11.0222 C   0  0  0  0  0  0  0  0  0  0  0  0
   36.5089   15.3359  -10.4987 C   0  0  0  0  0  0  0  0  0  0  0  0
   35.8064   16.0682  -11.2255 O   0  0  0  0  0  0  0  0  0  0  0  0
   36.0506   14.9463   -9.1946 C   0  0  0  0  0  0  0  0  0  0  0  0
   34.8223   15.2007   -8.6784 N   0  0  0  0  0  0  0  0  0  0  0  0
   34.7382   14.6922   -7.4350 C   0  0  0  0  0  0  0  0  0  0  0  0
   33.7896   14.6342   -6.4517 C   0  0  0  0  0  0  0  0  0  0  0  0
   34.0730   14.0069   -5.2652 C   0  0  0  0  0  0  0  0  0  0  0  0
   35.3221   13.4423   -5.0880 C   0  0  0  0  0  0  0  0  0  0  0  0
   36.2743   13.4932   -6.0583 N   0  0  0  0  0  0  0  0  0  0  0  0
   35.9856   14.1096   -7.2151 C   0  0  0  0  0  0  0  0  0  0  0  0
   36.7296   14.2863   -8.2878 O   0  0  0  0  0  0  0  0  0  0  0  0
   36.1510   12.4737  -13.6383 C   0  0  0  0  0  0  0  0  0  0  0  0
   34.7328   12.6329  -14.0663 C   0  0  0  0  0  0  0  0  0  0  0  0
   34.0671   11.3498  -14.5408 C   0  0  0  0  0  0  0  0  0  0  0  0
   34.2132   11.1045  -16.9590 C   0  0  0  0  0  0  0  0  0  0  0  0
   33.5703   11.5492  -15.9077 C   0  0  0  0  0  0  0  0  0  0  0  0
   35.4624   10.3786  -16.9086 C   0  0  0  0  0  0  0  0  0  0  0  0
   36.6857   11.2831  -17.0429 C   0  0  0  0  0  0  0  0  0  0  0  0
   37.6908   10.7235  -17.9802 C   0  0  0  0  0  0  0  0  0  0  0  0
   39.1015   10.6027  -17.4043 C   0  0  0  0  0  0  0  0  0  0  0  0
   40.0886   11.4003  -18.1675 C   0  0  0  0  0  0  0  0  0  0  0  0
   40.3168   12.8149  -17.8159 C   0  0  0  0  0  0  0  0  0  0  0  0
   41.4838   13.0002  -15.6311 C   0  0  0  0  0  0  0  0  0  0  0  0
   40.2327   13.2471  -16.4040 C   0  0  0  0  0  0  0  0  0  0  0  0
 27 28  1  0  0  0
 28 26  1  0  0  0
 26 25  1  0  0  0
 25 24  1  0  0  0
 24 23  1  0  0  0
 23 22  1  0  0  0
 22 21  1  0  0  0
 21 19  1  0  0  0
 19 20  2  0  0  0
 20 18  1  0  0  0
 18 17  1  0  0  0
 17 16  1  0  0  0
 16  1  1  0  0  0
  1  2  1  0  0  0
  2  3  1  0  0  0
  3  4  1  0  0  0
  4  5  1  0  0  0
  5  6  2  0  0  0
  5  7  1  0  0  0
  7  8  2  0  0  0
  8  9  1  0  0  0
  9 10  2  0  0  0
 10 11  1  0  0  0
 11 12  2  0  0  0
 12 13  1  0  0  0
 13 14  2  0  0  0
 14 15  1  0  0  0
 15  7  1  0  0  0
 14  9  1  0  0  0
M  END
> <minimizedAffinity>
-6.15264

> <CNNscore>
0.2068390548

> <CNNaffinity>
6.1486082077

> <CNN_VS>
1.2717722654

> <CNNaffinity_variance>
0.2759257555

$$$$
[H]/C(=C(\[H])C([H])([H])C([H])([H])C([H])([H])C([H])([H])C([H])([H])C([H])([H])C([H])([H])C([H])([H])[H])C([H])([H])C([H])([H])C([H])([H])C([H])([H])C([H])([H])C([H])([H])C([H])([H])C(=O)c1nc2c([H])c([H])c([H])nc2o1


 28 29  0  0  0  0  0  0  0  0999 V2000
   43.4375   13.3825  -15.6742 C   0  0  0  0  0  0  0  0  0  0  0  0
   42.4234   13.3353  -14.6352 C   0  0  0  0  0  0  0  0  0  0  0  0
   40.9820   13.3488  -14.8754 C   0  0  0  0  0  0  0  0  0  0  0  0
   40.4913   13.6081  -16.2637 C   0  0  0  0  0  0  0  0  0  0  0  0
   39.8145   12.3746  -16.8121 C   0  0  0  0  0  0  0  0  0  0  0  0
   40.4903   11.5793  -17.4967 O   0  0  0  0  0  0  0  0  0  0  0  0
   38.4251   12.1184  -16.5549 C   0  0  0  0  0  0  0  0  0  0  0  0
   37.6857   12.6821  -15.5673 N   0  0  0  0  0  0  0  0  0  0  0  0
   36.4250   12.2135  -15.6200 C   0  0  0  0  0  0  0  0  0  0  0  0
   35.2684   12.4033  -14.9155 C   0  0  0  0  0  0  0  0  0  0  0  0
   34.1312   11.7250  -15.2735 C   0  0  0  0  0  0  0  0  0  0  0  0
   34.1797   10.8569  -16.3480 C   0  0  0  0  0  0  0  0  0  0  0  0
   35.3239   10.6593  -17.0569 N   0  0  0  0  0  0  0  0  0  0  0  0
   36.4304   11.3286  -16.6973 C   0  0  0  0  0  0  0  0  0  0  0  0
   37.6395   11.3062  -17.2199 O   0  0  0  0  0  0  0  0  0  0  0  0
   44.7405   12.7070  -15.5462 C   0  0  0  0  0  0  0  0  0  0  0  0
   45.7793   13.4676  -14.7964 C   0  0  0  0  0  0  0  0  0  0  0  0
   46.7014   12.6082  -13.9445 C   0  0  0  0  0  0  0  0  0  0  0  0
   46.3667   13.1988  -11.6060 C   0  0  0  0  0  0  0  0  0  0  0  0
   47.0405   13.3438  -12.7202 C   0  0  0  0  0  0  0  0  0  0  0  0
   45.2320   12.3178  -11.4438 C   0  0  0  0  0  0  0  0  0  0  0  0
   43.8929   13.0499  -11.5031 C   0  0  0  0  0  0  0  0  0  0  0  0
   43.8419   14.1932  -10.5587 C   0  0  0  0  0  0  0  0  0  0  0  0
   43.1077   15.4249  -11.0882 C   0  0  0  0  0  0  0  0  0  0  0  0
   43.6487   15.8841  -12.3880 C   0  0  0  0  0  0  0  0  0  0  0  0
   45.0439   16.3560  -12.4755 C   0  0  0  0  0  0  0  0  0  0  0  0
   44.4048   18.5534  -13.4411 C   0  0  0  0  0  0  0  0  0  0  0  0
   45.3980   17.4415  -13.4155 C   0  0  0  0  0  0  0  0  0  0  0  0
 27 28  1  0  0  0
 28 26  1  0  0  0
 26 25  1  0  0  0
 25 24  1  0  0  0
 24 23  1  0  0  0
 23 22  1  0  0  0
 22 21  1  0  0  0
 21 19  1  0  0  0
 19 20  2  0  0  0
 20 18  1  0  0  0
 18 17  1  0  0  0
 17 16  1  0  0  0
 16  1  1  0  0  0
  1  2  1  0  0  0
  2  3  1  0  0  0
  3  4  1  0  0  0
  4  5  1  0  0  0
  5  6  2  0  0  0
  5  7  1  0  0  0
  7  8  2  0  0  0
  8  9  1  0  0  0
  9 10  2  0  0  0
 10 11  1  0  0  0
 11 12  2  0  0  0
 12 13  1  0  0  0
 13 14  2  0  0  0
 14 15  1  0  0  0
 15  7  1  0  0  0
 14  9  1  0  0  0
M  END
> <minimizedAffinity>
-5.37129

> <CNNscore>
0.1979485005

> <CNNaffinity>
6.4990134239

> <CNN_VS>
1.2864699364

> <CNNaffinity_variance>
0.0320623443

$$$$
[H]/C(=C(\[H])C([H])([H])C([H])([H])C([H])([H])C([H])([H])C([H])([H])C([H])([H])C([H])([H])C([H])([H])[H])C([H])([H])C([H])([H])C([H])([H])C([H])([H])C([H])([H])C([H])([H])C([H])([H])C(=O)c1nc2c([H])c([H])c([H])nc2o1


 28 29  0  0  0  0  0  0  0  0999 V2000
   39.9643   11.8549  -18.0776 C   0  0  0  0  0  0  0  0  0  0  0  0
   38.9721   10.8647  -17.6968 C   0  0  0  0  0  0  0  0  0  0  0  0
   37.7942   11.1370  -16.8760 C   0  0  0  0  0  0  0  0  0  0  0  0
   36.4423   11.0131  -17.5027 C   0  0  0  0  0  0  0  0  0  0  0  0
   35.3716   11.3619  -16.4966 C   0  0  0  0  0  0  0  0  0  0  0  0
   34.2211   10.9103  -16.6707 O   0  0  0  0  0  0  0  0  0  0  0  0
   35.6655   12.1944  -15.3639 C   0  0  0  0  0  0  0  0  0  0  0  0
   36.1928   13.4430  -15.4147 N   0  0  0  0  0  0  0  0  0  0  0  0
   36.3352   13.9269  -14.1668 C   0  0  0  0  0  0  0  0  0  0  0  0
   36.7939   15.0840  -13.6004 C   0  0  0  0  0  0  0  0  0  0  0  0
   36.7869   15.2264  -12.2361 C   0  0  0  0  0  0  0  0  0  0  0  0
   36.3122   14.1881  -11.4571 C   0  0  0  0  0  0  0  0  0  0  0  0
   35.8532   13.0321  -12.0082 N   0  0  0  0  0  0  0  0  0  0  0  0
   35.8649   12.9042  -13.3443 C   0  0  0  0  0  0  0  0  0  0  0  0
   35.4785   11.8972  -14.1007 O   0  0  0  0  0  0  0  0  0  0  0  0
   41.0351   12.2994  -17.1685 C   0  0  0  0  0  0  0  0  0  0  0  0
   40.7172   13.5064  -16.3549 C   0  0  0  0  0  0  0  0  0  0  0  0
   40.2284   13.2088  -14.9453 C   0  0  0  0  0  0  0  0  0  0  0  0
   41.5140   14.6325  -13.4453 C   0  0  0  0  0  0  0  0  0  0  0  0
   40.4114   14.4060  -14.1158 C   0  0  0  0  0  0  0  0  0  0  0  0
   42.6624   13.7544  -13.4370 C   0  0  0  0  0  0  0  0  0  0  0  0
   43.9357   14.4302  -13.9416 C   0  0  0  0  0  0  0  0  0  0  0  0
   44.5262   13.7113  -15.0976 C   0  0  0  0  0  0  0  0  0  0  0  0
   45.4146   12.5250  -14.7240 C   0  0  0  0  0  0  0  0  0  0  0  0
   46.2892   12.8224  -13.5666 C   0  0  0  0  0  0  0  0  0  0  0  0
   46.2659   11.9397  -12.3845 C   0  0  0  0  0  0  0  0  0  0  0  0
   48.7108   11.5208  -12.5134 C   0  0  0  0  0  0  0  0  0  0  0  0
   47.3675   10.9789  -12.1594 C   0  0  0  0  0  0  0  0  0  0  0  0
 27 28  1  0  0  0
 28 26  1  0  0  0
 26 25  1  0  0  0
 25 24  1  0  0  0
 24 23  1  0  0  0
 23 22  1  0  0  0
 22 21  1  0  0  0
 21 19  1  0  0  0
 19 20  2  0  0  0
 20 18  1  0  0  0
 18 17  1  0  0  0
 17 16  1  0  0  0
 16  1  1  0  0  0
  1  2  1  0  0  0
  2  3  1  0  0  0
  3  4  1  0  0  0
  4  5  1  0  0  0
  5  6  2  0  0  0
  5  7  1  0  0  0
  7  8  2  0  0  0
  8  9  1  0  0  0
  9 10  2  0  0  0
 10 11  1  0  0  0
 11 12  2  0  0  0
 12 13  1  0  0  0
 13 14  2  0  0  0
 14 15  1  0  0  0
 15  7  1  0  0  0
 14  9  1  0  0  0
M  END
> <minimizedAffinity>
-5.97447

> <CNNscore>
0.1954588145

> <CNNaffinity>
6.4060125351

> <CNN_VS>
1.2521116734

> <CNNaffinity_variance>
0.2774857879

$$$$
[H]/C(=C(\[H])C([H])([H])C([H])([H])C([H])([H])C([H])([H])C([H])([H])C([H])([H])C([H])([H])C([H])([H])[H])C([H])([H])C([H])([H])C([H])([H])C([H])([H])C([H])([H])C([H])([H])C([H])([H])C(=O)c1nc2c([H])c([H])c([H])nc2o1


 28 29  0  0  0  0  0  0  0  0999 V2000
   41.8157   13.5745  -14.5946 C   0  0  0  0  0  0  0  0  0  0  0  0
   42.8406   12.8300  -15.3055 C   0  0  0  0  0  0  0  0  0  0  0  0
   43.9179   13.4325  -16.0877 C   0  0  0  0  0  0  0  0  0  0  0  0
   45.2672   12.7889  -16.0602 C   0  0  0  0  0  0  0  0  0  0  0  0
   45.9826   13.1414  -14.7779 C   0  0  0  0  0  0  0  0  0  0  0  0
   46.6448   12.2538  -14.2022 O   0  0  0  0  0  0  0  0  0  0  0  0
   45.9053   14.4662  -14.2292 C   0  0  0  0  0  0  0  0  0  0  0  0
   45.4597   14.7844  -12.9882 N   0  0  0  0  0  0  0  0  0  0  0  0
   45.5252   16.1169  -12.8100 C   0  0  0  0  0  0  0  0  0  0  0  0
   45.2275   16.9970  -11.8065 C   0  0  0  0  0  0  0  0  0  0  0  0
   45.4342   18.3402  -11.9921 C   0  0  0  0  0  0  0  0  0  0  0  0
   45.9434   18.7786  -13.2000 C   0  0  0  0  0  0  0  0  0  0  0  0
   46.2436   17.9134  -14.2060 N   0  0  0  0  0  0  0  0  0  0  0  0
   46.0371   16.6013  -14.0129 C   0  0  0  0  0  0  0  0  0  0  0  0
   46.2467   15.5840  -14.8233 O   0  0  0  0  0  0  0  0  0  0  0  0
   40.4534   13.7584  -15.1244 C   0  0  0  0  0  0  0  0  0  0  0  0
   39.9642   12.6662  -16.0118 C   0  0  0  0  0  0  0  0  0  0  0  0
   40.1490   12.9282  -17.4990 C   0  0  0  0  0  0  0  0  0  0  0  0
   40.0108   10.8913  -18.8261 C   0  0  0  0  0  0  0  0  0  0  0  0
   40.7284   11.7330  -18.1240 C   0  0  0  0  0  0  0  0  0  0  0  0
   38.5923   11.0287  -19.0692 C   0  0  0  0  0  0  0  0  0  0  0  0
   37.7340   10.4027  -17.9720 C   0  0  0  0  0  0  0  0  0  0  0  0
   36.4106   11.0637  -17.8562 C   0  0  0  0  0  0  0  0  0  0  0  0
   35.8825   11.1864  -16.4270 C   0  0  0  0  0  0  0  0  0  0  0  0
   36.4600   12.3488  -15.7140 C   0  0  0  0  0  0  0  0  0  0  0  0
   35.9009   12.7620  -14.4127 C   0  0  0  0  0  0  0  0  0  0  0  0
   37.6498   13.5634  -12.8415 C   0  0  0  0  0  0  0  0  0  0  0  0
   36.6566   12.5004  -13.1685 C   0  0  0  0  0  0  0  0  0  0  0  0
 27 28  1  0  0  0
 28 26  1  0  0  0
 26 25  1  0  0  0
 25 24  1  0  0  0
 24 23  1  0  0  0
 23 22  1  0  0  0
 22 21  1  0  0  0
 21 19  1  0  0  0
 19 20  2  0  0  0
 20 18  1  0  0  0
 18 17  1  0  0  0
 17 16  1  0  0  0
 16  1  1  0  0  0
  1  2  1  0  0  0
  2  3  1  0  0  0
  3  4  1  0  0  0
  4  5  1  0  0  0
  5  6  2  0  0  0
  5  7  1  0  0  0
  7  8  2  0  0  0
  8  9  1  0  0  0
  9 10  2  0  0  0
 10 11  1  0  0  0
 11 12  2  0  0  0
 12 13  1  0  0  0
 13 14  2  0  0  0
 14 15  1  0  0  0
 15  7  1  0  0  0
 14  9  1  0  0  0
M  END
> <minimizedAffinity>
-6.06070

> <CNNscore>
0.1922536939

> <CNNaffinity>
6.2032628059

> <CNN_VS>
1.1926001310

> <CNNaffinity_variance>
0.2200549096

$$$$
[H]/C(=C(\[H])C([H])([H])C([H])([H])C([H])([H])C([H])([H])C([H])([H])C([H])([H])C([H])([H])C([H])([H])[H])C([H])([H])C([H])([H])C([H])([H])C([H])([H])C([H])([H])C([H])([H])C([H])([H])C(=O)c1nc2c([H])c([H])c([H])nc2o1


 28 29  0  0  0  0  0  0  0  0999 V2000
   43.7227   13.0765  -15.4321 C   0  0  0  0  0  0  0  0  0  0  0  0
   42.5976   12.6430  -16.2424 C   0  0  0  0  0  0  0  0  0  0  0  0
   41.1929   12.8598  -15.9033 C   0  0  0  0  0  0  0  0  0  0  0  0
   40.2097   13.0445  -17.0146 C   0  0  0  0  0  0  0  0  0  0  0  0
   39.4017   11.7833  -17.2056 C   0  0  0  0  0  0  0  0  0  0  0  0
   39.9441   10.8075  -17.7637 O   0  0  0  0  0  0  0  0  0  0  0  0
   38.0397   11.7037  -16.7574 C   0  0  0  0  0  0  0  0  0  0  0  0
   37.0342   11.0510  -17.3922 N   0  0  0  0  0  0  0  0  0  0  0  0
   35.8926   11.1848  -16.6918 C   0  0  0  0  0  0  0  0  0  0  0  0
   34.5969   10.7672  -16.8220 C   0  0  0  0  0  0  0  0  0  0  0  0
   33.6696   11.1107  -15.8714 C   0  0  0  0  0  0  0  0  0  0  0  0
   34.0686   11.8780  -14.7934 C   0  0  0  0  0  0  0  0  0  0  0  0
   35.3543   12.2997  -14.6523 N   0  0  0  0  0  0  0  0  0  0  0  0
   36.2530   11.9575  -15.5887 C   0  0  0  0  0  0  0  0  0  0  0  0
   37.5369   12.2405  -15.6721 O   0  0  0  0  0  0  0  0  0  0  0  0
   43.5824   14.0372  -14.3241 C   0  0  0  0  0  0  0  0  0  0  0  0
   43.7002   13.4534  -12.9585 C   0  0  0  0  0  0  0  0  0  0  0  0
   43.1806   14.3461  -11.8414 C   0  0  0  0  0  0  0  0  0  0  0  0
   41.5200   16.1164  -11.6467 C   0  0  0  0  0  0  0  0  0  0  0  0
   42.1727   15.2598  -12.3929 C   0  0  0  0  0  0  0  0  0  0  0  0
   41.7047   16.2677  -10.2209 C   0  0  0  0  0  0  0  0  0  0  0  0
   40.5872   15.6254   -9.4015 C   0  0  0  0  0  0  0  0  0  0  0  0
   39.3335   16.4172   -9.4542 C   0  0  0  0  0  0  0  0  0  0  0  0
   38.0901   15.6168   -9.8410 C   0  0  0  0  0  0  0  0  0  0  0  0
   37.4180   16.1694  -11.0393 C   0  0  0  0  0  0  0  0  0  0  0  0
   37.0302   15.2696  -12.1424 C   0  0  0  0  0  0  0  0  0  0  0  0
   38.8035   14.7991  -13.8168 C   0  0  0  0  0  0  0  0  0  0  0  0
   38.0018   14.2865  -12.6688 C   0  0  0  0  0  0  0  0  0  0  0  0
 27 28  1  0  0  0
 28 26  1  0  0  0
 26 25  1  0  0  0
 25 24  1  0  0  0
 24 23  1  0  0  0
 23 22  1  0  0  0
 22 21  1  0  0  0
 21 19  1  0  0  0
 19 20  2  0  0  0
 20 18  1  0  0  0
 18 17  1  0  0  0
 17 16  1  0  0  0
 16  1  1  0  0  0
  1  2  1  0  0  0
  2  3  1  0  0  0
  3  4  1  0  0  0
  4  5  1  0  0  0
  5  6  2  0  0  0
  5  7  1  0  0  0
  7  8  2  0  0  0
  8  9  1  0  0  0
  9 10  2  0  0  0
 10 11  1  0  0  0
 11 12  2  0  0  0
 12 13  1  0  0  0
 13 14  2  0  0  0
 14 15  1  0  0  0
 15  7  1  0  0  0
 14  9  1  0  0  0
M  END
> <minimizedAffinity>
-6.00846

> <CNNscore>
0.1894529611

> <CNNaffinity>
6.6442084312

> <CNN_VS>
1.2587649822

> <CNNaffinity_variance>
0.0913073868

$$$$
[H]/C(=C(\[H])C([H])([H])C([H])([H])C([H])([H])C([H])([H])C([H])([H])C([H])([H])C([H])([H])C([H])([H])[H])C([H])([H])C([H])([H])C([H])([H])C([H])([H])C([H])([H])C([H])([H])C([H])([H])C(=O)c1nc2c([H])c([H])c([H])nc2o1


 28 29  0  0  0  0  0  0  0  0999 V2000
   37.3423   12.8708  -13.1459 C   0  0  0  0  0  0  0  0  0  0  0  0
   37.3005   14.3162  -13.0068 C   0  0  0  0  0  0  0  0  0  0  0  0
   36.4738   15.0377  -12.0416 C   0  0  0  0  0  0  0  0  0  0  0  0
   37.0210   15.2788  -10.6712 C   0  0  0  0  0  0  0  0  0  0  0  0
   37.8872   16.5157  -10.6701 C   0  0  0  0  0  0  0  0  0  0  0  0
   37.3358   17.6286  -10.5462 O   0  0  0  0  0  0  0  0  0  0  0  0
   39.3133   16.4189  -10.8087 C   0  0  0  0  0  0  0  0  0  0  0  0
   40.1996   16.2757   -9.7919 N   0  0  0  0  0  0  0  0  0  0  0  0
   41.4508   16.2193  -10.2847 C   0  0  0  0  0  0  0  0  0  0  0  0
   42.7115   16.0862   -9.7717 C   0  0  0  0  0  0  0  0  0  0  0  0
   43.7937   16.0688  -10.6143 C   0  0  0  0  0  0  0  0  0  0  0  0
   43.5844   16.1872  -11.9754 C   0  0  0  0  0  0  0  0  0  0  0  0
   42.3355   16.3201  -12.4982 N   0  0  0  0  0  0  0  0  0  0  0  0
   41.2841   16.3358  -11.6640 C   0  0  0  0  0  0  0  0  0  0  0  0
   39.9983   16.4518  -11.9261 O   0  0  0  0  0  0  0  0  0  0  0  0
   38.2106   12.1898  -14.1219 C   0  0  0  0  0  0  0  0  0  0  0  0
   38.8326   13.0758  -15.1455 C   0  0  0  0  0  0  0  0  0  0  0  0
   40.2136   12.6360  -15.6082 C   0  0  0  0  0  0  0  0  0  0  0  0
   40.1627   12.3435  -18.0251 C   0  0  0  0  0  0  0  0  0  0  0  0
   40.4229   13.0977  -16.9859 C   0  0  0  0  0  0  0  0  0  0  0  0
   39.6489   10.9943  -17.9498 C   0  0  0  0  0  0  0  0  0  0  0  0
   38.2104   10.8733  -18.4485 C   0  0  0  0  0  0  0  0  0  0  0  0
   37.2558   10.6298  -17.3389 C   0  0  0  0  0  0  0  0  0  0  0  0
   35.9169   11.3535  -17.4798 C   0  0  0  0  0  0  0  0  0  0  0  0
   34.8280   10.6646  -16.7499 C   0  0  0  0  0  0  0  0  0  0  0  0
   33.9840   11.4228  -15.8067 C   0  0  0  0  0  0  0  0  0  0  0  0
   33.5789   13.2272  -14.1485 C   0  0  0  0  0  0  0  0  0  0  0  0
   34.5667   12.5350  -15.0252 C   0  0  0  0  0  0  0  0  0  0  0  0
 27 28  1  0  0  0
 28 26  1  0  0  0
 26 25  1  0  0  0
 25 24  1  0  0  0
 24 23  1  0  0  0
 23 22  1  0  0  0
 22 21  1  0  0  0
 21 19  1  0  0  0
 19 20  2  0  0  0
 20 18  1  0  0  0
 18 17  1  0  0  0
 17 16  1  0  0  0
 16  1  1  0  0  0
  1  2  1  0  0  0
  2  3  1  0  0  0
  3  4  1  0  0  0
  4  5  1  0  0  0
  5  6  2  0  0  0
  5  7  1  0  0  0
  7  8  2  0  0  0
  8  9  1  0  0  0
  9 10  2  0  0  0
 10 11  1  0  0  0
 11 12  2  0  0  0
 12 13  1  0  0  0
 13 14  2  0  0  0
 14 15  1  0  0  0
 15  7  1  0  0  0
 14  9  1  0  0  0
M  END
> <minimizedAffinity>
-6.29676

> <CNNscore>
0.1812174171

> <CNNaffinity>
6.2092332840

> <CNN_VS>
1.1252212524

> <CNNaffinity_variance>
0.4810637534

$$$$
[H]c1c([H])c([H])c(C([H])([H])C([H])([H])C([H])([H])[H])c(OC([H])(C2=NC([H])([H])C([H])([H])N2[H])C([H])([H])[H])c1[H]


 18 19  0  0  0  0  0  0  0  0999 V2000
   38.0134   12.2857  -15.7544 C   0  0  0  0  0  0  0  0  0  0  0  0
   39.0317   11.6305  -16.4101 C   0  0  0  0  0  0  0  0  0  0  0  0
   38.7956   10.7789  -17.4686 C   0  0  0  0  0  0  0  0  0  0  0  0
   37.5079   10.5555  -17.9092 C   0  0  0  0  0  0  0  0  0  0  0  0
   36.4749   11.2019  -17.2665 C   0  0  0  0  0  0  0  0  0  0  0  0
   36.7095   12.0523  -16.2093 C   0  0  0  0  0  0  0  0  0  0  0  0
   38.2225   13.1935  -14.6229 C   0  0  0  0  0  0  0  0  0  0  0  0
   39.7246   14.9020  -13.6062 C   0  0  0  0  0  0  0  0  0  0  0  0
   39.6597   13.6550  -14.4968 C   0  0  0  0  0  0  0  0  0  0  0  0
   35.7153   12.7077  -15.5516 O   0  0  0  0  0  0  0  0  0  0  0  0
   34.8124   12.2159  -14.6286 C   0  0  0  0  0  0  0  0  0  0  0  0
   33.6442   11.4993  -15.2291 C   0  0  0  0  0  0  0  0  0  0  0  0
   34.2991   13.3045  -13.7133 C   0  0  0  0  0  0  0  0  0  0  0  0
   35.0609   13.9310  -12.8958 N   0  0  0  0  0  0  0  0  0  0  0  0
   34.3203   14.9054  -12.1522 C   0  0  0  0  0  0  0  0  0  0  0  0
   32.8686   14.6151  -12.4601 C   0  0  0  0  0  0  0  0  0  0  0  0
   32.9692   13.7731  -13.6242 N   0  0  0  0  0  0  0  0  0  0  0  0
   32.1821   13.5421  -14.3013 H   0  0  0  0  0  0  0  0  0  0  0  0
  8  9  1  0  0  0
  9  7  1  0  0  0
  7  1  1  0  0  0
  1  2  2  0  0  0
  2  3  1  0  0  0
  3  4  2  0  0  0
  4  5  1  0  0  0
  5  6  2  0  0  0
  6 10  1  0  0  0
 10 11  1  0  0  0
 11 12  1  0  0  0
 11 13  1  0  0  0
 13 14  2  0  0  0
 14 15  1  0  0  0
 15 16  1  0  0  0
 16 17  1  0  0  0
  6  1  1  0  0  0
 17 13  1  0  0  0
 17 18  1  0  0  0
M  END
> <minimizedAffinity>
-6.88253

> <CNNscore>
0.7668217421

> <CNNaffinity>
5.6265244484

> <CNN_VS>
4.3145413399

> <CNNaffinity_variance>
0.1702317148

$$$$
[H]c1c([H])c([H])c(C([H])([H])C([H])([H])C([H])([H])[H])c(OC([H])(C2=NC([H])([H])C([H])([H])N2[H])C([H])([H])[H])c1[H]


 18 19  0  0  0  0  0  0  0  0999 V2000
   38.1791   11.3839  -16.8862 C   0  0  0  0  0  0  0  0  0  0  0  0
   37.4087   10.9212  -17.9296 C   0  0  0  0  0  0  0  0  0  0  0  0
   37.9448   10.6314  -19.1666 C   0  0  0  0  0  0  0  0  0  0  0  0
   39.2941   10.7998  -19.3979 C   0  0  0  0  0  0  0  0  0  0  0  0
   40.0822   11.2616  -18.3666 C   0  0  0  0  0  0  0  0  0  0  0  0
   39.5479   11.5515  -17.1312 C   0  0  0  0  0  0  0  0  0  0  0  0
   37.6467   11.7081  -15.5598 C   0  0  0  0  0  0  0  0  0  0  0  0
   35.7671   12.6400  -14.2152 C   0  0  0  0  0  0  0  0  0  0  0  0
   36.1903   12.1228  -15.5958 C   0  0  0  0  0  0  0  0  0  0  0  0
   40.2950   12.0084  -16.0901 O   0  0  0  0  0  0  0  0  0  0  0  0
   41.0058   13.1882  -15.9823 C   0  0  0  0  0  0  0  0  0  0  0  0
   40.6784   14.2042  -17.0309 C   0  0  0  0  0  0  0  0  0  0  0  0
   42.4981   12.9447  -15.9880 C   0  0  0  0  0  0  0  0  0  0  0  0
   43.2827   13.4652  -15.1193 N   0  0  0  0  0  0  0  0  0  0  0  0
   44.6394   13.0728  -15.3565 C   0  0  0  0  0  0  0  0  0  0  0  0
   44.6231   12.3986  -16.7099 C   0  0  0  0  0  0  0  0  0  0  0  0
   43.2184   12.1471  -16.9051 N   0  0  0  0  0  0  0  0  0  0  0  0
   42.7935   11.4782  -17.6145 H   0  0  0  0  0  0  0  0  0  0  0  0
  8  9  1  0  0  0
  9  7  1  0  0  0
  7  1  1  0  0  0
  1  2  2  0  0  0
  2  3  1  0  0  0
  3  4  2  0  0  0
  4  5  1  0  0  0
  5  6  2  0  0  0
  6 10  1  0  0  0
 10 11  1  0  0  0
 11 12  1  0  0  0
 11 13  1  0  0  0
 13 14  2  0  0  0
 14 15  1  0  0  0
 15 16  1  0  0  0
 16 17  1  0  0  0
  6  1  1  0  0  0
 17 13  1  0  0  0
 17 18  1  0  0  0
M  END
> <minimizedAffinity>
-6.19970

> <CNNscore>
0.6429771185

> <CNNaffinity>
5.5863027573

> <CNN_VS>
3.5918648243

> <CNNaffinity_variance>
0.0176957678

$$$$
[H]c1c([H])c([H])c(C([H])([H])C([H])([H])C([H])([H])[H])c(OC([H])(C2=NC([H])([H])C([H])([H])N2[H])C([H])([H])[H])c1[H]


 18 19  0  0  0  0  0  0  0  0999 V2000
   38.4686   12.1096  -16.3363 C   0  0  0  0  0  0  0  0  0  0  0  0
   38.5848   11.1430  -17.3102 C   0  0  0  0  0  0  0  0  0  0  0  0
   37.4846   10.5304  -17.8722 C   0  0  0  0  0  0  0  0  0  0  0  0
   36.2122   10.8757  -17.4672 C   0  0  0  0  0  0  0  0  0  0  0  0
   36.0746   11.8411  -16.4940 C   0  0  0  0  0  0  0  0  0  0  0  0
   37.1724   12.4532  -15.9319 C   0  0  0  0  0  0  0  0  0  0  0  0
   39.6123   12.7796  -15.7109 C   0  0  0  0  0  0  0  0  0  0  0  0
   42.0822   12.9132  -16.0118 C   0  0  0  0  0  0  0  0  0  0  0  0
   40.7206   13.0928  -16.6947 C   0  0  0  0  0  0  0  0  0  0  0  0
   37.0749   13.4101  -14.9700 O   0  0  0  0  0  0  0  0  0  0  0  0
   36.8843   13.2590  -13.6098 C   0  0  0  0  0  0  0  0  0  0  0  0
   37.0755   11.8612  -13.1113 C   0  0  0  0  0  0  0  0  0  0  0  0
   35.5204   13.7487  -13.1783 C   0  0  0  0  0  0  0  0  0  0  0  0
   34.4363   13.3180  -13.7078 N   0  0  0  0  0  0  0  0  0  0  0  0
   33.2939   13.9467  -13.1156 C   0  0  0  0  0  0  0  0  0  0  0  0
   33.8558   15.0674  -12.2702 C   0  0  0  0  0  0  0  0  0  0  0  0
   35.2471   14.7070  -12.1767 N   0  0  0  0  0  0  0  0  0  0  0  0
   35.9494   15.0924  -11.4771 H   0  0  0  0  0  0  0  0  0  0  0  0
  8  9  1  0  0  0
  9  7  1  0  0  0
  7  1  1  0  0  0
  1  2  2  0  0  0
  2  3  1  0  0  0
  3  4  2  0  0  0
  4  5  1  0  0  0
  5  6  2  0  0  0
  6 10  1  0  0  0
 10 11  1  0  0  0
 11 12  1  0  0  0
 11 13  1  0  0  0
 13 14  2  0  0  0
 14 15  1  0  0  0
 15 16  1  0  0  0
 16 17  1  0  0  0
  6  1  1  0  0  0
 17 13  1  0  0  0
 17 18  1  0  0  0
M  END
> <minimizedAffinity>
-6.63924

> <CNNscore>
0.6247568727

> <CNNaffinity>
5.5359368324

> <CNN_VS>
3.4586145878

> <CNNaffinity_variance>
0.1159311980

$$$$
[H]c1c([H])c([H])c(C([H])([H])C([H])([H])C([H])([H])[H])c(OC([H])(C2=NC([H])([H])C([H])([H])N2[H])C([H])([H])[H])c1[H]


 18 19  0  0  0  0  0  0  0  0999 V2000
   37.1188   11.8738  -16.2795 C   0  0  0  0  0  0  0  0  0  0  0  0
   37.8520   11.1801  -17.2163 C   0  0  0  0  0  0  0  0  0  0  0  0
   39.2257   11.2744  -17.2908 C   0  0  0  0  0  0  0  0  0  0  0  0
   39.9174   12.0816  -16.4119 C   0  0  0  0  0  0  0  0  0  0  0  0
   39.2019   12.7839  -15.4669 C   0  0  0  0  0  0  0  0  0  0  0  0
   37.8302   12.6906  -15.3917 C   0  0  0  0  0  0  0  0  0  0  0  0
   35.6587   11.8046  -16.1715 C   0  0  0  0  0  0  0  0  0  0  0  0
   33.5470   10.7582  -16.9806 C   0  0  0  0  0  0  0  0  0  0  0  0
   35.0713   10.6105  -16.8949 C   0  0  0  0  0  0  0  0  0  0  0  0
   37.0914   13.3681  -14.4721 O   0  0  0  0  0  0  0  0  0  0  0  0
   37.0286   13.1874  -13.1037 C   0  0  0  0  0  0  0  0  0  0  0  0
   35.9098   12.3045  -12.6483 C   0  0  0  0  0  0  0  0  0  0  0  0
   36.9397   14.5060  -12.3689 C   0  0  0  0  0  0  0  0  0  0  0  0
   37.6977   14.7922  -11.3766 N   0  0  0  0  0  0  0  0  0  0  0  0
   37.4025   16.0983  -10.8687 C   0  0  0  0  0  0  0  0  0  0  0  0
   36.1229   16.5098  -11.5614 C   0  0  0  0  0  0  0  0  0  0  0  0
   36.0526   15.5691  -12.6498 N   0  0  0  0  0  0  0  0  0  0  0  0
   35.4411   15.6561  -13.5156 H   0  0  0  0  0  0  0  0  0  0  0  0
  8  9  1  0  0  0
  9  7  1  0  0  0
  7  1  1  0  0  0
  1  2  2  0  0  0
  2  3  1  0  0  0
  3  4  2  0  0  0
  4  5  1  0  0  0
  5  6  2  0  0  0
  6 10  1  0  0  0
 10 11  1  0  0  0
 11 12  1  0  0  0
 11 13  1  0  0  0
 13 14  2  0  0  0
 14 15  1  0  0  0
 15 16  1  0  0  0
 16 17  1  0  0  0
  6  1  1  0  0  0
 17 13  1  0  0  0
 17 18  1  0  0  0
M  END
> <minimizedAffinity>
-6.85819

> <CNNscore>
0.5651177168

> <CNNaffinity>
5.2159528732

> <CNN_VS>
2.9476273060

> <CNNaffinity_variance>
0.1728826463

$$$$
[H]c1c([H])c([H])c(C([H])([H])C([H])([H])C([H])([H])[H])c(OC([H])(C2=NC([H])([H])C([H])([H])N2[H])C([H])([H])[H])c1[H]


 18 19  0  0  0  0  0  0  0  0999 V2000
   40.4583   12.6886  -16.4206 C   0  0  0  0  0  0  0  0  0  0  0  0
   40.6162   12.0742  -17.6429 C   0  0  0  0  0  0  0  0  0  0  0  0
   39.6634   11.2267  -18.1677 C   0  0  0  0  0  0  0  0  0  0  0  0
   38.5027   10.9658  -17.4698 C   0  0  0  0  0  0  0  0  0  0  0  0
   38.3256   11.5711  -16.2448 C   0  0  0  0  0  0  0  0  0  0  0  0
   39.2764   12.4173  -15.7198 C   0  0  0  0  0  0  0  0  0  0  0  0
   41.4490   13.5906  -15.8265 C   0  0  0  0  0  0  0  0  0  0  0  0
   43.8928   13.2289  -16.1518 C   0  0  0  0  0  0  0  0  0  0  0  0
   42.6692   12.8614  -15.3032 C   0  0  0  0  0  0  0  0  0  0  0  0
   39.1354   13.0326  -14.5148 O   0  0  0  0  0  0  0  0  0  0  0  0
   38.4344   14.1815  -14.2024 C   0  0  0  0  0  0  0  0  0  0  0  0
   39.0313   14.9859  -13.0908 C   0  0  0  0  0  0  0  0  0  0  0  0
   36.9907   13.8822  -13.8672 C   0  0  0  0  0  0  0  0  0  0  0  0
   36.6497   12.9156  -13.0986 N   0  0  0  0  0  0  0  0  0  0  0  0
   35.2263   12.8574  -12.9521 C   0  0  0  0  0  0  0  0  0  0  0  0
   34.6848   13.8196  -13.9853 C   0  0  0  0  0  0  0  0  0  0  0  0
   35.8553   14.5863  -14.3268 N   0  0  0  0  0  0  0  0  0  0  0  0
   35.8670   15.5201  -14.8358 H   0  0  0  0  0  0  0  0  0  0  0  0
  8  9  1  0  0  0
  9  7  1  0  0  0
  7  1  1  0  0  0
  1  2  2  0  0  0
  2  3  1  0  0  0
  3  4  2  0  0  0
  4  5  1  0  0  0
  5  6  2  0  0  0
  6 10  1  0  0  0
 10 11  1  0  0  0
 11 12  1  0  0  0
 11 13  1  0  0  0
 13 14  2  0  0  0
 14 15  1  0  0  0
 15 16  1  0  0  0
 16 17  1  0  0  0
  6  1  1  0  0  0
 17 13  1  0  0  0
 17 18  1  0  0  0
M  END
> <minimizedAffinity>
-6.49717

> <CNNscore>
0.5277755857

> <CNNaffinity>
5.3836517334

> <CNN_VS>
2.8413598537

> <CNNaffinity_variance>
0.0680284724

$$$$
[H]c1c([H])c([H])c(C([H])([H])C([H])([H])C([H])([H])[H])c(OC([H])(C2=NC([H])([H])C([H])([H])N2[H])C([H])([H])[H])c1[H]


 18 19  0  0  0  0  0  0  0  0999 V2000
   37.3020   12.1753  -15.0703 C   0  0  0  0  0  0  0  0  0  0  0  0
   35.9250   12.1545  -15.0717 C   0  0  0  0  0  0  0  0  0  0  0  0
   35.1992   11.6333  -16.1219 C   0  0  0  0  0  0  0  0  0  0  0  0
   35.8445   11.1075  -17.2217 C   0  0  0  0  0  0  0  0  0  0  0  0
   37.2221   11.1187  -17.2395 C   0  0  0  0  0  0  0  0  0  0  0  0
   37.9478   11.6391  -16.1915 C   0  0  0  0  0  0  0  0  0  0  0  0
   38.1088   12.7248  -13.9771 C   0  0  0  0  0  0  0  0  0  0  0  0
   37.3216   14.8247  -12.8910 C   0  0  0  0  0  0  0  0  0  0  0  0
   38.1912   14.2369  -14.0094 C   0  0  0  0  0  0  0  0  0  0  0  0
   39.3078   11.6663  -16.1741 O   0  0  0  0  0  0  0  0  0  0  0  0
   40.1736   12.3629  -16.9951 C   0  0  0  0  0  0  0  0  0  0  0  0
   40.4986   11.6688  -18.2802 C   0  0  0  0  0  0  0  0  0  0  0  0
   41.4642   12.7048  -16.2853 C   0  0  0  0  0  0  0  0  0  0  0  0
   41.4875   13.2581  -15.1301 N   0  0  0  0  0  0  0  0  0  0  0  0
   42.8346   13.4708  -14.6929 C   0  0  0  0  0  0  0  0  0  0  0  0
   43.6917   13.1829  -15.9049 C   0  0  0  0  0  0  0  0  0  0  0  0
   42.7744   12.4781  -16.7630 N   0  0  0  0  0  0  0  0  0  0  0  0
   43.0341   11.8885  -17.6093 H   0  0  0  0  0  0  0  0  0  0  0  0
  8  9  1  0  0  0
  9  7  1  0  0  0
  7  1  1  0  0  0
  1  2  2  0  0  0
  2  3  1  0  0  0
  3  4  2  0  0  0
  4  5  1  0  0  0
  5  6  2  0  0  0
  6 10  1  0  0  0
 10 11  1  0  0  0
 11 12  1  0  0  0
 11 13  1  0  0  0
 13 14  2  0  0  0
 14 15  1  0  0  0
 15 16  1  0  0  0
 16 17  1  0  0  0
  6  1  1  0  0  0
 17 13  1  0  0  0
 17 18  1  0  0  0
M  END
> <minimizedAffinity>
-6.72570

> <CNNscore>
0.5258270502

> <CNNaffinity>
5.4786000252

> <CNN_VS>
2.8807961941

> <CNNaffinity_variance>
0.0507352725

$$$$
[H]c1c([H])c([H])c(C([H])([H])C([H])([H])C([H])([H])[H])c(OC([H])(C2=NC([H])([H])C([H])([H])N2[H])C([H])([H])[H])c1[H]


 18 19  0  0  0  0  0  0  0  0999 V2000
   39.7917   12.7039  -15.7556 C   0  0  0  0  0  0  0  0  0  0  0  0
   41.0263   13.0546  -15.2564 C   0  0  0  0  0  0  0  0  0  0  0  0
   41.1734   13.9749  -14.2401 C   0  0  0  0  0  0  0  0  0  0  0  0
   40.0666   14.5815  -13.6839 C   0  0  0  0  0  0  0  0  0  0  0  0
   38.8222   14.2440  -14.1693 C   0  0  0  0  0  0  0  0  0  0  0  0
   38.6742   13.3254  -15.1842 C   0  0  0  0  0  0  0  0  0  0  0  0
   39.5940   11.7352  -16.8375 C   0  0  0  0  0  0  0  0  0  0  0  0
   39.8280   11.2226  -19.2647 C   0  0  0  0  0  0  0  0  0  0  0  0
   40.2821   12.1420  -18.1242 C   0  0  0  0  0  0  0  0  0  0  0  0
   37.4622   12.9674  -15.6877 O   0  0  0  0  0  0  0  0  0  0  0  0
   36.5522   12.0520  -15.1947 C   0  0  0  0  0  0  0  0  0  0  0  0
   35.9084   11.1971  -16.2404 C   0  0  0  0  0  0  0  0  0  0  0  0
   35.4703   12.7227  -14.3788 C   0  0  0  0  0  0  0  0  0  0  0  0
   34.2905   12.9245  -14.8355 N   0  0  0  0  0  0  0  0  0  0  0  0
   33.4694   13.5753  -13.8592 C   0  0  0  0  0  0  0  0  0  0  0  0
   34.4209   13.9943  -12.7612 C   0  0  0  0  0  0  0  0  0  0  0  0
   35.5889   13.2047  -13.0561 N   0  0  0  0  0  0  0  0  0  0  0  0
   36.4009   13.0151  -12.3958 H   0  0  0  0  0  0  0  0  0  0  0  0
  8  9  1  0  0  0
  9  7  1  0  0  0
  7  1  1  0  0  0
  1  2  2  0  0  0
  2  3  1  0  0  0
  3  4  2  0  0  0
  4  5  1  0  0  0
  5  6  2  0  0  0
  6 10  1  0  0  0
 10 11  1  0  0  0
 11 12  1  0  0  0
 11 13  1  0  0  0
 13 14  2  0  0  0
 14 15  1  0  0  0
 15 16  1  0  0  0
 16 17  1  0  0  0
  6  1  1  0  0  0
 17 13  1  0  0  0
 17 18  1  0  0  0
M  END
> <minimizedAffinity>
-6.10669

> <CNNscore>
0.5221993327

> <CNNaffinity>
5.5476016998

> <CNN_VS>
2.8969538212

> <CNNaffinity_variance>
0.0414856225

$$$$
[H]c1c([H])c([H])c(C([H])([H])C([H])([H])C([H])([H])[H])c(OC([H])(C2=NC([H])([H])C([H])([H])N2[H])C([H])([H])[H])c1[H]


 18 19  0  0  0  0  0  0  0  0999 V2000
   37.0513   11.6909  -16.0987 C   0  0  0  0  0  0  0  0  0  0  0  0
   36.2384   11.0208  -16.9857 C   0  0  0  0  0  0  0  0  0  0  0  0
   34.8708   10.9546  -16.8229 C   0  0  0  0  0  0  0  0  0  0  0  0
   34.2667   11.5698  -15.7463 C   0  0  0  0  0  0  0  0  0  0  0  0
   35.0626   12.2456  -14.8475 C   0  0  0  0  0  0  0  0  0  0  0  0
   36.4283   12.3123  -15.0090 C   0  0  0  0  0  0  0  0  0  0  0  0
   38.5080   11.7796  -16.2336 C   0  0  0  0  0  0  0  0  0  0  0  0
   40.2689   11.7199  -17.9956 C   0  0  0  0  0  0  0  0  0  0  0  0
   39.0365   11.0073  -17.4246 C   0  0  0  0  0  0  0  0  0  0  0  0
   37.2450   12.9706  -14.1429 O   0  0  0  0  0  0  0  0  0  0  0  0
   37.4232   14.3310  -13.9799 C   0  0  0  0  0  0  0  0  0  0  0  0
   38.8521   14.7742  -14.0084 C   0  0  0  0  0  0  0  0  0  0  0  0
   36.7829   14.8303  -12.7044 C   0  0  0  0  0  0  0  0  0  0  0  0
   36.5911   14.0725  -11.6894 N   0  0  0  0  0  0  0  0  0  0  0  0
   35.9694   14.7967  -10.6217 C   0  0  0  0  0  0  0  0  0  0  0  0
   35.5549   16.1171  -11.2310 C   0  0  0  0  0  0  0  0  0  0  0  0
   36.3217   16.1412  -12.4500 N   0  0  0  0  0  0  0  0  0  0  0  0
   36.5103   16.9950  -13.0557 H   0  0  0  0  0  0  0  0  0  0  0  0
  8  9  1  0  0  0
  9  7  1  0  0  0
  7  1  1  0  0  0
  1  2  2  0  0  0
  2  3  1  0  0  0
  3  4  2  0  0  0
  4  5  1  0  0  0
  5  6  2  0  0  0
  6 10  1  0  0  0
 10 11  1  0  0  0
 11 12  1  0  0  0
 11 13  1  0  0  0
 13 14  2  0  0  0
 14 15  1  0  0  0
 15 16  1  0  0  0
 16 17  1  0  0  0
  6  1  1  0  0  0
 17 13  1  0  0  0
 17 18  1  0  0  0
M  END
> <minimizedAffinity>
-6.91735

> <CNNscore>
0.5094206929

> <CNNaffinity>
5.1617612839

> <CNN_VS>
2.6295080185

> <CNNaffinity_variance>
0.2700882554

$$$$
[H]c1c([H])c([H])c(C([H])([H])C([H])([H])C([H])([H])[H])c(OC([H])(C2=NC([H])([H])C([H])([H])N2[H])C([H])([H])[H])c1[H]


 18 19  0  0  0  0  0  0  0  0999 V2000
   36.2157   12.5116  -13.8808 C   0  0  0  0  0  0  0  0  0  0  0  0
   35.0573   12.9610  -13.2871 C   0  0  0  0  0  0  0  0  0  0  0  0
   33.8207   12.8032  -13.8764 C   0  0  0  0  0  0  0  0  0  0  0  0
   33.7070   12.1783  -15.1008 C   0  0  0  0  0  0  0  0  0  0  0  0
   34.8545   11.7212  -15.7112 C   0  0  0  0  0  0  0  0  0  0  0  0
   36.0898   11.8785  -15.1237 C   0  0  0  0  0  0  0  0  0  0  0  0
   37.5482   12.6650  -13.2899 C   0  0  0  0  0  0  0  0  0  0  0  0
   38.0862   14.8230  -12.1664 C   0  0  0  0  0  0  0  0  0  0  0  0
   38.1249   14.0511  -13.4912 C   0  0  0  0  0  0  0  0  0  0  0  0
   37.2431   11.4397  -15.6962 O   0  0  0  0  0  0  0  0  0  0  0  0
   37.6959   11.6220  -16.9889 C   0  0  0  0  0  0  0  0  0  0  0  0
   37.3476   10.5099  -17.9275 C   0  0  0  0  0  0  0  0  0  0  0  0
   39.1906   11.8464  -17.0315 C   0  0  0  0  0  0  0  0  0  0  0  0
   39.7908   12.6338  -16.2185 N   0  0  0  0  0  0  0  0  0  0  0  0
   41.1986   12.6611  -16.4798 C   0  0  0  0  0  0  0  0  0  0  0  0
   41.3690   11.9332  -17.7942 C   0  0  0  0  0  0  0  0  0  0  0  0
   40.1066   11.2529  -17.9285 N   0  0  0  0  0  0  0  0  0  0  0  0
   39.8968   10.4442  -18.5868 H   0  0  0  0  0  0  0  0  0  0  0  0
  8  9  1  0  0  0
  9  7  1  0  0  0
  7  1  1  0  0  0
  1  2  2  0  0  0
  2  3  1  0  0  0
  3  4  2  0  0  0
  4  5  1  0  0  0
  5  6  2  0  0  0
  6 10  1  0  0  0
 10 11  1  0  0  0
 11 12  1  0  0  0
 11 13  1  0  0  0
 13 14  2  0  0  0
 14 15  1  0  0  0
 15 16  1  0  0  0
 16 17  1  0  0  0
  6  1  1  0  0  0
 17 13  1  0  0  0
 17 18  1  0  0  0
M  END
> <minimizedAffinity>
-5.80603

> <CNNscore>
0.4856249690

> <CNNaffinity>
5.7100572586

> <CNN_VS>
2.7729463577

> <CNNaffinity_variance>
0.0580994003

$$$$
[H]C1=C2C([H])([H])C([H])([H])C([H])([H])C([H])([H])[C@]2([H])/C(=C(\[H])C([H])([H])C2([H])C([H])([H])C([H])([H])C(C([H])([H])[H])(C([H])([H])[H])[N+]2(C([H])([H])[H])C([H])([H])[H])[C@]2([H])[C@@]1([H])C(=O)O[C@@]2([H])C([H])([H])[H]


 26 29  0  0  0  0  0  0  0  0999 V2000
   37.7975   20.4616   -8.2179 C   0  0  0  0  0  0  0  0  0  0  0  0
   37.0399   19.1460   -7.8816 C   0  0  0  0  0  0  0  0  0  0  0  0
   36.3495   19.4554   -6.6975 O   0  0  0  0  0  0  0  0  0  0  0  0
   37.3365   19.4509   -5.7141 C   0  0  0  0  0  0  0  0  0  0  0  0
   37.1487   19.7975   -4.5264 O   0  0  0  0  0  0  0  0  0  0  0  0
   38.6044   18.9757   -6.3170 C   0  0  0  0  0  0  0  0  0  0  0  0
   39.5058   18.2696   -5.4488 C   0  0  0  0  0  0  0  0  0  0  0  0
   39.7134   16.9971   -5.4361 C   0  0  0  0  0  0  0  0  0  0  0  0
   40.6663   16.3468   -4.5051 C   0  0  0  0  0  0  0  0  0  0  0  0
   41.2538   15.1456   -5.2340 C   0  0  0  0  0  0  0  0  0  0  0  0
   41.3193   15.3608   -6.7120 C   0  0  0  0  0  0  0  0  0  0  0  0
   40.0232   15.6518   -7.3858 C   0  0  0  0  0  0  0  0  0  0  0  0
   39.0015   16.1310   -6.3573 C   0  0  0  0  0  0  0  0  0  0  0  0
   37.8579   16.8108   -7.1076 C   0  0  0  0  0  0  0  0  0  0  0  0
   36.8771   15.9908   -7.3274 C   0  0  0  0  0  0  0  0  0  0  0  0
   38.0212   18.1537   -7.4985 C   0  0  0  0  0  0  0  0  0  0  0  0
   35.6426   16.2945   -8.0026 C   0  0  0  0  0  0  0  0  0  0  0  0
   34.5866   15.2839   -7.4428 C   0  0  0  0  0  0  0  0  0  0  0  0
   35.1805   14.5234   -6.2898 C   0  0  0  0  0  0  0  0  0  0  0  0
   34.5105   15.2186   -5.1039 C   0  0  0  0  0  0  0  0  0  0  0  0
   33.1141   15.4124   -5.6751 C   0  0  0  0  0  0  0  0  0  0  0  0
   32.4609   14.0492   -5.7151 C   0  0  0  0  0  0  0  0  0  0  0  0
   32.2703   16.3278   -4.8488 C   0  0  0  0  0  0  0  0  0  0  0  0
   33.4055   15.9287   -6.9955 N   0  0  0  0  0  0  0  0  0  0  0  0
   32.3026   15.4633   -7.8544 C   0  0  0  0  0  0  0  0  0  0  0  0
   33.3913   17.3570   -7.0555 C   0  0  0  0  0  0  0  0  0  0  0  0
  1  2  1  0  0  0
  2  3  1  0  0  0
  3  4  1  0  0  0
  4  5  2  0  0  0
  4  6  1  0  0  0
  6  7  1  0  0  0
  7  8  2  0  0  0
  8  9  1  0  0  0
  9 10  1  0  0  0
 10 11  1  0  0  0
 11 12  1  0  0  0
 12 13  1  0  0  0
 13 14  1  0  0  0
 14 15  2  0  0  0
 15 17  1  0  0  0
 17 18  1  0  0  0
 18 19  1  0  0  0
 19 20  1  0  0  0
 20 21  1  0  0  0
 21 22  1  0  0  0
 21 23  1  0  0  0
 21 24  1  0  0  0
 24 25  1  0  0  0
 24 26  1  0  0  0
 14 16  1  0  0  0
 16  2  1  0  0  0
 16  6  1  0  0  0
 13  8  1  0  0  0
 24 18  1  0  0  0
M  CHG 1  24   1
M  END
> <minimizedAffinity>
-5.27939

> <CNNscore>
0.4950118363

> <CNNaffinity>
5.2637262344

> <CNN_VS>
2.6056067944

> <CNNaffinity_variance>
0.0511398241

$$$$
[H]C1=C2C([H])([H])C([H])([H])C([H])([H])C([H])([H])[C@]2([H])/C(=C(\[H])C([H])([H])C2([H])C([H])([H])C([H])([H])C(C([H])([H])[H])(C([H])([H])[H])[N+]2(C([H])([H])[H])C([H])([H])[H])[C@]2([H])[C@@]1([H])C(=O)O[C@@]2([H])C([H])([H])[H]


 26 29  0  0  0  0  0  0  0  0999 V2000
   38.1915   18.3032   -7.9857 C   0  0  0  0  0  0  0  0  0  0  0  0
   37.6667   17.5608   -6.7243 C   0  0  0  0  0  0  0  0  0  0  0  0
   38.1897   18.3111   -5.6575 O   0  0  0  0  0  0  0  0  0  0  0  0
   39.5392   17.9659   -5.6249 C   0  0  0  0  0  0  0  0  0  0  0  0
   40.3875   18.5106   -4.8835 O   0  0  0  0  0  0  0  0  0  0  0  0
   39.7726   16.8725   -6.5979 C   0  0  0  0  0  0  0  0  0  0  0  0
   40.8214   15.9422   -6.2824 C   0  0  0  0  0  0  0  0  0  0  0  0
   40.6682   14.7375   -5.8494 C   0  0  0  0  0  0  0  0  0  0  0  0
   41.8089   13.8395   -5.5490 C   0  0  0  0  0  0  0  0  0  0  0  0
   41.3562   12.4206   -5.8668 C   0  0  0  0  0  0  0  0  0  0  0  0
   40.3439   12.3856   -6.9664 C   0  0  0  0  0  0  0  0  0  0  0  0
   39.0981   13.1669   -6.7298 C   0  0  0  0  0  0  0  0  0  0  0  0
   39.3369   14.2021   -5.6331 C   0  0  0  0  0  0  0  0  0  0  0  0
   38.2187   15.2396   -5.7101 C   0  0  0  0  0  0  0  0  0  0  0  0
   37.2533   14.9627   -4.8890 C   0  0  0  0  0  0  0  0  0  0  0  0
   38.3377   16.2808   -6.6507 C   0  0  0  0  0  0  0  0  0  0  0  0
   36.0479   15.7257   -4.6970 C   0  0  0  0  0  0  0  0  0  0  0  0
   35.0495   15.2365   -5.7987 C   0  0  0  0  0  0  0  0  0  0  0  0
   34.4320   13.9329   -5.3744 C   0  0  0  0  0  0  0  0  0  0  0  0
   33.0443   14.3969   -4.9298 C   0  0  0  0  0  0  0  0  0  0  0  0
   32.7632   15.4343   -6.0062 C   0  0  0  0  0  0  0  0  0  0  0  0
   32.5011   14.6784   -7.2894 C   0  0  0  0  0  0  0  0  0  0  0  0
   31.5749   16.2856   -5.6964 C   0  0  0  0  0  0  0  0  0  0  0  0
   34.0093   16.1698   -6.0384 N   0  0  0  0  0  0  0  0  0  0  0  0
   34.1559   16.6390   -7.4273 C   0  0  0  0  0  0  0  0  0  0  0  0
   33.9926   17.3385   -5.2151 C   0  0  0  0  0  0  0  0  0  0  0  0
  1  2  1  0  0  0
  2  3  1  0  0  0
  3  4  1  0  0  0
  4  5  2  0  0  0
  4  6  1  0  0  0
  6  7  1  0  0  0
  7  8  2  0  0  0
  8  9  1  0  0  0
  9 10  1  0  0  0
 10 11  1  0  0  0
 11 12  1  0  0  0
 12 13  1  0  0  0
 13 14  1  0  0  0
 14 15  2  0  0  0
 15 17  1  0  0  0
 17 18  1  0  0  0
 18 19  1  0  0  0
 19 20  1  0  0  0
 20 21  1  0  0  0
 21 22  1  0  0  0
 21 23  1  0  0  0
 21 24  1  0  0  0
 24 25  1  0  0  0
 24 26  1  0  0  0
 14 16  1  0  0  0
 16  2  1  0  0  0
 16  6  1  0  0  0
 13  8  1  0  0  0
 24 18  1  0  0  0
M  CHG 1  24   1
M  END
> <minimizedAffinity>
-5.28044

> <CNNscore>
0.4672366977

> <CNNaffinity>
5.2585663795

> <CNN_VS>
2.4569952488

> <CNNaffinity_variance>
0.0540221706

$$$$
[H]C1=C2C([H])([H])C([H])([H])C([H])([H])C([H])([H])[C@]2([H])/C(=C(\[H])C([H])([H])C2([H])C([H])([H])C([H])([H])C(C([H])([H])[H])(C([H])([H])[H])[N+]2(C([H])([H])[H])C([H])([H])[H])[C@]2([H])[C@@]1([H])C(=O)O[C@@]2([H])C([H])([H])[H]


 26 29  0  0  0  0  0  0  0  0999 V2000
   37.7477   20.0829   -8.2891 C   0  0  0  0  0  0  0  0  0  0  0  0
   36.6039   19.1600   -7.7814 C   0  0  0  0  0  0  0  0  0  0  0  0
   36.2514   19.7215   -6.5423 O   0  0  0  0  0  0  0  0  0  0  0  0
   37.2890   19.3497   -5.6900 C   0  0  0  0  0  0  0  0  0  0  0  0
   37.4113   19.7535   -4.5118 O   0  0  0  0  0  0  0  0  0  0  0  0
   38.1878   18.4201   -6.4145 C   0  0  0  0  0  0  0  0  0  0  0  0
   38.8665   17.4317   -5.6224 C   0  0  0  0  0  0  0  0  0  0  0  0
   38.5782   16.1767   -5.5572 C   0  0  0  0  0  0  0  0  0  0  0  0
   39.3337   15.2207   -4.7127 C   0  0  0  0  0  0  0  0  0  0  0  0
   39.3181   13.8791   -5.4332 C   0  0  0  0  0  0  0  0  0  0  0  0
   39.2558   14.0384   -6.9184 C   0  0  0  0  0  0  0  0  0  0  0  0
   38.0859   14.7961   -7.4435 C   0  0  0  0  0  0  0  0  0  0  0  0
   37.4726   15.6394   -6.3282 C   0  0  0  0  0  0  0  0  0  0  0  0
   36.5785   16.6973   -6.9719 C   0  0  0  0  0  0  0  0  0  0  0  0
   35.3406   16.3122   -7.0179 C   0  0  0  0  0  0  0  0  0  0  0  0
   37.1809   17.8719   -7.4620 C   0  0  0  0  0  0  0  0  0  0  0  0
   34.2317   17.0580   -7.5528 C   0  0  0  0  0  0  0  0  0  0  0  0
   33.2116   17.2148   -6.3762 C   0  0  0  0  0  0  0  0  0  0  0  0
   33.2636   18.6223   -5.8500 C   0  0  0  0  0  0  0  0  0  0  0  0
   31.9923   19.2115   -6.4624 C   0  0  0  0  0  0  0  0  0  0  0  0
   31.0554   18.0240   -6.3014 C   0  0  0  0  0  0  0  0  0  0  0  0
   30.7329   17.9133   -4.8281 C   0  0  0  0  0  0  0  0  0  0  0  0
   29.7802   18.1825   -7.0639 C   0  0  0  0  0  0  0  0  0  0  0  0
   31.8801   16.9325   -6.7739 N   0  0  0  0  0  0  0  0  0  0  0  0
   31.4406   15.7478   -6.0161 C   0  0  0  0  0  0  0  0  0  0  0  0
   31.6730   16.6298   -8.1557 C   0  0  0  0  0  0  0  0  0  0  0  0
  1  2  1  0  0  0
  2  3  1  0  0  0
  3  4  1  0  0  0
  4  5  2  0  0  0
  4  6  1  0  0  0
  6  7  1  0  0  0
  7  8  2  0  0  0
  8  9  1  0  0  0
  9 10  1  0  0  0
 10 11  1  0  0  0
 11 12  1  0  0  0
 12 13  1  0  0  0
 13 14  1  0  0  0
 14 15  2  0  0  0
 15 17  1  0  0  0
 17 18  1  0  0  0
 18 19  1  0  0  0
 19 20  1  0  0  0
 20 21  1  0  0  0
 21 22  1  0  0  0
 21 23  1  0  0  0
 21 24  1  0  0  0
 24 25  1  0  0  0
 24 26  1  0  0  0
 14 16  1  0  0  0
 16  2  1  0  0  0
 16  6  1  0  0  0
 13  8  1  0  0  0
 24 18  1  0  0  0
M  CHG 1  24   1
M  END
> <minimizedAffinity>
-5.29995

> <CNNscore>
0.4165248871

> <CNNaffinity>
5.3648843765

> <CNN_VS>
2.2346079350

> <CNNaffinity_variance>
0.0814072788

$$$$
[H]C1=C2C([H])([H])C([H])([H])C([H])([H])C([H])([H])[C@]2([H])/C(=C(\[H])C([H])([H])C2([H])C([H])([H])C([H])([H])C(C([H])([H])[H])(C([H])([H])[H])[N+]2(C([H])([H])[H])C([H])([H])[H])[C@]2([H])[C@@]1([H])C(=O)O[C@@]2([H])C([H])([H])[H]


 26 29  0  0  0  0  0  0  0  0999 V2000
   37.6023   20.1132   -8.2215 C   0  0  0  0  0  0  0  0  0  0  0  0
   36.5210   19.1338   -7.6837 C   0  0  0  0  0  0  0  0  0  0  0  0
   36.1796   19.6733   -6.4318 O   0  0  0  0  0  0  0  0  0  0  0  0
   37.2597   19.3500   -5.6132 C   0  0  0  0  0  0  0  0  0  0  0  0
   37.3981   19.7555   -4.4374 O   0  0  0  0  0  0  0  0  0  0  0  0
   38.1803   18.4680   -6.3691 C   0  0  0  0  0  0  0  0  0  0  0  0
   38.9304   17.5114   -5.6026 C   0  0  0  0  0  0  0  0  0  0  0  0
   38.7060   16.2435   -5.5346 C   0  0  0  0  0  0  0  0  0  0  0  0
   39.5328   15.3230   -4.7180 C   0  0  0  0  0  0  0  0  0  0  0  0
   39.5608   13.9846   -5.4440 C   0  0  0  0  0  0  0  0  0  0  0  0
   39.4453   14.1455   -6.9259 C   0  0  0  0  0  0  0  0  0  0  0  0
   38.2243   14.8466   -7.4117 C   0  0  0  0  0  0  0  0  0  0  0  0
   37.6049   15.6552   -6.2743 C   0  0  0  0  0  0  0  0  0  0  0  0
   36.6409   16.6701   -6.8855 C   0  0  0  0  0  0  0  0  0  0  0  0
   35.4224   16.2250   -6.8956 C   0  0  0  0  0  0  0  0  0  0  0  0
   37.1698   17.8744   -7.3881 C   0  0  0  0  0  0  0  0  0  0  0  0
   34.2626   16.9173   -7.3931 C   0  0  0  0  0  0  0  0  0  0  0  0
   33.2625   15.8047   -7.8533 C   0  0  0  0  0  0  0  0  0  0  0  0
   33.4226   14.5920   -6.9791 C   0  0  0  0  0  0  0  0  0  0  0  0
   32.1964   14.7190   -6.0742 C   0  0  0  0  0  0  0  0  0  0  0  0
   31.1735   15.1979   -7.0931 C   0  0  0  0  0  0  0  0  0  0  0  0
   30.8503   14.0178   -7.9817 C   0  0  0  0  0  0  0  0  0  0  0  0
   29.9105   15.6874   -6.4624 C   0  0  0  0  0  0  0  0  0  0  0  0
   31.9117   16.2313   -7.7874 N   0  0  0  0  0  0  0  0  0  0  0  0
   31.3877   16.2345   -9.1644 C   0  0  0  0  0  0  0  0  0  0  0  0
   31.6762   17.5394   -7.2609 C   0  0  0  0  0  0  0  0  0  0  0  0
  1  2  1  0  0  0
  2  3  1  0  0  0
  3  4  1  0  0  0
  4  5  2  0  0  0
  4  6  1  0  0  0
  6  7  1  0  0  0
  7  8  2  0  0  0
  8  9  1  0  0  0
  9 10  1  0  0  0
 10 11  1  0  0  0
 11 12  1  0  0  0
 12 13  1  0  0  0
 13 14  1  0  0  0
 14 15  2  0  0  0
 15 17  1  0  0  0
 17 18  1  0  0  0
 18 19  1  0  0  0
 19 20  1  0  0  0
 20 21  1  0  0  0
 21 22  1  0  0  0
 21 23  1  0  0  0
 21 24  1  0  0  0
 24 25  1  0  0  0
 24 26  1  0  0  0
 14 16  1  0  0  0
 16  2  1  0  0  0
 16  6  1  0  0  0
 13  8  1  0  0  0
 24 18  1  0  0  0
M  CHG 1  24   1
M  END
> <minimizedAffinity>
-5.55059

> <CNNscore>
0.3785184026

> <CNNaffinity>
5.3293199539

> <CNN_VS>
2.0172457695

> <CNNaffinity_variance>
0.1023460627

$$$$
[H]C1=C2C([H])([H])C([H])([H])C([H])([H])C([H])([H])[C@]2([H])/C(=C(\[H])C([H])([H])C2([H])C([H])([H])C([H])([H])C(C([H])([H])[H])(C([H])([H])[H])[N+]2(C([H])([H])[H])C([H])([H])[H])[C@]2([H])[C@@]1([H])C(=O)O[C@@]2([H])C([H])([H])[H]


 26 29  0  0  0  0  0  0  0  0999 V2000
   37.1207   16.2326   -5.1125 C   0  0  0  0  0  0  0  0  0  0  0  0
   37.1491   16.0373   -6.6548 C   0  0  0  0  0  0  0  0  0  0  0  0
   36.3750   14.8819   -6.8561 O   0  0  0  0  0  0  0  0  0  0  0  0
   37.2015   13.8393   -6.4424 C   0  0  0  0  0  0  0  0  0  0  0  0
   36.8376   12.6453   -6.3535 O   0  0  0  0  0  0  0  0  0  0  0  0
   38.5436   14.3901   -6.1386 C   0  0  0  0  0  0  0  0  0  0  0  0
   39.6632   13.5158   -6.3561 C   0  0  0  0  0  0  0  0  0  0  0  0
   40.5005   13.5773   -7.3347 C   0  0  0  0  0  0  0  0  0  0  0  0
   41.6338   12.6334   -7.4840 C   0  0  0  0  0  0  0  0  0  0  0  0
   42.7735   13.4036   -8.1376 C   0  0  0  0  0  0  0  0  0  0  0  0
   42.7471   14.8560   -7.7840 C   0  0  0  0  0  0  0  0  0  0  0  0
   41.5017   15.5907   -8.1414 C   0  0  0  0  0  0  0  0  0  0  0  0
   40.3596   14.6001   -8.3544 C   0  0  0  0  0  0  0  0  0  0  0  0
   39.0443   15.3743   -8.2948 C   0  0  0  0  0  0  0  0  0  0  0  0
   38.6358   15.7130   -9.4786 C   0  0  0  0  0  0  0  0  0  0  0  0
   38.4949   15.6606   -7.0303 C   0  0  0  0  0  0  0  0  0  0  0  0
   37.4365   16.4443   -9.7932 C   0  0  0  0  0  0  0  0  0  0  0  0
   37.1427   16.1584  -11.3038 C   0  0  0  0  0  0  0  0  0  0  0  0
   38.4003   15.6880  -11.9802 C   0  0  0  0  0  0  0  0  0  0  0  0
   38.1318   14.1862  -12.0865 C   0  0  0  0  0  0  0  0  0  0  0  0
   36.6523   14.2140  -12.4389 C   0  0  0  0  0  0  0  0  0  0  0  0
   36.5479   14.7050  -13.8654 C   0  0  0  0  0  0  0  0  0  0  0  0
   36.0068   12.8699  -12.3427 C   0  0  0  0  0  0  0  0  0  0  0  0
   36.1401   15.1717  -11.4821 N   0  0  0  0  0  0  0  0  0  0  0  0
   34.9993   15.8244  -12.1478 C   0  0  0  0  0  0  0  0  0  0  0  0
   35.6229   14.5601  -10.2979 C   0  0  0  0  0  0  0  0  0  0  0  0
  1  2  1  0  0  0
  2  3  1  0  0  0
  3  4  1  0  0  0
  4  5  2  0  0  0
  4  6  1  0  0  0
  6  7  1  0  0  0
  7  8  2  0  0  0
  8  9  1  0  0  0
  9 10  1  0  0  0
 10 11  1  0  0  0
 11 12  1  0  0  0
 12 13  1  0  0  0
 13 14  1  0  0  0
 14 15  2  0  0  0
 15 17  1  0  0  0
 17 18  1  0  0  0
 18 19  1  0  0  0
 19 20  1  0  0  0
 20 21  1  0  0  0
 21 22  1  0  0  0
 21 23  1  0  0  0
 21 24  1  0  0  0
 24 25  1  0  0  0
 24 26  1  0  0  0
 14 16  1  0  0  0
 16  2  1  0  0  0
 16  6  1  0  0  0
 13  8  1  0  0  0
 24 18  1  0  0  0
M  CHG 1  24   1
M  END
> <minimizedAffinity>
-5.47102

> <CNNscore>
0.2994405031

> <CNNaffinity>
5.3705224991

> <CNN_VS>
1.6081519127

> <CNNaffinity_variance>
0.2069785148

$$$$
[H]C1=C2C([H])([H])C([H])([H])C([H])([H])C([H])([H])[C@]2([H])/C(=C(\[H])C([H])([H])C2([H])C([H])([H])C([H])([H])C(C([H])([H])[H])(C([H])([H])[H])[N+]2(C([H])([H])[H])C([H])([H])[H])[C@]2([H])[C@@]1([H])C(=O)O[C@@]2([H])C([H])([H])[H]


 26 29  0  0  0  0  0  0  0  0999 V2000
   37.3472   17.8241   -9.4188 C   0  0  0  0  0  0  0  0  0  0  0  0
   38.0740   16.7761   -8.5293 C   0  0  0  0  0  0  0  0  0  0  0  0
   38.0716   15.6137   -9.3189 O   0  0  0  0  0  0  0  0  0  0  0  0
   36.7581   15.1545   -9.2487 C   0  0  0  0  0  0  0  0  0  0  0  0
   36.3108   14.1955   -9.9169 O   0  0  0  0  0  0  0  0  0  0  0  0
   36.0171   15.9848   -8.2698 C   0  0  0  0  0  0  0  0  0  0  0  0
   34.9511   15.3396   -7.5539 C   0  0  0  0  0  0  0  0  0  0  0  0
   34.9820   14.9534   -6.3241 C   0  0  0  0  0  0  0  0  0  0  0  0
   33.8326   14.2946   -5.6588 C   0  0  0  0  0  0  0  0  0  0  0  0
   33.8654   14.7110   -4.1943 C   0  0  0  0  0  0  0  0  0  0  0  0
   34.4578   16.0710   -4.0089 C   0  0  0  0  0  0  0  0  0  0  0  0
   35.8474   16.2505   -4.5143 C   0  0  0  0  0  0  0  0  0  0  0  0
   36.1762   15.1540   -5.5246 C   0  0  0  0  0  0  0  0  0  0  0  0
   37.4024   15.5963   -6.3207 C   0  0  0  0  0  0  0  0  0  0  0  0
   38.4968   15.1130   -5.8193 C   0  0  0  0  0  0  0  0  0  0  0  0
   37.2127   16.4721   -7.4069 C   0  0  0  0  0  0  0  0  0  0  0  0
   39.8313   15.3219   -6.3168 C   0  0  0  0  0  0  0  0  0  0  0  0
   40.6688   14.0923   -5.8304 C   0  0  0  0  0  0  0  0  0  0  0  0
   40.0493   12.8248   -6.3503 C   0  0  0  0  0  0  0  0  0  0  0  0
   41.0044   12.4793   -7.4935 C   0  0  0  0  0  0  0  0  0  0  0  0
   42.3279   12.8570   -6.8457 C   0  0  0  0  0  0  0  0  0  0  0  0
   42.6205   11.8081   -5.7965 C   0  0  0  0  0  0  0  0  0  0  0  0
   43.4611   12.8953   -7.8189 C   0  0  0  0  0  0  0  0  0  0  0  0
   42.0158   14.1478   -6.2701 N   0  0  0  0  0  0  0  0  0  0  0  0
   42.8622   14.2606   -5.0695 C   0  0  0  0  0  0  0  0  0  0  0  0
   42.3695   15.2416   -7.1199 C   0  0  0  0  0  0  0  0  0  0  0  0
  1  2  1  0  0  0
  2  3  1  0  0  0
  3  4  1  0  0  0
  4  5  2  0  0  0
  4  6  1  0  0  0
  6  7  1  0  0  0
  7  8  2  0  0  0
  8  9  1  0  0  0
  9 10  1  0  0  0
 10 11  1  0  0  0
 11 12  1  0  0  0
 12 13  1  0  0  0
 13 14  1  0  0  0
 14 15  2  0  0  0
 15 17  1  0  0  0
 17 18  1  0  0  0
 18 19  1  0  0  0
 19 20  1  0  0  0
 20 21  1  0  0  0
 21 22  1  0  0  0
 21 23  1  0  0  0
 21 24  1  0  0  0
 24 25  1  0  0  0
 24 26  1  0  0  0
 14 16  1  0  0  0
 16  2  1  0  0  0
 16  6  1  0  0  0
 13  8  1  0  0  0
 24 18  1  0  0  0
M  CHG 1  24   1
M  END
> <minimizedAffinity>
-5.53951

> <CNNscore>
0.2895969152

> <CNNaffinity>
5.0321545601

> <CNN_VS>
1.4572964907

> <CNNaffinity_variance>
0.1024706215

$$$$
[H]C1=C2C([H])([H])C([H])([H])C([H])([H])C([H])([H])[C@]2([H])/C(=C(\[H])C([H])([H])C2([H])C([H])([H])C([H])([H])C(C([H])([H])[H])(C([H])([H])[H])[N+]2(C([H])([H])[H])C([H])([H])[H])[C@]2([H])[C@@]1([H])C(=O)O[C@@]2([H])C([H])([H])[H]


 26 29  0  0  0  0  0  0  0  0999 V2000
   36.7166   12.8409  -12.1643 C   0  0  0  0  0  0  0  0  0  0  0  0
   37.8553   13.4508  -13.0297 C   0  0  0  0  0  0  0  0  0  0  0  0
   37.3177   14.6720  -13.4706 O   0  0  0  0  0  0  0  0  0  0  0  0
   36.4028   14.3077  -14.4563 C   0  0  0  0  0  0  0  0  0  0  0  0
   35.6214   15.1055  -15.0211 O   0  0  0  0  0  0  0  0  0  0  0  0
   36.5245   12.8509  -14.7011 C   0  0  0  0  0  0  0  0  0  0  0  0
   36.2303   12.3944  -16.0316 C   0  0  0  0  0  0  0  0  0  0  0  0
   37.0896   12.0247  -16.9189 C   0  0  0  0  0  0  0  0  0  0  0  0
   36.7000   11.5635  -18.2729 C   0  0  0  0  0  0  0  0  0  0  0  0
   37.7196   10.5154  -18.6984 C   0  0  0  0  0  0  0  0  0  0  0  0
   38.2787    9.7674  -17.5310 C   0  0  0  0  0  0  0  0  0  0  0  0
   38.9537   10.5932  -16.4913 C   0  0  0  0  0  0  0  0  0  0  0  0
   38.5088   12.0483  -16.6169 C   0  0  0  0  0  0  0  0  0  0  0  0
   38.8660   12.7663  -15.3169 C   0  0  0  0  0  0  0  0  0  0  0  0
   40.0098   13.3718  -15.4049 C   0  0  0  0  0  0  0  0  0  0  0  0
   37.9874   12.6433  -14.2233 C   0  0  0  0  0  0  0  0  0  0  0  0
   40.6497   14.1460  -14.3737 C   0  0  0  0  0  0  0  0  0  0  0  0
   42.0136   13.4343  -14.0857 C   0  0  0  0  0  0  0  0  0  0  0  0
   42.6132   12.9548  -15.3785 C   0  0  0  0  0  0  0  0  0  0  0  0
   43.7001   14.0064  -15.6054 C   0  0  0  0  0  0  0  0  0  0  0  0
   44.1920   14.1799  -14.1765 C   0  0  0  0  0  0  0  0  0  0  0  0
   44.9636   12.9290  -13.8208 C   0  0  0  0  0  0  0  0  0  0  0  0
   45.0888   15.3636  -14.0104 C   0  0  0  0  0  0  0  0  0  0  0  0
   42.9463   14.2912  -13.4480 N   0  0  0  0  0  0  0  0  0  0  0  0
   43.2162   13.7264  -12.1143 C   0  0  0  0  0  0  0  0  0  0  0  0
   42.5368   15.6450  -13.2398 C   0  0  0  0  0  0  0  0  0  0  0  0
  1  2  1  0  0  0
  2  3  1  0  0  0
  3  4  1  0  0  0
  4  5  2  0  0  0
  4  6  1  0  0  0
  6  7  1  0  0  0
  7  8  2  0  0  0
  8  9  1  0  0  0
  9 10  1  0  0  0
 10 11  1  0  0  0
 11 12  1  0  0  0
 12 13  1  0  0  0
 13 14  1  0  0  0
 14 15  2  0  0  0
 15 17  1  0  0  0
 17 18  1  0  0  0
 18 19  1  0  0  0
 19 20  1  0  0  0
 20 21  1  0  0  0
 21 22  1  0  0  0
 21 23  1  0  0  0
 21 24  1  0  0  0
 24 25  1  0  0  0
 24 26  1  0  0  0
 14 16  1  0  0  0
 16  2  1  0  0  0
 16  6  1  0  0  0
 13  8  1  0  0  0
 24 18  1  0  0  0
M  CHG 1  24   1
M  END
> <minimizedAffinity>
-5.95248

> <CNNscore>
0.2824639678

> <CNNaffinity>
6.1908330917

> <CNN_VS>
1.7486872673

> <CNNaffinity_variance>
0.1284026504

$$$$
[H]C1=C2C([H])([H])C([H])([H])C([H])([H])C([H])([H])[C@]2([H])/C(=C(\[H])C([H])([H])C2([H])C([H])([H])C([H])([H])C(C([H])([H])[H])(C([H])([H])[H])[N+]2(C([H])([H])[H])C([H])([H])[H])[C@]2([H])[C@@]1([H])C(=O)O[C@@]2([H])C([H])([H])[H]


 26 29  0  0  0  0  0  0  0  0999 V2000
   35.5656   15.0091  -10.9315 C   0  0  0  0  0  0  0  0  0  0  0  0
   36.7295   14.9868   -9.9007 C   0  0  0  0  0  0  0  0  0  0  0  0
   36.2116   14.2335   -8.8334 O   0  0  0  0  0  0  0  0  0  0  0  0
   35.3185   15.0987   -8.2050 C   0  0  0  0  0  0  0  0  0  0  0  0
   34.5569   14.7665   -7.2691 O   0  0  0  0  0  0  0  0  0  0  0  0
   35.4355   16.4374   -8.8302 C   0  0  0  0  0  0  0  0  0  0  0  0
   35.1707   17.5688   -7.9847 C   0  0  0  0  0  0  0  0  0  0  0  0
   36.0487   18.3689   -7.4833 C   0  0  0  0  0  0  0  0  0  0  0  0
   35.6889   19.5181   -6.6187 C   0  0  0  0  0  0  0  0  0  0  0  0
   36.7109   20.6151   -6.8856 C   0  0  0  0  0  0  0  0  0  0  0  0
   37.2360   20.5671   -8.2845 C   0  0  0  0  0  0  0  0  0  0  0  0
   37.8914   19.2927   -8.6907 C   0  0  0  0  0  0  0  0  0  0  0  0
   37.4602   18.1674   -7.7532 C   0  0  0  0  0  0  0  0  0  0  0  0
   37.7907   16.8372   -8.4272 C   0  0  0  0  0  0  0  0  0  0  0  0
   38.9407   16.3787   -8.0399 C   0  0  0  0  0  0  0  0  0  0  0  0
   36.8849   16.3268   -9.3769 C   0  0  0  0  0  0  0  0  0  0  0  0
   39.5608   15.1519   -8.4673 C   0  0  0  0  0  0  0  0  0  0  0  0
   40.2635   14.5611   -7.1996 C   0  0  0  0  0  0  0  0  0  0  0  0
   39.7489   13.1723   -6.9410 C   0  0  0  0  0  0  0  0  0  0  0  0
   40.9155   12.3271   -7.4541 C   0  0  0  0  0  0  0  0  0  0  0  0
   42.0809   13.1662   -6.9525 C   0  0  0  0  0  0  0  0  0  0  0  0
   42.1364   12.9913   -5.4515 C   0  0  0  0  0  0  0  0  0  0  0  0
   43.3914   12.7480   -7.5358 C   0  0  0  0  0  0  0  0  0  0  0  0
   41.6729   14.4990   -7.3425 N   0  0  0  0  0  0  0  0  0  0  0  0
   42.2537   15.4017   -6.3333 C   0  0  0  0  0  0  0  0  0  0  0  0
   42.2090   14.9033   -8.6047 C   0  0  0  0  0  0  0  0  0  0  0  0
  1  2  1  0  0  0
  2  3  1  0  0  0
  3  4  1  0  0  0
  4  5  2  0  0  0
  4  6  1  0  0  0
  6  7  1  0  0  0
  7  8  2  0  0  0
  8  9  1  0  0  0
  9 10  1  0  0  0
 10 11  1  0  0  0
 11 12  1  0  0  0
 12 13  1  0  0  0
 13 14  1  0  0  0
 14 15  2  0  0  0
 15 17  1  0  0  0
 17 18  1  0  0  0
 18 19  1  0  0  0
 19 20  1  0  0  0
 20 21  1  0  0  0
 21 22  1  0  0  0
 21 23  1  0  0  0
 21 24  1  0  0  0
 24 25  1  0  0  0
 24 26  1  0  0  0
 14 16  1  0  0  0
 16  2  1  0  0  0
 16  6  1  0  0  0
 13  8  1  0  0  0
 24 18  1  0  0  0
M  CHG 1  24   1
M  END
> <minimizedAffinity>
-5.89699

> <CNNscore>
0.2739502788

> <CNNaffinity>
4.9843268394

> <CNN_VS>
1.3654577732

> <CNNaffinity_variance>
0.1173682436

$$$$
[H]C1=C2C([H])([H])C([H])([H])C([H])([H])C([H])([H])[C@]2([H])/C(=C(\[H])C([H])([H])C2([H])C([H])([H])C([H])([H])C(C([H])([H])[H])(C([H])([H])[H])[N+]2(C([H])([H])[H])C([H])([H])[H])[C@]2([H])[C@@]1([H])C(=O)O[C@@]2([H])C([H])([H])[H]


 26 29  0  0  0  0  0  0  0  0999 V2000
   37.3920   16.4986   -5.6136 C   0  0  0  0  0  0  0  0  0  0  0  0
   35.9920   16.0147   -6.0863 C   0  0  0  0  0  0  0  0  0  0  0  0
   35.9643   14.6618   -5.7072 O   0  0  0  0  0  0  0  0  0  0  0  0
   36.7897   14.0292   -6.6345 C   0  0  0  0  0  0  0  0  0  0  0  0
   37.1241   12.8248   -6.5731 O   0  0  0  0  0  0  0  0  0  0  0  0
   37.1828   15.0147   -7.6695 C   0  0  0  0  0  0  0  0  0  0  0  0
   37.4219   14.5014   -8.9902 C   0  0  0  0  0  0  0  0  0  0  0  0
   36.6386   14.6183  -10.0077 C   0  0  0  0  0  0  0  0  0  0  0  0
   36.9633   14.0582  -11.3413 C   0  0  0  0  0  0  0  0  0  0  0  0
   36.3548   14.9925  -12.3785 C   0  0  0  0  0  0  0  0  0  0  0  0
   36.2961   16.4066  -11.8968 C   0  0  0  0  0  0  0  0  0  0  0  0
   35.5273   16.6356  -10.6418 C   0  0  0  0  0  0  0  0  0  0  0  0
   35.3752   15.3207   -9.8809 C   0  0  0  0  0  0  0  0  0  0  0  0
   34.9766   15.6491   -8.4435 C   0  0  0  0  0  0  0  0  0  0  0  0
   33.6904   15.6000   -8.2817 C   0  0  0  0  0  0  0  0  0  0  0  0
   35.9916   16.0017   -7.5334 C   0  0  0  0  0  0  0  0  0  0  0  0
   32.9716   15.8486   -7.0596 C   0  0  0  0  0  0  0  0  0  0  0  0
   32.1066   17.1264   -7.3221 C   0  0  0  0  0  0  0  0  0  0  0  0
   30.9831   16.7885   -8.2623 C   0  0  0  0  0  0  0  0  0  0  0  0
   29.8027   16.7119   -7.2931 C   0  0  0  0  0  0  0  0  0  0  0  0
   30.1432   17.8803   -6.3806 C   0  0  0  0  0  0  0  0  0  0  0  0
   29.8862   19.1450   -7.1689 C   0  0  0  0  0  0  0  0  0  0  0  0
   29.3129   17.9087   -5.1387 C   0  0  0  0  0  0  0  0  0  0  0  0
   31.5512   17.6573   -6.1302 N   0  0  0  0  0  0  0  0  0  0  0  0
   32.1352   18.9959   -5.9355 C   0  0  0  0  0  0  0  0  0  0  0  0
   31.7985   16.9279   -4.9258 C   0  0  0  0  0  0  0  0  0  0  0  0
  1  2  1  0  0  0
  2  3  1  0  0  0
  3  4  1  0  0  0
  4  5  2  0  0  0
  4  6  1  0  0  0
  6  7  1  0  0  0
  7  8  2  0  0  0
  8  9  1  0  0  0
  9 10  1  0  0  0
 10 11  1  0  0  0
 11 12  1  0  0  0
 12 13  1  0  0  0
 13 14  1  0  0  0
 14 15  2  0  0  0
 15 17  1  0  0  0
 17 18  1  0  0  0
 18 19  1  0  0  0
 19 20  1  0  0  0
 20 21  1  0  0  0
 21 22  1  0  0  0
 21 23  1  0  0  0
 21 24  1  0  0  0
 24 25  1  0  0  0
 24 26  1  0  0  0
 14 16  1  0  0  0
 16  2  1  0  0  0
 16  6  1  0  0  0
 13  8  1  0  0  0
 24 18  1  0  0  0
M  CHG 1  24   1
M  END
> <minimizedAffinity>
-5.92516

> <CNNscore>
0.2640341222

> <CNNaffinity>
5.2431874275

> <CNN_VS>
1.3843803406

> <CNNaffinity_variance>
0.2026387155

$$$$
[H]c1c([H])c([H])c(C([H])([H])N2C([H])([H])C([H])([H])C([H])(C([H])([H])C([H])([H])N([H])C(=O)c3c([H])c([H])c([H])c([N+](=O)[O-])c3[H])C([H])([H])C2([H])[H])c([H])c1[H]


 28 30  0  0  0  0  0  0  0  0999 V2000
   34.6348   14.8919  -12.1501 C   0  0  0  0  0  0  0  0  0  0  0  0
   35.2599   12.1998  -12.5980 O   0  0  0  0  0  0  0  0  0  0  0  0
   35.4377   13.0021  -13.5482 C   0  0  0  0  0  0  0  0  0  0  0  0
   35.1444   14.3631  -13.3791 N   0  0  0  0  0  0  0  0  0  0  0  0
   35.2902   15.0430  -14.1559 H   0  0  0  0  0  0  0  0  0  0  0  0
   35.9509   12.4251  -14.7841 C   0  0  0  0  0  0  0  0  0  0  0  0
   35.1040   11.8143  -15.6785 C   0  0  0  0  0  0  0  0  0  0  0  0
   35.5983   11.2596  -16.8667 C   0  0  0  0  0  0  0  0  0  0  0  0
   36.9423   11.3231  -17.1475 C   0  0  0  0  0  0  0  0  0  0  0  0
   37.8272   11.9311  -16.2700 C   0  0  0  0  0  0  0  0  0  0  0  0
   37.2859   12.4651  -15.1067 C   0  0  0  0  0  0  0  0  0  0  0  0
   39.2151   12.0121  -16.5301 N   0  0  0  0  0  0  0  0  0  0  0  0
   39.9596   12.5030  -15.6762 O   0  0  0  0  0  0  0  0  0  0  0  0
   39.7301   11.5568  -17.7033 O   0  0  0  0  0  0  0  0  0  0  0  0
   35.5440   15.9701  -11.6381 C   0  0  0  0  0  0  0  0  0  0  0  0
   36.5160   15.3002  -10.6778 C   0  0  0  0  0  0  0  0  0  0  0  0
   36.5048   15.9751   -9.3312 C   0  0  0  0  0  0  0  0  0  0  0  0
   37.3728   15.1110   -8.4102 C   0  0  0  0  0  0  0  0  0  0  0  0
   38.6998   15.0380   -8.9019 N   0  0  0  0  0  0  0  0  0  0  0  0
   38.9436   15.6565  -10.1590 C   0  0  0  0  0  0  0  0  0  0  0  0
   37.9260   15.3219  -11.2182 C   0  0  0  0  0  0  0  0  0  0  0  0
   39.6320   15.5402   -7.9293 C   0  0  0  0  0  0  0  0  0  0  0  0
   40.3630   14.5142   -7.1844 C   0  0  0  0  0  0  0  0  0  0  0  0
   40.4275   13.2524   -7.7597 C   0  0  0  0  0  0  0  0  0  0  0  0
   41.0938   12.2019   -7.1650 C   0  0  0  0  0  0  0  0  0  0  0  0
   41.7044   12.4473   -5.9604 C   0  0  0  0  0  0  0  0  0  0  0  0
   41.6453   13.6914   -5.3850 C   0  0  0  0  0  0  0  0  0  0  0  0
   40.9815   14.7275   -5.9832 C   0  0  0  0  0  0  0  0  0  0  0  0
  2  3  2  0  0  0
  3  4  1  0  0  0
  4  1  1  0  0  0
  1 15  1  0  0  0
 15 16  1  0  0  0
 16 17  1  0  0  0
 17 18  1  0  0  0
 18 19  1  0  0  0
 19 22  1  0  0  0
 22 23  1  0  0  0
 23 24  2  0  0  0
 24 25  1  0  0  0
 25 26  2  0  0  0
 26 27  1  0  0  0
 27 28  2  0  0  0
 19 20  1  0  0  0
 20 21  1  0  0  0
  3  6  1  0  0  0
  6  7  2  0  0  0
  7  8  1  0  0  0
  8  9  2  0  0  0
  9 10  1  0  0  0
 10 12  1  0  0  0
 12 13  2  0  0  0
 12 14  1  0  0  0
 10 11  2  0  0  0
 21 16  1  0  0  0
 11  6  1  0  0  0
 28 23  1  0  0  0
  4  5  1  0  0  0
M  CHG 1  12   1
M  CHG 1  14  -1
M  END
> <minimizedAffinity>
-7.06514

> <CNNscore>
0.3938266635

> <CNNaffinity>
5.5825104713

> <CNN_VS>
2.1985414028

> <CNNaffinity_variance>
0.1798352003

$$$$
[H]c1c([H])c([H])c(C([H])([H])N2C([H])([H])C([H])([H])C([H])(C([H])([H])C([H])([H])N([H])C(=O)c3c([H])c([H])c([H])c([N+](=O)[O-])c3[H])C([H])([H])C2([H])[H])c([H])c1[H]


 28 30  0  0  0  0  0  0  0  0999 V2000
   36.0422   14.3943  -12.9685 C   0  0  0  0  0  0  0  0  0  0  0  0
   37.5272   12.0475  -13.3235 O   0  0  0  0  0  0  0  0  0  0  0  0
   37.1156   12.6347  -14.3550 C   0  0  0  0  0  0  0  0  0  0  0  0
   36.3696   13.8164  -14.2368 N   0  0  0  0  0  0  0  0  0  0  0  0
   36.0240   14.3185  -15.0826 H   0  0  0  0  0  0  0  0  0  0  0  0
   37.4632   12.0125  -15.6261 C   0  0  0  0  0  0  0  0  0  0  0  0
   36.5280   11.2983  -16.3373 C   0  0  0  0  0  0  0  0  0  0  0  0
   36.8631   10.7002  -17.5594 C   0  0  0  0  0  0  0  0  0  0  0  0
   38.1377   10.8246  -18.0586 C   0  0  0  0  0  0  0  0  0  0  0  0
   39.1077   11.5371  -17.3702 C   0  0  0  0  0  0  0  0  0  0  0  0
   38.7239   12.1103  -16.1638 C   0  0  0  0  0  0  0  0  0  0  0  0
   40.4277   11.6827  -17.8570 N   0  0  0  0  0  0  0  0  0  0  0  0
   40.6826   11.3419  -19.0160 O   0  0  0  0  0  0  0  0  0  0  0  0
   41.4086   12.1912  -17.0644 O   0  0  0  0  0  0  0  0  0  0  0  0
   37.1339   15.3257  -12.5307 C   0  0  0  0  0  0  0  0  0  0  0  0
   37.0115   15.4602  -11.0199 C   0  0  0  0  0  0  0  0  0  0  0  0
   36.2121   16.6802  -10.6438 C   0  0  0  0  0  0  0  0  0  0  0  0
   36.0051   16.6076   -9.1271 C   0  0  0  0  0  0  0  0  0  0  0  0
   37.2519   16.6217   -8.4538 N   0  0  0  0  0  0  0  0  0  0  0  0
   38.4138   16.5880   -9.2730 C   0  0  0  0  0  0  0  0  0  0  0  0
   38.3688   15.5500  -10.3639 C   0  0  0  0  0  0  0  0  0  0  0  0
   37.3312   17.7383   -7.5515 C   0  0  0  0  0  0  0  0  0  0  0  0
   38.1407   17.5106   -6.3537 C   0  0  0  0  0  0  0  0  0  0  0  0
   37.8239   16.3960   -5.5892 C   0  0  0  0  0  0  0  0  0  0  0  0
   38.5159   16.0642   -4.4436 C   0  0  0  0  0  0  0  0  0  0  0  0
   39.5498   16.8880   -4.0741 C   0  0  0  0  0  0  0  0  0  0  0  0
   39.8693   17.9917   -4.8240 C   0  0  0  0  0  0  0  0  0  0  0  0
   39.1764   18.3123   -5.9594 C   0  0  0  0  0  0  0  0  0  0  0  0
  2  3  2  0  0  0
  3  4  1  0  0  0
  4  1  1  0  0  0
  1 15  1  0  0  0
 15 16  1  0  0  0
 16 17  1  0  0  0
 17 18  1  0  0  0
 18 19  1  0  0  0
 19 22  1  0  0  0
 22 23  1  0  0  0
 23 24  2  0  0  0
 24 25  1  0  0  0
 25 26  2  0  0  0
 26 27  1  0  0  0
 27 28  2  0  0  0
 19 20  1  0  0  0
 20 21  1  0  0  0
  3  6  1  0  0  0
  6  7  2  0  0  0
  7  8  1  0  0  0
  8  9  2  0  0  0
  9 10  1  0  0  0
 10 12  1  0  0  0
 12 13  2  0  0  0
 12 14  1  0  0  0
 10 11  2  0  0  0
 21 16  1  0  0  0
 11  6  1  0  0  0
 28 23  1  0  0  0
  4  5  1  0  0  0
M  CHG 1  12   1
M  CHG 1  14  -1
M  END
> <minimizedAffinity>
-7.22796

> <CNNscore>
0.3745082915

> <CNNaffinity>
5.4948158264

> <CNN_VS>
2.0578541756

> <CNNaffinity_variance>
0.0378463753

$$$$
[H]c1c([H])c([H])c(C([H])([H])N2C([H])([H])C([H])([H])C([H])(C([H])([H])C([H])([H])N([H])C(=O)c3c([H])c([H])c([H])c([N+](=O)[O-])c3[H])C([H])([H])C2([H])[H])c([H])c1[H]


 28 30  0  0  0  0  0  0  0  0999 V2000
   34.2845   13.7135  -14.2528 C   0  0  0  0  0  0  0  0  0  0  0  0
   34.8058   11.3395  -15.6425 O   0  0  0  0  0  0  0  0  0  0  0  0
   35.7097   12.2118  -15.6256 C   0  0  0  0  0  0  0  0  0  0  0  0
   35.5044   13.4191  -14.9420 N   0  0  0  0  0  0  0  0  0  0  0  0
   36.2455   14.1518  -14.9145 H   0  0  0  0  0  0  0  0  0  0  0  0
   36.9332   11.8782  -16.3436 C   0  0  0  0  0  0  0  0  0  0  0  0
   36.9191   10.9584  -17.3654 C   0  0  0  0  0  0  0  0  0  0  0  0
   38.0961   10.6381  -18.0552 C   0  0  0  0  0  0  0  0  0  0  0  0
   39.2804   11.2456  -17.7123 C   0  0  0  0  0  0  0  0  0  0  0  0
   39.3340   12.1782  -16.6876 C   0  0  0  0  0  0  0  0  0  0  0  0
   38.1394   12.4600  -16.0358 C   0  0  0  0  0  0  0  0  0  0  0  0
   40.5367   12.8201  -16.3109 N   0  0  0  0  0  0  0  0  0  0  0  0
   40.4816   13.8595  -15.6469 O   0  0  0  0  0  0  0  0  0  0  0  0
   41.7422   12.3045  -16.6715 O   0  0  0  0  0  0  0  0  0  0  0  0
   34.5173   13.7089  -12.7706 C   0  0  0  0  0  0  0  0  0  0  0  0
   35.5554   14.7856  -12.4897 C   0  0  0  0  0  0  0  0  0  0  0  0
   36.8549   14.1825  -12.0249 C   0  0  0  0  0  0  0  0  0  0  0  0
   37.8621   15.3352  -11.9522 C   0  0  0  0  0  0  0  0  0  0  0  0
   37.4281   16.3171  -11.0273 N   0  0  0  0  0  0  0  0  0  0  0  0
   36.1448   16.1174  -10.4481 C   0  0  0  0  0  0  0  0  0  0  0  0
   35.0701   15.7572  -11.4403 C   0  0  0  0  0  0  0  0  0  0  0  0
   38.4025   16.5028   -9.9865 C   0  0  0  0  0  0  0  0  0  0  0  0
   38.1748   17.6634   -9.1245 C   0  0  0  0  0  0  0  0  0  0  0  0
   38.2188   17.4415   -7.7548 C   0  0  0  0  0  0  0  0  0  0  0  0
   38.0308   18.4521   -6.8357 C   0  0  0  0  0  0  0  0  0  0  0  0
   37.7934   19.7114   -7.3273 C   0  0  0  0  0  0  0  0  0  0  0  0
   37.7482   19.9392   -8.6796 C   0  0  0  0  0  0  0  0  0  0  0  0
   37.9361   18.9295   -9.5836 C   0  0  0  0  0  0  0  0  0  0  0  0
  2  3  2  0  0  0
  3  4  1  0  0  0
  4  1  1  0  0  0
  1 15  1  0  0  0
 15 16  1  0  0  0
 16 17  1  0  0  0
 17 18  1  0  0  0
 18 19  1  0  0  0
 19 22  1  0  0  0
 22 23  1  0  0  0
 23 24  2  0  0  0
 24 25  1  0  0  0
 25 26  2  0  0  0
 26 27  1  0  0  0
 27 28  2  0  0  0
 19 20  1  0  0  0
 20 21  1  0  0  0
  3  6  1  0  0  0
  6  7  2  0  0  0
  7  8  1  0  0  0
  8  9  2  0  0  0
  9 10  1  0  0  0
 10 12  1  0  0  0
 12 13  2  0  0  0
 12 14  1  0  0  0
 10 11  2  0  0  0
 21 16  1  0  0  0
 11  6  1  0  0  0
 28 23  1  0  0  0
  4  5  1  0  0  0
M  CHG 1  12   1
M  CHG 1  14  -1
M  END
> <minimizedAffinity>
-7.88886

> <CNNscore>
0.3616421223

> <CNNaffinity>
6.0202054977

> <CNN_VS>
2.1771597862

> <CNNaffinity_variance>
0.0228148308

$$$$
[H]c1c([H])c([H])c(C([H])([H])N2C([H])([H])C([H])([H])C([H])(C([H])([H])C([H])([H])N([H])C(=O)c3c([H])c([H])c([H])c([N+](=O)[O-])c3[H])C([H])([H])C2([H])[H])c([H])c1[H]


 28 30  0  0  0  0  0  0  0  0999 V2000
   35.8618   14.4515  -13.0875 C   0  0  0  0  0  0  0  0  0  0  0  0
   37.1017   11.9603  -13.3964 O   0  0  0  0  0  0  0  0  0  0  0  0
   36.8559   12.6187  -14.4377 C   0  0  0  0  0  0  0  0  0  0  0  0
   36.2389   13.8745  -14.3423 N   0  0  0  0  0  0  0  0  0  0  0  0
   36.0317   14.4358  -15.1961 H   0  0  0  0  0  0  0  0  0  0  0  0
   37.2482   11.9954  -15.6953 C   0  0  0  0  0  0  0  0  0  0  0  0
   36.3431   11.2669  -16.4303 C   0  0  0  0  0  0  0  0  0  0  0  0
   36.7212   10.6678  -17.6394 C   0  0  0  0  0  0  0  0  0  0  0  0
   38.0084   10.8056  -18.1014 C   0  0  0  0  0  0  0  0  0  0  0  0
   38.9491   11.5328  -17.3881 C   0  0  0  0  0  0  0  0  0  0  0  0
   38.5230   12.1064  -16.1961 C   0  0  0  0  0  0  0  0  0  0  0  0
   40.2809   11.6925  -17.8365 N   0  0  0  0  0  0  0  0  0  0  0  0
   40.5820   11.3175  -18.9737 O   0  0  0  0  0  0  0  0  0  0  0  0
   41.2232   12.2514  -17.0310 O   0  0  0  0  0  0  0  0  0  0  0  0
   36.9417   15.3718  -12.5995 C   0  0  0  0  0  0  0  0  0  0  0  0
   36.3285   16.2123  -11.4890 C   0  0  0  0  0  0  0  0  0  0  0  0
   37.2021   16.2162  -10.2620 C   0  0  0  0  0  0  0  0  0  0  0  0
   36.5796   17.2286   -9.2944 C   0  0  0  0  0  0  0  0  0  0  0  0
   35.2621   16.8392   -8.9471 N   0  0  0  0  0  0  0  0  0  0  0  0
   34.7431   15.6964   -9.6155 C   0  0  0  0  0  0  0  0  0  0  0  0
   34.9591   15.7034  -11.1064 C   0  0  0  0  0  0  0  0  0  0  0  0
   35.1413   16.6617   -7.5254 C   0  0  0  0  0  0  0  0  0  0  0  0
   33.8023   16.3008   -7.0577 C   0  0  0  0  0  0  0  0  0  0  0  0
   33.6243   14.9943   -6.6235 C   0  0  0  0  0  0  0  0  0  0  0  0
   32.4151   14.5309   -6.1496 C   0  0  0  0  0  0  0  0  0  0  0  0
   31.3701   15.4204   -6.1202 C   0  0  0  0  0  0  0  0  0  0  0  0
   31.5377   16.7134   -6.5477 C   0  0  0  0  0  0  0  0  0  0  0  0
   32.7418   17.1635   -7.0162 C   0  0  0  0  0  0  0  0  0  0  0  0
  2  3  2  0  0  0
  3  4  1  0  0  0
  4  1  1  0  0  0
  1 15  1  0  0  0
 15 16  1  0  0  0
 16 17  1  0  0  0
 17 18  1  0  0  0
 18 19  1  0  0  0
 19 22  1  0  0  0
 22 23  1  0  0  0
 23 24  2  0  0  0
 24 25  1  0  0  0
 25 26  2  0  0  0
 26 27  1  0  0  0
 27 28  2  0  0  0
 19 20  1  0  0  0
 20 21  1  0  0  0
  3  6  1  0  0  0
  6  7  2  0  0  0
  7  8  1  0  0  0
  8  9  2  0  0  0
  9 10  1  0  0  0
 10 12  1  0  0  0
 12 13  2  0  0  0
 12 14  1  0  0  0
 10 11  2  0  0  0
 21 16  1  0  0  0
 11  6  1  0  0  0
 28 23  1  0  0  0
  4  5  1  0  0  0
M  CHG 1  12   1
M  CHG 1  14  -1
M  END
> <minimizedAffinity>
-7.70902

> <CNNscore>
0.3373797834

> <CNNaffinity>
5.6846880913

> <CNN_VS>
1.9178988934

> <CNNaffinity_variance>
0.1394504309

$$$$
[H]c1c([H])c([H])c(C([H])([H])N2C([H])([H])C([H])([H])C([H])(C([H])([H])C([H])([H])N([H])C(=O)c3c([H])c([H])c([H])c([N+](=O)[O-])c3[H])C([H])([H])C2([H])[H])c([H])c1[H]


 28 30  0  0  0  0  0  0  0  0999 V2000
   36.0361   13.3681  -12.2023 C   0  0  0  0  0  0  0  0  0  0  0  0
   37.8494   13.9590  -14.2521 O   0  0  0  0  0  0  0  0  0  0  0  0
   37.1213   12.9454  -14.3964 C   0  0  0  0  0  0  0  0  0  0  0  0
   36.1926   12.6036  -13.4027 N   0  0  0  0  0  0  0  0  0  0  0  0
   35.5779   11.7683  -13.5086 H   0  0  0  0  0  0  0  0  0  0  0  0
   37.3148   12.1899  -15.6275 C   0  0  0  0  0  0  0  0  0  0  0  0
   36.2764   11.4854  -16.1896 C   0  0  0  0  0  0  0  0  0  0  0  0
   36.4634   10.7591  -17.3733 C   0  0  0  0  0  0  0  0  0  0  0  0
   37.6945   10.7461  -17.9842 C   0  0  0  0  0  0  0  0  0  0  0  0
   38.7655   11.4443  -17.4475 C   0  0  0  0  0  0  0  0  0  0  0  0
   38.5271   12.1481  -16.2730 C   0  0  0  0  0  0  0  0  0  0  0  0
   40.0442   11.4503  -18.0518 N   0  0  0  0  0  0  0  0  0  0  0  0
   41.0074   11.8910  -17.4175 O   0  0  0  0  0  0  0  0  0  0  0  0
   40.2181   10.9780  -19.3150 O   0  0  0  0  0  0  0  0  0  0  0  0
   34.9578   14.3954  -12.3840 C   0  0  0  0  0  0  0  0  0  0  0  0
   35.4047   15.6348  -11.6223 C   0  0  0  0  0  0  0  0  0  0  0  0
   36.8602   15.5477  -11.2446 C   0  0  0  0  0  0  0  0  0  0  0  0
   37.2332   16.9116  -10.6535 C   0  0  0  0  0  0  0  0  0  0  0  0
   36.4521   17.1855   -9.5034 N   0  0  0  0  0  0  0  0  0  0  0  0
   35.4359   16.2416   -9.1891 C   0  0  0  0  0  0  0  0  0  0  0  0
   34.5897   15.8321  -10.3663 C   0  0  0  0  0  0  0  0  0  0  0  0
   37.2915   17.3899   -8.3541 C   0  0  0  0  0  0  0  0  0  0  0  0
   37.1461   18.6933   -7.7047 C   0  0  0  0  0  0  0  0  0  0  0  0
   37.4528   19.8097   -8.4708 C   0  0  0  0  0  0  0  0  0  0  0  0
   37.3478   21.0943   -7.9807 C   0  0  0  0  0  0  0  0  0  0  0  0
   36.9218   21.2383   -6.6838 C   0  0  0  0  0  0  0  0  0  0  0  0
   36.6169   20.1402   -5.9198 C   0  0  0  0  0  0  0  0  0  0  0  0
   36.7243   18.8695   -6.4156 C   0  0  0  0  0  0  0  0  0  0  0  0
  2  3  2  0  0  0
  3  4  1  0  0  0
  4  1  1  0  0  0
  1 15  1  0  0  0
 15 16  1  0  0  0
 16 17  1  0  0  0
 17 18  1  0  0  0
 18 19  1  0  0  0
 19 22  1  0  0  0
 22 23  1  0  0  0
 23 24  2  0  0  0
 24 25  1  0  0  0
 25 26  2  0  0  0
 26 27  1  0  0  0
 27 28  2  0  0  0
 19 20  1  0  0  0
 20 21  1  0  0  0
  3  6  1  0  0  0
  6  7  2  0  0  0
  7  8  1  0  0  0
  8  9  2  0  0  0
  9 10  1  0  0  0
 10 12  1  0  0  0
 12 13  2  0  0  0
 12 14  1  0  0  0
 10 11  2  0  0  0
 21 16  1  0  0  0
 11  6  1  0  0  0
 28 23  1  0  0  0
  4  5  1  0  0  0
M  CHG 1  12   1
M  CHG 1  14  -1
M  END
> <minimizedAffinity>
-7.72495

> <CNNscore>
0.2793800831

> <CNNaffinity>
5.6489601135

> <CNN_VS>
1.5782068968

> <CNNaffinity_variance>
0.0494644344

$$$$
[H]c1c([H])c([H])c(C([H])([H])N2C([H])([H])C([H])([H])C([H])(C([H])([H])C([H])([H])N([H])C(=O)c3c([H])c([H])c([H])c([N+](=O)[O-])c3[H])C([H])([H])C2([H])[H])c([H])c1[H]


 28 30  0  0  0  0  0  0  0  0999 V2000
   35.5019   14.0114  -13.6490 C   0  0  0  0  0  0  0  0  0  0  0  0
   36.6272   12.1908  -15.4540 O   0  0  0  0  0  0  0  0  0  0  0  0
   37.3925   13.0419  -14.9361 C   0  0  0  0  0  0  0  0  0  0  0  0
   36.8836   13.9765  -14.0225 N   0  0  0  0  0  0  0  0  0  0  0  0
   37.5056   14.6867  -13.5804 H   0  0  0  0  0  0  0  0  0  0  0  0
   38.7894   12.9786  -15.3463 C   0  0  0  0  0  0  0  0  0  0  0  0
   39.7828   13.4730  -14.5344 C   0  0  0  0  0  0  0  0  0  0  0  0
   41.1258   13.4118  -14.9296 C   0  0  0  0  0  0  0  0  0  0  0  0
   41.4610   12.8532  -16.1399 C   0  0  0  0  0  0  0  0  0  0  0  0
   40.4873   12.3440  -16.9855 C   0  0  0  0  0  0  0  0  0  0  0  0
   39.1714   12.4293  -16.5464 C   0  0  0  0  0  0  0  0  0  0  0  0
   40.8000   11.7637  -18.2369 N   0  0  0  0  0  0  0  0  0  0  0  0
   41.9660   11.4329  -18.4722 O   0  0  0  0  0  0  0  0  0  0  0  0
   39.8338   11.5692  -19.1737 O   0  0  0  0  0  0  0  0  0  0  0  0
   35.3665   13.8455  -12.1639 C   0  0  0  0  0  0  0  0  0  0  0  0
   35.7216   15.1881  -11.5418 C   0  0  0  0  0  0  0  0  0  0  0  0
   36.9470   15.0795  -10.6727 C   0  0  0  0  0  0  0  0  0  0  0  0
   37.3067   16.5099  -10.2563 C   0  0  0  0  0  0  0  0  0  0  0  0
   36.2455   17.0959   -9.5226 N   0  0  0  0  0  0  0  0  0  0  0  0
   35.0544   16.3274   -9.4096 C   0  0  0  0  0  0  0  0  0  0  0  0
   34.5832   15.7263  -10.7081 C   0  0  0  0  0  0  0  0  0  0  0  0
   36.6889   17.4920   -8.2135 C   0  0  0  0  0  0  0  0  0  0  0  0
   36.6880   18.9351   -7.9694 C   0  0  0  0  0  0  0  0  0  0  0  0
   35.5324   19.4741   -7.4205 C   0  0  0  0  0  0  0  0  0  0  0  0
   35.4071   20.8169   -7.1331 C   0  0  0  0  0  0  0  0  0  0  0  0
   36.4833   21.6217   -7.4127 C   0  0  0  0  0  0  0  0  0  0  0  0
   37.6291   21.0968   -7.9554 C   0  0  0  0  0  0  0  0  0  0  0  0
   37.7434   19.7628   -8.2369 C   0  0  0  0  0  0  0  0  0  0  0  0
  2  3  2  0  0  0
  3  4  1  0  0  0
  4  1  1  0  0  0
  1 15  1  0  0  0
 15 16  1  0  0  0
 16 17  1  0  0  0
 17 18  1  0  0  0
 18 19  1  0  0  0
 19 22  1  0  0  0
 22 23  1  0  0  0
 23 24  2  0  0  0
 24 25  1  0  0  0
 25 26  2  0  0  0
 26 27  1  0  0  0
 27 28  2  0  0  0
 19 20  1  0  0  0
 20 21  1  0  0  0
  3  6  1  0  0  0
  6  7  2  0  0  0
  7  8  1  0  0  0
  8  9  2  0  0  0
  9 10  1  0  0  0
 10 12  1  0  0  0
 12 13  2  0  0  0
 12 14  1  0  0  0
 10 11  2  0  0  0
 21 16  1  0  0  0
 11  6  1  0  0  0
 28 23  1  0  0  0
  4  5  1  0  0  0
M  CHG 1  12   1
M  CHG 1  14  -1
M  END
> <minimizedAffinity>
-7.00840

> <CNNscore>
0.2571617663

> <CNNaffinity>
5.4364471436

> <CNN_VS>
1.3980463743

> <CNNaffinity_variance>
0.0427555442

$$$$
[H]c1c([H])c([H])c(C([H])([H])N2C([H])([H])C([H])([H])C([H])(C([H])([H])C([H])([H])N([H])C(=O)c3c([H])c([H])c([H])c([N+](=O)[O-])c3[H])C([H])([H])C2([H])[H])c([H])c1[H]


 28 30  0  0  0  0  0  0  0  0999 V2000
   37.8200   14.8490  -11.1910 C   0  0  0  0  0  0  0  0  0  0  0  0
   36.7355   12.8231  -12.7906 O   0  0  0  0  0  0  0  0  0  0  0  0
   37.7854   13.3818  -13.1952 C   0  0  0  0  0  0  0  0  0  0  0  0
   38.3743   14.4010  -12.4327 N   0  0  0  0  0  0  0  0  0  0  0  0
   39.2478   14.8721  -12.7519 H   0  0  0  0  0  0  0  0  0  0  0  0
   38.3150   12.9031  -14.4657 C   0  0  0  0  0  0  0  0  0  0  0  0
   39.6062   13.1901  -14.8411 C   0  0  0  0  0  0  0  0  0  0  0  0
   40.1146   12.7295  -16.0630 C   0  0  0  0  0  0  0  0  0  0  0  0
   39.3203   11.9826  -16.8999 C   0  0  0  0  0  0  0  0  0  0  0  0
   38.0133   11.6728  -16.5557 C   0  0  0  0  0  0  0  0  0  0  0  0
   37.5582   12.1536  -15.3337 C   0  0  0  0  0  0  0  0  0  0  0  0
   37.1710   10.9071  -17.3951 N   0  0  0  0  0  0  0  0  0  0  0  0
   36.0207   10.6546  -17.0242 O   0  0  0  0  0  0  0  0  0  0  0  0
   37.6155   10.4517  -18.5967 O   0  0  0  0  0  0  0  0  0  0  0  0
   38.7682   15.7963  -10.5167 C   0  0  0  0  0  0  0  0  0  0  0  0
   38.1252   16.1880   -9.1943 C   0  0  0  0  0  0  0  0  0  0  0  0
   36.7072   15.6874   -9.1077 C   0  0  0  0  0  0  0  0  0  0  0  0
   36.2345   15.9800   -7.6796 C   0  0  0  0  0  0  0  0  0  0  0  0
   36.2711   17.3724   -7.4191 N   0  0  0  0  0  0  0  0  0  0  0  0
   36.8202   18.1933   -8.4422 C   0  0  0  0  0  0  0  0  0  0  0  0
   38.1216   17.6866   -9.0070 C   0  0  0  0  0  0  0  0  0  0  0  0
   34.9663   17.8581   -7.0604 C   0  0  0  0  0  0  0  0  0  0  0  0
   34.4908   17.4401   -5.7409 C   0  0  0  0  0  0  0  0  0  0  0  0
   33.2870   16.7498   -5.7014 C   0  0  0  0  0  0  0  0  0  0  0  0
   32.7352   16.2926   -4.5233 C   0  0  0  0  0  0  0  0  0  0  0  0
   33.4277   16.5467   -3.3658 C   0  0  0  0  0  0  0  0  0  0  0  0
   34.6181   17.2284   -3.3961 C   0  0  0  0  0  0  0  0  0  0  0  0
   35.1573   17.6780   -4.5704 C   0  0  0  0  0  0  0  0  0  0  0  0
  2  3  2  0  0  0
  3  4  1  0  0  0
  4  1  1  0  0  0
  1 15  1  0  0  0
 15 16  1  0  0  0
 16 17  1  0  0  0
 17 18  1  0  0  0
 18 19  1  0  0  0
 19 22  1  0  0  0
 22 23  1  0  0  0
 23 24  2  0  0  0
 24 25  1  0  0  0
 25 26  2  0  0  0
 26 27  1  0  0  0
 27 28  2  0  0  0
 19 20  1  0  0  0
 20 21  1  0  0  0
  3  6  1  0  0  0
  6  7  2  0  0  0
  7  8  1  0  0  0
  8  9  2  0  0  0
  9 10  1  0  0  0
 10 12  1  0  0  0
 12 13  2  0  0  0
 12 14  1  0  0  0
 10 11  2  0  0  0
 21 16  1  0  0  0
 11  6  1  0  0  0
 28 23  1  0  0  0
  4  5  1  0  0  0
M  CHG 1  12   1
M  CHG 1  14  -1
M  END
> <minimizedAffinity>
-6.75632

> <CNNscore>
0.2529904544

> <CNNaffinity>
4.9543852806

> <CNN_VS>
1.2534121275

> <CNNaffinity_variance>
0.2411690652

$$$$
[H]c1c([H])c([H])c(C([H])([H])N2C([H])([H])C([H])([H])C([H])(C([H])([H])C([H])([H])N([H])C(=O)c3c([H])c([H])c([H])c([N+](=O)[O-])c3[H])C([H])([H])C2([H])[H])c([H])c1[H]


 28 30  0  0  0  0  0  0  0  0999 V2000
   37.5712   14.5482  -12.2621 C   0  0  0  0  0  0  0  0  0  0  0  0
   39.5270   15.1501  -14.1730 O   0  0  0  0  0  0  0  0  0  0  0  0
   38.9331   14.0481  -14.2784 C   0  0  0  0  0  0  0  0  0  0  0  0
   37.9419   13.6957  -13.3510 N   0  0  0  0  0  0  0  0  0  0  0  0
   37.4365   12.7870  -13.4265 H   0  0  0  0  0  0  0  0  0  0  0  0
   39.3428   13.2058  -15.3949 C   0  0  0  0  0  0  0  0  0  0  0  0
   40.6583   13.1564  -15.7915 C   0  0  0  0  0  0  0  0  0  0  0  0
   41.0514   12.3463  -16.8652 C   0  0  0  0  0  0  0  0  0  0  0  0
   40.1178   11.5907  -17.5335 C   0  0  0  0  0  0  0  0  0  0  0  0
   38.7820   11.6142  -17.1626 C   0  0  0  0  0  0  0  0  0  0  0  0
   38.4450   12.4337  -16.0919 C   0  0  0  0  0  0  0  0  0  0  0  0
   37.7977   10.8489  -17.8303 N   0  0  0  0  0  0  0  0  0  0  0  0
   36.7749   10.5211  -17.2214 O   0  0  0  0  0  0  0  0  0  0  0  0
   37.9687   10.4754  -19.1266 O   0  0  0  0  0  0  0  0  0  0  0  0
   36.4504   15.4551  -12.6777 C   0  0  0  0  0  0  0  0  0  0  0  0
   36.0770   16.2756  -11.4517 C   0  0  0  0  0  0  0  0  0  0  0  0
   37.1709   16.2390  -10.4169 C   0  0  0  0  0  0  0  0  0  0  0  0
   36.7637   17.2349   -9.3256 C   0  0  0  0  0  0  0  0  0  0  0  0
   35.5318   16.8532   -8.7386 N   0  0  0  0  0  0  0  0  0  0  0  0
   34.8747   15.7333   -9.3186 C   0  0  0  0  0  0  0  0  0  0  0  0
   34.7989   15.7741  -10.8226 C   0  0  0  0  0  0  0  0  0  0  0  0
   35.6846   16.6425   -7.3246 C   0  0  0  0  0  0  0  0  0  0  0  0
   34.4595   16.7973   -6.5392 C   0  0  0  0  0  0  0  0  0  0  0  0
   33.8652   18.0519   -6.5510 C   0  0  0  0  0  0  0  0  0  0  0  0
   32.7032   18.3260   -5.8611 C   0  0  0  0  0  0  0  0  0  0  0  0
   32.1401   17.2982   -5.1466 C   0  0  0  0  0  0  0  0  0  0  0  0
   32.7212   16.0553   -5.1296 C   0  0  0  0  0  0  0  0  0  0  0  0
   33.8745   15.7934   -5.8176 C   0  0  0  0  0  0  0  0  0  0  0  0
  2  3  2  0  0  0
  3  4  1  0  0  0
  4  1  1  0  0  0
  1 15  1  0  0  0
 15 16  1  0  0  0
 16 17  1  0  0  0
 17 18  1  0  0  0
 18 19  1  0  0  0
 19 22  1  0  0  0
 22 23  1  0  0  0
 23 24  2  0  0  0
 24 25  1  0  0  0
 25 26  2  0  0  0
 26 27  1  0  0  0
 27 28  2  0  0  0
 19 20  1  0  0  0
 20 21  1  0  0  0
  3  6  1  0  0  0
  6  7  2  0  0  0
  7  8  1  0  0  0
  8  9  2  0  0  0
  9 10  1  0  0  0
 10 12  1  0  0  0
 12 13  2  0  0  0
 12 14  1  0  0  0
 10 11  2  0  0  0
 21 16  1  0  0  0
 11  6  1  0  0  0
 28 23  1  0  0  0
  4  5  1  0  0  0
M  CHG 1  12   1
M  CHG 1  14  -1
M  END
> <minimizedAffinity>
-7.07348

> <CNNscore>
0.2440839559

> <CNNaffinity>
5.3940558434

> <CNN_VS>
1.3166024685

> <CNNaffinity_variance>
0.1116778404

$$$$
[H]c1c([H])c([H])c(C([H])([H])N2C([H])([H])C([H])([H])C([H])(C([H])([H])C([H])([H])N([H])C(=O)c3c([H])c([H])c([H])c([N+](=O)[O-])c3[H])C([H])([H])C2([H])[H])c([H])c1[H]


 28 30  0  0  0  0  0  0  0  0999 V2000
   35.6853   14.2489  -12.9260 C   0  0  0  0  0  0  0  0  0  0  0  0
   37.2982   11.9828  -13.2458 O   0  0  0  0  0  0  0  0  0  0  0  0
   36.9299   12.5837  -14.2857 C   0  0  0  0  0  0  0  0  0  0  0  0
   36.1235   13.7267  -14.1850 N   0  0  0  0  0  0  0  0  0  0  0  0
   35.8125   14.2397  -15.0377 H   0  0  0  0  0  0  0  0  0  0  0  0
   37.3904   12.0182  -15.5474 C   0  0  0  0  0  0  0  0  0  0  0  0
   36.5417   11.2788  -16.3368 C   0  0  0  0  0  0  0  0  0  0  0  0
   36.9855   10.7353  -17.5499 C   0  0  0  0  0  0  0  0  0  0  0  0
   38.2810   10.9393  -17.9611 C   0  0  0  0  0  0  0  0  0  0  0  0
   39.1660   11.6796  -17.1921 C   0  0  0  0  0  0  0  0  0  0  0  0
   38.6760   12.1963  -15.9986 C   0  0  0  0  0  0  0  0  0  0  0  0
   40.5049   11.9069  -17.5875 N   0  0  0  0  0  0  0  0  0  0  0  0
   40.8514   11.6131  -18.7355 O   0  0  0  0  0  0  0  0  0  0  0  0
   41.4045   12.4422  -16.7196 O   0  0  0  0  0  0  0  0  0  0  0  0
   36.3857   15.5434  -12.6345 C   0  0  0  0  0  0  0  0  0  0  0  0
   37.5477   15.2111  -11.7099 C   0  0  0  0  0  0  0  0  0  0  0  0
   37.6095   16.1658  -10.5465 C   0  0  0  0  0  0  0  0  0  0  0  0
   38.6906   15.6255   -9.6042 C   0  0  0  0  0  0  0  0  0  0  0  0
   39.9459   15.5828  -10.2601 N   0  0  0  0  0  0  0  0  0  0  0  0
   39.9506   15.9256  -11.6402 C   0  0  0  0  0  0  0  0  0  0  0  0
   38.8662   15.2579  -12.4449 C   0  0  0  0  0  0  0  0  0  0  0  0
   40.9135   16.3847   -9.5615 C   0  0  0  0  0  0  0  0  0  0  0  0
   42.2403   15.7811   -9.4313 C   0  0  0  0  0  0  0  0  0  0  0  0
   42.3036   14.5420   -8.8086 C   0  0  0  0  0  0  0  0  0  0  0  0
   43.4906   13.8628   -8.6325 C   0  0  0  0  0  0  0  0  0  0  0  0
   44.6325   14.4626   -9.1018 C   0  0  0  0  0  0  0  0  0  0  0  0
   44.5787   15.6872   -9.7183 C   0  0  0  0  0  0  0  0  0  0  0  0
   43.3956   16.3532   -9.8882 C   0  0  0  0  0  0  0  0  0  0  0  0
  2  3  2  0  0  0
  3  4  1  0  0  0
  4  1  1  0  0  0
  1 15  1  0  0  0
 15 16  1  0  0  0
 16 17  1  0  0  0
 17 18  1  0  0  0
 18 19  1  0  0  0
 19 22  1  0  0  0
 22 23  1  0  0  0
 23 24  2  0  0  0
 24 25  1  0  0  0
 25 26  2  0  0  0
 26 27  1  0  0  0
 27 28  2  0  0  0
 19 20  1  0  0  0
 20 21  1  0  0  0
  3  6  1  0  0  0
  6  7  2  0  0  0
  7  8  1  0  0  0
  8  9  2  0  0  0
  9 10  1  0  0  0
 10 12  1  0  0  0
 12 13  2  0  0  0
 12 14  1  0  0  0
 10 11  2  0  0  0
 21 16  1  0  0  0
 11  6  1  0  0  0
 28 23  1  0  0  0
  4  5  1  0  0  0
M  CHG 1  12   1
M  CHG 1  14  -1
M  END
> <minimizedAffinity>
-7.23472

> <CNNscore>
0.2436174750

> <CNNaffinity>
5.6288633347

> <CNN_VS>
1.3712894917

> <CNNaffinity_variance>
0.1306860894

$$$$
[H]OC(=O)c1c([H])c([H])c(OC2([H])C([H])([H])SC2([H])[H])c([H])c1[H]


 15 16  0  0  0  0  0  0  0  0999 V2000
   39.1033   11.4955  -17.4913 C   0  0  0  0  0  0  0  0  0  0  0  0
   39.0757   12.1751  -16.2818 C   0  0  0  0  0  0  0  0  0  0  0  0
   37.8935   12.2218  -15.5515 C   0  0  0  0  0  0  0  0  0  0  0  0
   36.7357   11.6161  -15.9815 C   0  0  0  0  0  0  0  0  0  0  0  0
   36.7759   10.9393  -17.1931 C   0  0  0  0  0  0  0  0  0  0  0  0
   37.9509   10.8797  -17.9420 C   0  0  0  0  0  0  0  0  0  0  0  0
   40.3522   10.9601  -19.4182 O   0  0  0  0  0  0  0  0  0  0  0  0
   40.3498   11.4471  -18.2597 C   0  0  0  0  0  0  0  0  0  0  0  0
   41.5214   11.9372  -17.7093 O   0  0  0  0  0  0  0  0  0  0  0  0
   42.1729   11.2693  -17.2951 H   0  0  0  0  0  0  0  0  0  0  0  0
   35.6053   11.6544  -15.2944 O   0  0  0  0  0  0  0  0  0  0  0  0
   34.8468   12.4705  -14.5736 C   0  0  0  0  0  0  0  0  0  0  0  0
   35.1085   12.5870  -13.0650 C   0  0  0  0  0  0  0  0  0  0  0  0
   33.9198   13.9662  -13.1184 S   0  0  0  0  0  0  0  0  0  0  0  0
   34.9598   13.9556  -14.6280 C   0  0  0  0  0  0  0  0  0  0  0  0
  7  8  2  0  0  0
  8  9  1  0  0  0
  8  1  1  0  0  0
  1  2  2  0  0  0
  2  3  1  0  0  0
  3  4  2  0  0  0
  4 11  1  0  0  0
 11 12  1  0  0  0
 12 13  1  0  0  0
 13 14  1  0  0  0
 14 15  1  0  0  0
  4  5  1  0  0  0
  5  6  2  0  0  0
  6  1  1  0  0  0
 15 12  1  0  0  0
  9 10  1  0  0  0
M  END
> <minimizedAffinity>
-6.56679

> <CNNscore>
0.5837701559

> <CNNaffinity>
4.5333390236

> <CNN_VS>
2.6464281082

> <CNNaffinity_variance>
0.3160135150

$$$$
[H]OC(=O)c1c([H])c([H])c(OC2([H])C([H])([H])SC2([H])[H])c([H])c1[H]


 15 16  0  0  0  0  0  0  0  0999 V2000
   39.1441   11.5243  -17.4352 C   0  0  0  0  0  0  0  0  0  0  0  0
   37.9744   10.9708  -17.9362 C   0  0  0  0  0  0  0  0  0  0  0  0
   36.8152   11.0147  -17.1697 C   0  0  0  0  0  0  0  0  0  0  0  0
   36.7773   11.5900  -15.9208 C   0  0  0  0  0  0  0  0  0  0  0  0
   37.9539   12.1403  -15.4305 C   0  0  0  0  0  0  0  0  0  0  0  0
   39.1281   12.1075  -16.1823 C   0  0  0  0  0  0  0  0  0  0  0  0
   40.3258   11.0081  -19.4093 O   0  0  0  0  0  0  0  0  0  0  0  0
   40.3647   11.4774  -18.2441 C   0  0  0  0  0  0  0  0  0  0  0  0
   41.5577   11.9493  -17.7245 O   0  0  0  0  0  0  0  0  0  0  0  0
   42.2163   11.2699  -17.3416 H   0  0  0  0  0  0  0  0  0  0  0  0
   35.6797   11.6371  -15.1830 O   0  0  0  0  0  0  0  0  0  0  0  0
   34.9162   12.4780  -14.4968 C   0  0  0  0  0  0  0  0  0  0  0  0
   35.1697   12.6504  -12.9922 C   0  0  0  0  0  0  0  0  0  0  0  0
   33.9795   14.0249  -13.1026 S   0  0  0  0  0  0  0  0  0  0  0  0
   35.0275   13.9602  -14.6053 C   0  0  0  0  0  0  0  0  0  0  0  0
  7  8  2  0  0  0
  8  9  1  0  0  0
  8  1  1  0  0  0
  1  2  2  0  0  0
  2  3  1  0  0  0
  3  4  2  0  0  0
  4 11  1  0  0  0
 11 12  1  0  0  0
 12 13  1  0  0  0
 13 14  1  0  0  0
 14 15  1  0  0  0
  4  5  1  0  0  0
  5  6  2  0  0  0
  6  1  1  0  0  0
 15 12  1  0  0  0
  9 10  1  0  0  0
M  END
> <minimizedAffinity>
-6.53269

> <CNNscore>
0.5748765469

> <CNNaffinity>
4.5032458305

> <CNN_VS>
2.5888104439

> <CNNaffinity_variance>
0.3067130446

$$$$
[H]OC(=O)c1c([H])c([H])c(OC2([H])C([H])([H])SC2([H])[H])c([H])c1[H]


 15 16  0  0  0  0  0  0  0  0999 V2000
   40.3041   12.6928  -15.7167 C   0  0  0  0  0  0  0  0  0  0  0  0
   39.5916   13.3112  -14.6993 C   0  0  0  0  0  0  0  0  0  0  0  0
   38.2204   13.1021  -14.6012 C   0  0  0  0  0  0  0  0  0  0  0  0
   37.5314   12.2991  -15.4801 C   0  0  0  0  0  0  0  0  0  0  0  0
   38.2554   11.6859  -16.4937 C   0  0  0  0  0  0  0  0  0  0  0  0
   39.6313   11.8816  -16.6109 C   0  0  0  0  0  0  0  0  0  0  0  0
   42.3907   12.4226  -16.7811 O   0  0  0  0  0  0  0  0  0  0  0  0
   41.7489   12.9139  -15.8188 C   0  0  0  0  0  0  0  0  0  0  0  0
   42.4040   13.6626  -14.8565 O   0  0  0  0  0  0  0  0  0  0  0  0
   42.8969   13.1643  -14.1143 H   0  0  0  0  0  0  0  0  0  0  0  0
   36.2268   12.0934  -15.3958 O   0  0  0  0  0  0  0  0  0  0  0  0
   35.1741   11.7434  -16.1241 C   0  0  0  0  0  0  0  0  0  0  0  0
   35.1235   10.3304  -16.7230 C   0  0  0  0  0  0  0  0  0  0  0  0
   33.4093   10.7473  -17.1762 S   0  0  0  0  0  0  0  0  0  0  0  0
   33.8326   11.4589  -15.5407 C   0  0  0  0  0  0  0  0  0  0  0  0
  7  8  2  0  0  0
  8  9  1  0  0  0
  8  1  1  0  0  0
  1  2  2  0  0  0
  2  3  1  0  0  0
  3  4  2  0  0  0
  4 11  1  0  0  0
 11 12  1  0  0  0
 12 13  1  0  0  0
 13 14  1  0  0  0
 14 15  1  0  0  0
  4  5  1  0  0  0
  5  6  2  0  0  0
  6  1  1  0  0  0
 15 12  1  0  0  0
  9 10  1  0  0  0
M  END
> <minimizedAffinity>
-5.49062

> <CNNscore>
0.5450327396

> <CNNaffinity>
4.7233529091

> <CNN_VS>
2.5743820667

> <CNNaffinity_variance>
0.1682533920

$$$$
[H]OC(=O)c1c([H])c([H])c(OC2([H])C([H])([H])SC2([H])[H])c([H])c1[H]


 15 16  0  0  0  0  0  0  0  0999 V2000
   39.7106   14.1748  -14.1258 C   0  0  0  0  0  0  0  0  0  0  0  0
   40.1997   13.3524  -15.1308 C   0  0  0  0  0  0  0  0  0  0  0  0
   39.3176   12.5518  -15.8478 C   0  0  0  0  0  0  0  0  0  0  0  0
   37.9645   12.5394  -15.6010 C   0  0  0  0  0  0  0  0  0  0  0  0
   37.4872   13.3665  -14.5930 C   0  0  0  0  0  0  0  0  0  0  0  0
   38.3540   14.1778  -13.8612 C   0  0  0  0  0  0  0  0  0  0  0  0
   40.3377   16.2099  -13.1134 O   0  0  0  0  0  0  0  0  0  0  0  0
   40.6412   15.0179  -13.3710 C   0  0  0  0  0  0  0  0  0  0  0  0
   41.8519   14.5011  -12.9433 O   0  0  0  0  0  0  0  0  0  0  0  0
   42.6836   14.7046  -13.4991 H   0  0  0  0  0  0  0  0  0  0  0  0
   37.1164   11.7815  -16.2773 O   0  0  0  0  0  0  0  0  0  0  0  0
   35.8233   11.6340  -16.5368 C   0  0  0  0  0  0  0  0  0  0  0  0
   35.2891   10.2338  -16.8710 C   0  0  0  0  0  0  0  0  0  0  0  0
   33.6407   11.0003  -16.7565 S   0  0  0  0  0  0  0  0  0  0  0  0
   34.7648   11.7019  -15.4899 C   0  0  0  0  0  0  0  0  0  0  0  0
  7  8  2  0  0  0
  8  9  1  0  0  0
  8  1  1  0  0  0
  1  2  2  0  0  0
  2  3  1  0  0  0
  3  4  2  0  0  0
  4 11  1  0  0  0
 11 12  1  0  0  0
 12 13  1  0  0  0
 13 14  1  0  0  0
 14 15  1  0  0  0
  4  5  1  0  0  0
  5  6  2  0  0  0
  6  1  1  0  0  0
 15 12  1  0  0  0
  9 10  1  0  0  0
M  END
> <minimizedAffinity>
-5.53482

> <CNNscore>
0.4833119214

> <CNNaffinity>
4.5682082176

> <CNN_VS>
2.2078695297

> <CNNaffinity_variance>
0.1635183394

$$$$
[H]OC(=O)c1c([H])c([H])c(OC2([H])C([H])([H])SC2([H])[H])c([H])c1[H]


 15 16  0  0  0  0  0  0  0  0999 V2000
   36.6973   15.1570  -12.1559 C   0  0  0  0  0  0  0  0  0  0  0  0
   35.5466   14.3919  -12.0303 C   0  0  0  0  0  0  0  0  0  0  0  0
   35.2704   13.4131  -12.9785 C   0  0  0  0  0  0  0  0  0  0  0  0
   36.0986   13.1676  -14.0488 C   0  0  0  0  0  0  0  0  0  0  0  0
   37.2469   13.9396  -14.1636 C   0  0  0  0  0  0  0  0  0  0  0  0
   37.5436   14.9268  -13.2242 C   0  0  0  0  0  0  0  0  0  0  0  0
   37.6630   15.8988  -10.1368 O   0  0  0  0  0  0  0  0  0  0  0  0
   36.9871   16.1880  -11.1561 C   0  0  0  0  0  0  0  0  0  0  0  0
   36.5166   17.4773  -11.3352 O   0  0  0  0  0  0  0  0  0  0  0  0
   35.6647   17.7498  -10.8431 H   0  0  0  0  0  0  0  0  0  0  0  0
   35.8453   12.2388  -14.9568 O   0  0  0  0  0  0  0  0  0  0  0  0
   34.9126   11.8391  -15.8120 C   0  0  0  0  0  0  0  0  0  0  0  0
   35.1958   10.6203  -16.7019 C   0  0  0  0  0  0  0  0  0  0  0  0
   33.4395   10.7426  -17.1690 S   0  0  0  0  0  0  0  0  0  0  0  0
   33.6618   11.1446  -15.3943 C   0  0  0  0  0  0  0  0  0  0  0  0
  7  8  2  0  0  0
  8  9  1  0  0  0
  8  1  1  0  0  0
  1  2  2  0  0  0
  2  3  1  0  0  0
  3  4  2  0  0  0
  4 11  1  0  0  0
 11 12  1  0  0  0
 12 13  1  0  0  0
 13 14  1  0  0  0
 14 15  1  0  0  0
  4  5  1  0  0  0
  5  6  2  0  0  0
  6  1  1  0  0  0
 15 12  1  0  0  0
  9 10  1  0  0  0
M  END
> <minimizedAffinity>
-4.87045

> <CNNscore>
0.4497477412

> <CNNaffinity>
4.3219137192

> <CNN_VS>
1.9437708855

> <CNNaffinity_variance>
0.2402469367

$$$$
[H]OC(=O)c1c([H])c([H])c(OC2([H])C([H])([H])SC2([H])[H])c([H])c1[H]


 15 16  0  0  0  0  0  0  0  0999 V2000
   36.6264   13.8250  -12.6943 C   0  0  0  0  0  0  0  0  0  0  0  0
   37.6002   14.7160  -13.1224 C   0  0  0  0  0  0  0  0  0  0  0  0
   38.5114   14.3168  -14.0939 C   0  0  0  0  0  0  0  0  0  0  0  0
   38.4891   13.0615  -14.6557 C   0  0  0  0  0  0  0  0  0  0  0  0
   37.5101   12.1790  -14.2191 C   0  0  0  0  0  0  0  0  0  0  0  0
   36.5860   12.5583  -13.2458 C   0  0  0  0  0  0  0  0  0  0  0  0
   34.5874   14.7925  -12.0116 O   0  0  0  0  0  0  0  0  0  0  0  0
   35.6670   14.2469  -11.6706 C   0  0  0  0  0  0  0  0  0  0  0  0
   35.9505   14.0444  -10.3311 O   0  0  0  0  0  0  0  0  0  0  0  0
   36.3200   14.8304   -9.7947 H   0  0  0  0  0  0  0  0  0  0  0  0
   39.3513   12.6714  -15.5807 O   0  0  0  0  0  0  0  0  0  0  0  0
   39.4181   12.2540  -16.8386 C   0  0  0  0  0  0  0  0  0  0  0  0
   40.7980   12.0686  -17.4861 C   0  0  0  0  0  0  0  0  0  0  0  0
   39.8825   11.3007  -18.8608 S   0  0  0  0  0  0  0  0  0  0  0  0
   39.1225   10.8534  -17.2537 C   0  0  0  0  0  0  0  0  0  0  0  0
  7  8  2  0  0  0
  8  9  1  0  0  0
  8  1  1  0  0  0
  1  2  2  0  0  0
  2  3  1  0  0  0
  3  4  2  0  0  0
  4 11  1  0  0  0
 11 12  1  0  0  0
 12 13  1  0  0  0
 13 14  1  0  0  0
 14 15  1  0  0  0
  4  5  1  0  0  0
  5  6  2  0  0  0
  6  1  1  0  0  0
 15 12  1  0  0  0
  9 10  1  0  0  0
M  END
> <minimizedAffinity>
-5.21547

> <CNNscore>
0.3912691176

> <CNNaffinity>
4.2327165604

> <CNN_VS>
1.6561312675

> <CNNaffinity_variance>
0.3009849787

$$$$
[H]OC(=O)c1c([H])c([H])c(OC2([H])C([H])([H])SC2([H])[H])c([H])c1[H]


 15 16  0  0  0  0  0  0  0  0999 V2000
   35.9239   15.8158   -8.5518 C   0  0  0  0  0  0  0  0  0  0  0  0
   36.9235   15.0763   -9.1678 C   0  0  0  0  0  0  0  0  0  0  0  0
   36.7812   14.7146  -10.5028 C   0  0  0  0  0  0  0  0  0  0  0  0
   35.6788   15.0622  -11.2484 C   0  0  0  0  0  0  0  0  0  0  0  0
   34.6856   15.8022  -10.6210 C   0  0  0  0  0  0  0  0  0  0  0  0
   34.8075   16.1759   -9.2829 C   0  0  0  0  0  0  0  0  0  0  0  0
   37.2228   16.3756   -6.6652 O   0  0  0  0  0  0  0  0  0  0  0  0
   36.0752   16.1964   -7.1451 C   0  0  0  0  0  0  0  0  0  0  0  0
   34.9555   16.3577   -6.3477 O   0  0  0  0  0  0  0  0  0  0  0  0
   34.6869   15.5859   -5.7360 H   0  0  0  0  0  0  0  0  0  0  0  0
   35.5334   14.7232  -12.5193 O   0  0  0  0  0  0  0  0  0  0  0  0
   35.9852   13.8739  -13.4334 C   0  0  0  0  0  0  0  0  0  0  0  0
   35.5364   12.4068  -13.3687 C   0  0  0  0  0  0  0  0  0  0  0  0
   36.3519   12.2433  -14.9892 S   0  0  0  0  0  0  0  0  0  0  0  0
   35.5209   13.8713  -14.8496 C   0  0  0  0  0  0  0  0  0  0  0  0
  7  8  2  0  0  0
  8  9  1  0  0  0
  8  1  1  0  0  0
  1  2  2  0  0  0
  2  3  1  0  0  0
  3  4  2  0  0  0
  4 11  1  0  0  0
 11 12  1  0  0  0
 12 13  1  0  0  0
 13 14  1  0  0  0
 14 15  1  0  0  0
  4  5  1  0  0  0
  5  6  2  0  0  0
  6  1  1  0  0  0
 15 12  1  0  0  0
  9 10  1  0  0  0
M  END
> <minimizedAffinity>
-3.61197

> <CNNscore>
0.3357428014

> <CNNaffinity>
3.6311564445

> <CNN_VS>
1.2191346884

> <CNNaffinity_variance>
0.3540312052

$$$$
[H]OC(=O)c1c([H])c([H])c(OC2([H])C([H])([H])SC2([H])[H])c([H])c1[H]


 15 16  0  0  0  0  0  0  0  0999 V2000
   40.4914   12.7480  -15.8489 C   0  0  0  0  0  0  0  0  0  0  0  0
   39.9647   13.4606  -14.7811 C   0  0  0  0  0  0  0  0  0  0  0  0
   38.6021   13.3843  -14.5149 C   0  0  0  0  0  0  0  0  0  0  0  0
   37.7431   12.6237  -15.2737 C   0  0  0  0  0  0  0  0  0  0  0  0
   38.2821   11.9153  -16.3393 C   0  0  0  0  0  0  0  0  0  0  0  0
   39.6459   11.9772  -16.6244 C   0  0  0  0  0  0  0  0  0  0  0  0
   42.6819   13.4618  -15.3471 O   0  0  0  0  0  0  0  0  0  0  0  0
   41.9274   12.8293  -16.1281 C   0  0  0  0  0  0  0  0  0  0  0  0
   42.4502   12.2102  -17.2502 O   0  0  0  0  0  0  0  0  0  0  0  0
   42.6233   12.7829  -18.0773 H   0  0  0  0  0  0  0  0  0  0  0  0
   36.4450   12.5441  -15.0292 O   0  0  0  0  0  0  0  0  0  0  0  0
   35.4589   13.1707  -14.3999 C   0  0  0  0  0  0  0  0  0  0  0  0
   34.0191   12.6759  -14.5995 C   0  0  0  0  0  0  0  0  0  0  0  0
   33.5941   13.8407  -13.2652 S   0  0  0  0  0  0  0  0  0  0  0  0
   35.2140   13.0487  -12.9349 C   0  0  0  0  0  0  0  0  0  0  0  0
  7  8  2  0  0  0
  8  9  1  0  0  0
  8  1  1  0  0  0
  1  2  2  0  0  0
  2  3  1  0  0  0
  3  4  2  0  0  0
  4 11  1  0  0  0
 11 12  1  0  0  0
 12 13  1  0  0  0
 13 14  1  0  0  0
 14 15  1  0  0  0
  4  5  1  0  0  0
  5  6  2  0  0  0
  6  1  1  0  0  0
 15 12  1  0  0  0
  9 10  1  0  0  0
M  END
> <minimizedAffinity>
-5.74322

> <CNNscore>
0.3267992735

> <CNNaffinity>
4.2034502029

> <CNN_VS>
1.3736845255

> <CNNaffinity_variance>
0.1676540226

$$$$
[H]OC(=O)c1c([H])c([H])c(OC2([H])C([H])([H])SC2([H])[H])c([H])c1[H]


 15 16  0  0  0  0  0  0  0  0999 V2000
   37.1683   18.3300   -8.5978 C   0  0  0  0  0  0  0  0  0  0  0  0
   36.0113   17.6595   -8.2274 C   0  0  0  0  0  0  0  0  0  0  0  0
   35.4583   16.7225   -9.0932 C   0  0  0  0  0  0  0  0  0  0  0  0
   36.0153   16.4280  -10.3159 C   0  0  0  0  0  0  0  0  0  0  0  0
   37.1728   17.1055  -10.6751 C   0  0  0  0  0  0  0  0  0  0  0  0
   37.7446   18.0492   -9.8223 C   0  0  0  0  0  0  0  0  0  0  0  0
   37.5947   19.1897   -6.4440 O   0  0  0  0  0  0  0  0  0  0  0  0
   37.7500   19.3171   -7.6845 C   0  0  0  0  0  0  0  0  0  0  0  0
   38.4688   20.3871   -8.1887 O   0  0  0  0  0  0  0  0  0  0  0  0
   37.9920   21.2851   -8.2796 H   0  0  0  0  0  0  0  0  0  0  0  0
   35.4972   15.5382  -11.1473 O   0  0  0  0  0  0  0  0  0  0  0  0
   35.6859   14.3112  -11.6164 C   0  0  0  0  0  0  0  0  0  0  0  0
   34.8545   13.8411  -12.8187 C   0  0  0  0  0  0  0  0  0  0  0  0
   35.9564   12.3907  -12.8214 S   0  0  0  0  0  0  0  0  0  0  0  0
   36.8922   13.9077  -12.3929 C   0  0  0  0  0  0  0  0  0  0  0  0
  7  8  2  0  0  0
  8  9  1  0  0  0
  8  1  1  0  0  0
  1  2  2  0  0  0
  2  3  1  0  0  0
  3  4  2  0  0  0
  4 11  1  0  0  0
 11 12  1  0  0  0
 12 13  1  0  0  0
 13 14  1  0  0  0
 14 15  1  0  0  0
  4  5  1  0  0  0
  5  6  2  0  0  0
  6  1  1  0  0  0
 15 12  1  0  0  0
  9 10  1  0  0  0
M  END
> <minimizedAffinity>
-3.92091

> <CNNscore>
0.2867043912

> <CNNaffinity>
3.4087479115

> <CNN_VS>
0.9773029685

> <CNNaffinity_variance>
0.4881803989

$$$$
[H]C([H])=C([H])C(=O)N([H])C([H])([H])C([H])([H])C([H])([H])C([H])([H])[C@@]([H])(C(=O)N1C([H])([H])C([H])([H])N(c2c([H])c([H])c([H])c(C([H])([H])[H])c2[H])C([H])([H])C1([H])[H])N([H])C(=O)C([H])([H])c1c([H])c([H])c([H])c([H])c1[H]


 37 39  0  0  0  0  0  0  0  0999 V2000
   38.7542   15.2336  -12.6384 C   0  0  0  0  0  0  0  0  0  0  0  0
   39.5174   15.9106  -11.5781 C   0  0  0  0  0  0  0  0  0  0  0  0
   40.4629   16.6987  -11.9356 O   0  0  0  0  0  0  0  0  0  0  0  0
   39.2657   15.7435  -10.2021 N   0  0  0  0  0  0  0  0  0  0  0  0
   38.2133   14.9030   -9.7105 C   0  0  0  0  0  0  0  0  0  0  0  0
   37.6411   15.5333   -8.4451 C   0  0  0  0  0  0  0  0  0  0  0  0
   38.7152   15.5777   -7.4711 N   0  0  0  0  0  0  0  0  0  0  0  0
   40.0706   15.5966   -7.9321 C   0  0  0  0  0  0  0  0  0  0  0  0
   40.0789   16.4377   -9.2085 C   0  0  0  0  0  0  0  0  0  0  0  0
   38.4262   15.6111   -6.0825 C   0  0  0  0  0  0  0  0  0  0  0  0
   38.5055   14.4179   -5.3701 C   0  0  0  0  0  0  0  0  0  0  0  0
   38.2362   14.4239   -4.0252 C   0  0  0  0  0  0  0  0  0  0  0  0
   37.8913   15.5703   -3.3614 C   0  0  0  0  0  0  0  0  0  0  0  0
   37.8058   16.7618   -4.0411 C   0  0  0  0  0  0  0  0  0  0  0  0
   37.4361   18.0144   -3.3626 C   0  0  0  0  0  0  0  0  0  0  0  0
   38.0788   16.7510   -5.3985 C   0  0  0  0  0  0  0  0  0  0  0  0
   39.5537   14.1115  -13.1887 N   0  0  0  0  0  0  0  0  0  0  0  0
   39.9938   14.1330  -14.5244 C   0  0  0  0  0  0  0  0  0  0  0  0
   39.7011   15.1161  -15.2487 O   0  0  0  0  0  0  0  0  0  0  0  0
   39.7657   13.3370  -12.5630 H   0  0  0  0  0  0  0  0  0  0  0  0
   40.7838   13.0130  -15.0463 C   0  0  0  0  0  0  0  0  0  0  0  0
   40.1755   12.3464  -16.1990 C   0  0  0  0  0  0  0  0  0  0  0  0
   38.9032   11.8195  -16.0376 C   0  0  0  0  0  0  0  0  0  0  0  0
   38.2521   11.1714  -17.0700 C   0  0  0  0  0  0  0  0  0  0  0  0
   38.8452   11.0260  -18.2971 C   0  0  0  0  0  0  0  0  0  0  0  0
   40.1065   11.5425  -18.4749 C   0  0  0  0  0  0  0  0  0  0  0  0
   40.7597   12.1947  -17.4334 C   0  0  0  0  0  0  0  0  0  0  0  0
   37.5061   14.5398  -12.1074 C   0  0  0  0  0  0  0  0  0  0  0  0
   36.6149   13.9934  -13.1727 C   0  0  0  0  0  0  0  0  0  0  0  0
   35.2834   13.4752  -12.6508 C   0  0  0  0  0  0  0  0  0  0  0  0
   34.1518   13.8755  -13.5325 C   0  0  0  0  0  0  0  0  0  0  0  0
   34.0986   12.0529  -15.2215 C   0  0  0  0  0  0  0  0  0  0  0  0
   35.2192   12.4466  -15.7108 O   0  0  0  0  0  0  0  0  0  0  0  0
   33.5146   12.7224  -14.1283 N   0  0  0  0  0  0  0  0  0  0  0  0
   32.5934   12.3964  -13.7171 H   0  0  0  0  0  0  0  0  0  0  0  0
   33.4770   10.6946  -17.1238 C   0  0  0  0  0  0  0  0  0  0  0  0
   33.4696   10.9128  -15.8280 C   0  0  0  0  0  0  0  0  0  0  0  0
 36 37  2  0  0  0
 37 32  1  0  0  0
 32 33  2  0  0  0
 32 34  1  0  0  0
 34 31  1  0  0  0
 31 30  1  0  0  0
 30 29  1  0  0  0
 29 28  1  0  0  0
 28  1  1  0  0  0
  1 17  1  0  0  0
 17 18  1  0  0  0
 18 19  2  0  0  0
 18 21  1  0  0  0
 21 22  1  0  0  0
 22 23  2  0  0  0
 23 24  1  0  0  0
 24 25  2  0  0  0
 25 26  1  0  0  0
 26 27  2  0  0  0
  1  2  1  0  0  0
  2  3  2  0  0  0
  2  4  1  0  0  0
  4  5  1  0  0  0
  5  6  1  0  0  0
  6  7  1  0  0  0
  7 10  1  0  0  0
 10 11  2  0  0  0
 11 12  1  0  0  0
 12 13  2  0  0  0
 13 14  1  0  0  0
 14 15  1  0  0  0
 14 16  2  0  0  0
  7  8  1  0  0  0
  8  9  1  0  0  0
 27 22  1  0  0  0
  9  4  1  0  0  0
 16 10  1  0  0  0
 34 35  1  0  0  0
 17 20  1  0  0  0
M  END
> <minimizedAffinity>
-8.10858

> <CNNscore>
0.4695491493

> <CNNaffinity>
6.6799988747

> <CNN_VS>
3.1365878582

> <CNNaffinity_variance>
0.0659687072

$$$$
[H]C([H])=C([H])C(=O)N([H])C([H])([H])C([H])([H])C([H])([H])C([H])([H])[C@@]([H])(C(=O)N1C([H])([H])C([H])([H])N(c2c([H])c([H])c([H])c(C([H])([H])[H])c2[H])C([H])([H])C1([H])[H])N([H])C(=O)C([H])([H])c1c([H])c([H])c([H])c([H])c1[H]


 37 39  0  0  0  0  0  0  0  0999 V2000
   37.5899   15.0055  -12.7308 C   0  0  0  0  0  0  0  0  0  0  0  0
   37.3105   14.8879  -11.2910 C   0  0  0  0  0  0  0  0  0  0  0  0
   37.2865   13.7112  -10.7833 O   0  0  0  0  0  0  0  0  0  0  0  0
   37.0727   15.9897  -10.4459 N   0  0  0  0  0  0  0  0  0  0  0  0
   37.1049   17.3423  -10.9202 C   0  0  0  0  0  0  0  0  0  0  0  0
   37.6652   18.2303   -9.8141 C   0  0  0  0  0  0  0  0  0  0  0  0
   36.7510   18.1363   -8.6917 N   0  0  0  0  0  0  0  0  0  0  0  0
   35.9329   16.9689   -8.5579 C   0  0  0  0  0  0  0  0  0  0  0  0
   36.7852   15.7905   -9.0288 C   0  0  0  0  0  0  0  0  0  0  0  0
   36.6755   19.1820   -7.7358 C   0  0  0  0  0  0  0  0  0  0  0  0
   36.9931   20.4717   -8.1524 C   0  0  0  0  0  0  0  0  0  0  0  0
   36.9229   21.5015   -7.2491 C   0  0  0  0  0  0  0  0  0  0  0  0
   36.5491   21.2985   -5.9479 C   0  0  0  0  0  0  0  0  0  0  0  0
   36.2305   20.0351   -5.5109 C   0  0  0  0  0  0  0  0  0  0  0  0
   35.8263   19.7772   -4.1194 C   0  0  0  0  0  0  0  0  0  0  0  0
   36.3024   18.9987   -6.4262 C   0  0  0  0  0  0  0  0  0  0  0  0
   38.5231   13.9296  -13.1467 N   0  0  0  0  0  0  0  0  0  0  0  0
   39.4966   14.1675  -14.1335 C   0  0  0  0  0  0  0  0  0  0  0  0
   39.5673   15.3049  -14.6608 O   0  0  0  0  0  0  0  0  0  0  0  0
   38.4268   13.0246  -12.6905 H   0  0  0  0  0  0  0  0  0  0  0  0
   40.4089   13.0890  -14.5278 C   0  0  0  0  0  0  0  0  0  0  0  0
   40.1215   12.5238  -15.8472 C   0  0  0  0  0  0  0  0  0  0  0  0
   39.0595   11.6381  -15.9482 C   0  0  0  0  0  0  0  0  0  0  0  0
   38.7165   11.0538  -17.1527 C   0  0  0  0  0  0  0  0  0  0  0  0
   39.4187   11.3315  -18.2967 C   0  0  0  0  0  0  0  0  0  0  0  0
   40.4746   12.2076  -18.2149 C   0  0  0  0  0  0  0  0  0  0  0  0
   40.8177   12.7944  -17.0005 C   0  0  0  0  0  0  0  0  0  0  0  0
   36.3580   14.7439  -13.5881 C   0  0  0  0  0  0  0  0  0  0  0  0
   35.0736   14.7628  -12.8282 C   0  0  0  0  0  0  0  0  0  0  0  0
   33.9066   14.1447  -13.5829 C   0  0  0  0  0  0  0  0  0  0  0  0
   33.9020   12.6595  -13.4714 C   0  0  0  0  0  0  0  0  0  0  0  0
   34.6811   11.6412  -15.6006 C   0  0  0  0  0  0  0  0  0  0  0  0
   35.9070   11.8181  -15.2597 O   0  0  0  0  0  0  0  0  0  0  0  0
   33.6318   12.0360  -14.7476 N   0  0  0  0  0  0  0  0  0  0  0  0
   32.6190   11.8852  -15.0220 H   0  0  0  0  0  0  0  0  0  0  0  0
   33.2354   10.6084  -17.2416 C   0  0  0  0  0  0  0  0  0  0  0  0
   34.4246   11.0302  -16.8750 C   0  0  0  0  0  0  0  0  0  0  0  0
 36 37  2  0  0  0
 37 32  1  0  0  0
 32 33  2  0  0  0
 32 34  1  0  0  0
 34 31  1  0  0  0
 31 30  1  0  0  0
 30 29  1  0  0  0
 29 28  1  0  0  0
 28  1  1  0  0  0
  1 17  1  0  0  0
 17 18  1  0  0  0
 18 19  2  0  0  0
 18 21  1  0  0  0
 21 22  1  0  0  0
 22 23  2  0  0  0
 23 24  1  0  0  0
 24 25  2  0  0  0
 25 26  1  0  0  0
 26 27  2  0  0  0
  1  2  1  0  0  0
  2  3  2  0  0  0
  2  4  1  0  0  0
  4  5  1  0  0  0
  5  6  1  0  0  0
  6  7  1  0  0  0
  7 10  1  0  0  0
 10 11  2  0  0  0
 11 12  1  0  0  0
 12 13  2  0  0  0
 13 14  1  0  0  0
 14 15  1  0  0  0
 14 16  2  0  0  0
  7  8  1  0  0  0
  8  9  1  0  0  0
 27 22  1  0  0  0
  9  4  1  0  0  0
 16 10  1  0  0  0
 34 35  1  0  0  0
 17 20  1  0  0  0
M  END
> <minimizedAffinity>
-7.48155

> <CNNscore>
0.4321159124

> <CNNaffinity>
6.7599043846

> <CNN_VS>
2.9210622311

> <CNNaffinity_variance>
0.0589000583

$$$$
[H]C([H])=C([H])C(=O)N([H])C([H])([H])C([H])([H])C([H])([H])C([H])([H])[C@@]([H])(C(=O)N1C([H])([H])C([H])([H])N(c2c([H])c([H])c([H])c(C([H])([H])[H])c2[H])C([H])([H])C1([H])[H])N([H])C(=O)C([H])([H])c1c([H])c([H])c([H])c([H])c1[H]


 37 39  0  0  0  0  0  0  0  0999 V2000
   39.3433   14.6039  -13.1621 C   0  0  0  0  0  0  0  0  0  0  0  0
   39.5395   15.7568  -12.2692 C   0  0  0  0  0  0  0  0  0  0  0  0
   40.4115   16.6323  -12.6101 O   0  0  0  0  0  0  0  0  0  0  0  0
   38.8248   15.9511  -11.0708 N   0  0  0  0  0  0  0  0  0  0  0  0
   37.8136   15.0385  -10.6233 C   0  0  0  0  0  0  0  0  0  0  0  0
   36.7196   15.8347   -9.9196 C   0  0  0  0  0  0  0  0  0  0  0  0
   37.3331   16.4733   -8.7706 N   0  0  0  0  0  0  0  0  0  0  0  0
   38.7411   16.7327   -8.7894 C   0  0  0  0  0  0  0  0  0  0  0  0
   39.0887   17.1136  -10.2285 C   0  0  0  0  0  0  0  0  0  0  0  0
   36.5476   16.8434   -7.6486 C   0  0  0  0  0  0  0  0  0  0  0  0
   35.1901   17.0762   -7.8500 C   0  0  0  0  0  0  0  0  0  0  0  0
   34.4074   17.4301   -6.7808 C   0  0  0  0  0  0  0  0  0  0  0  0
   34.9222   17.5615   -5.5192 C   0  0  0  0  0  0  0  0  0  0  0  0
   36.2592   17.3374   -5.2930 C   0  0  0  0  0  0  0  0  0  0  0  0
   36.8495   17.4707   -3.9514 C   0  0  0  0  0  0  0  0  0  0  0  0
   37.0454   16.9800   -6.3752 C   0  0  0  0  0  0  0  0  0  0  0  0
   38.0427   14.7334  -13.8642 N   0  0  0  0  0  0  0  0  0  0  0  0
   37.1163   13.6752  -13.8572 C   0  0  0  0  0  0  0  0  0  0  0  0
   37.4035   12.6155  -13.2478 O   0  0  0  0  0  0  0  0  0  0  0  0
   37.8554   15.6115  -14.3441 H   0  0  0  0  0  0  0  0  0  0  0  0
   35.8366   13.8263  -14.5574 C   0  0  0  0  0  0  0  0  0  0  0  0
   35.4667   12.6668  -15.3708 C   0  0  0  0  0  0  0  0  0  0  0  0
   34.2190   12.1025  -15.1535 C   0  0  0  0  0  0  0  0  0  0  0  0
   33.7860   11.0047  -15.8728 C   0  0  0  0  0  0  0  0  0  0  0  0
   34.5801   10.4322  -16.8322 C   0  0  0  0  0  0  0  0  0  0  0  0
   35.8203   10.9789  -17.0610 C   0  0  0  0  0  0  0  0  0  0  0  0
   36.2535   12.0843  -16.3350 C   0  0  0  0  0  0  0  0  0  0  0  0
   40.3504   14.5721  -14.3047 C   0  0  0  0  0  0  0  0  0  0  0  0
   41.5881   13.7948  -14.0024 C   0  0  0  0  0  0  0  0  0  0  0  0
   42.5964   13.7818  -15.1412 C   0  0  0  0  0  0  0  0  0  0  0  0
   42.6322   12.4625  -15.8313 C   0  0  0  0  0  0  0  0  0  0  0  0
   40.6510   12.1888  -17.3070 C   0  0  0  0  0  0  0  0  0  0  0  0
   39.9343   11.8147  -16.3087 O   0  0  0  0  0  0  0  0  0  0  0  0
   42.0063   12.5313  -17.1329 N   0  0  0  0  0  0  0  0  0  0  0  0
   42.5993   12.8473  -17.9529 H   0  0  0  0  0  0  0  0  0  0  0  0
   39.5796   11.1772  -19.2249 C   0  0  0  0  0  0  0  0  0  0  0  0
   40.0214   12.2435  -18.5969 C   0  0  0  0  0  0  0  0  0  0  0  0
 36 37  2  0  0  0
 37 32  1  0  0  0
 32 33  2  0  0  0
 32 34  1  0  0  0
 34 31  1  0  0  0
 31 30  1  0  0  0
 30 29  1  0  0  0
 29 28  1  0  0  0
 28  1  1  0  0  0
  1 17  1  0  0  0
 17 18  1  0  0  0
 18 19  2  0  0  0
 18 21  1  0  0  0
 21 22  1  0  0  0
 22 23  2  0  0  0
 23 24  1  0  0  0
 24 25  2  0  0  0
 25 26  1  0  0  0
 26 27  2  0  0  0
  1  2  1  0  0  0
  2  3  2  0  0  0
  2  4  1  0  0  0
  4  5  1  0  0  0
  5  6  1  0  0  0
  6  7  1  0  0  0
  7 10  1  0  0  0
 10 11  2  0  0  0
 11 12  1  0  0  0
 12 13  2  0  0  0
 13 14  1  0  0  0
 14 15  1  0  0  0
 14 16  2  0  0  0
  7  8  1  0  0  0
  8  9  1  0  0  0
 27 22  1  0  0  0
  9  4  1  0  0  0
 16 10  1  0  0  0
 34 35  1  0  0  0
 17 20  1  0  0  0
M  END
> <minimizedAffinity>
-8.02302

> <CNNscore>
0.3267430067

> <CNNaffinity>
6.4803581238

> <CNN_VS>
2.1174116135

> <CNNaffinity_variance>
0.2280590981

$$$$
[H]C([H])=C([H])C(=O)N([H])C([H])([H])C([H])([H])C([H])([H])C([H])([H])[C@@]([H])(C(=O)N1C([H])([H])C([H])([H])N(c2c([H])c([H])c([H])c(C([H])([H])[H])c2[H])C([H])([H])C1([H])[H])N([H])C(=O)C([H])([H])c1c([H])c([H])c([H])c([H])c1[H]


 37 39  0  0  0  0  0  0  0  0999 V2000
   38.6588   14.8031  -13.3008 C   0  0  0  0  0  0  0  0  0  0  0  0
   39.5480   15.4719  -12.3381 C   0  0  0  0  0  0  0  0  0  0  0  0
   40.8006   15.5049  -12.6079 O   0  0  0  0  0  0  0  0  0  0  0  0
   39.1010   16.0760  -11.1464 N   0  0  0  0  0  0  0  0  0  0  0  0
   37.7165   16.1101  -10.7753 C   0  0  0  0  0  0  0  0  0  0  0  0
   37.4415   17.4236  -10.0507 C   0  0  0  0  0  0  0  0  0  0  0  0
   38.2601   17.4260   -8.8531 N   0  0  0  0  0  0  0  0  0  0  0  0
   39.4534   16.6351   -8.8257 C   0  0  0  0  0  0  0  0  0  0  0  0
   40.0484   16.7060  -10.2321 C   0  0  0  0  0  0  0  0  0  0  0  0
   37.8883   18.2076   -7.7290 C   0  0  0  0  0  0  0  0  0  0  0  0
   37.9324   17.6082   -6.4734 C   0  0  0  0  0  0  0  0  0  0  0  0
   37.5829   18.3437   -5.3697 C   0  0  0  0  0  0  0  0  0  0  0  0
   37.1916   19.6519   -5.4661 C   0  0  0  0  0  0  0  0  0  0  0  0
   37.1394   20.2676   -6.6937 C   0  0  0  0  0  0  0  0  0  0  0  0
   36.7217   21.6715   -6.8376 C   0  0  0  0  0  0  0  0  0  0  0  0
   37.4932   19.5214   -7.8051 C   0  0  0  0  0  0  0  0  0  0  0  0
   39.3647   13.6512  -13.9139 N   0  0  0  0  0  0  0  0  0  0  0  0
   39.9846   13.7769  -15.1701 C   0  0  0  0  0  0  0  0  0  0  0  0
   39.9335   14.8792  -15.7694 O   0  0  0  0  0  0  0  0  0  0  0  0
   39.3791   12.7785  -13.3898 H   0  0  0  0  0  0  0  0  0  0  0  0
   40.6775   12.6247  -15.7561 C   0  0  0  0  0  0  0  0  0  0  0  0
   39.9236   11.9592  -16.8198 C   0  0  0  0  0  0  0  0  0  0  0  0
   40.4865   11.9354  -18.0867 C   0  0  0  0  0  0  0  0  0  0  0  0
   39.8459   11.3317  -19.1520 C   0  0  0  0  0  0  0  0  0  0  0  0
   38.6239   10.7316  -18.9922 C   0  0  0  0  0  0  0  0  0  0  0  0
   38.0511   10.7456  -17.7428 C   0  0  0  0  0  0  0  0  0  0  0  0
   38.6986   11.3544  -16.6719 C   0  0  0  0  0  0  0  0  0  0  0  0
   37.4554   14.1528  -12.6301 C   0  0  0  0  0  0  0  0  0  0  0  0
   37.1945   12.7525  -13.0757 C   0  0  0  0  0  0  0  0  0  0  0  0
   35.8197   12.2318  -12.6850 C   0  0  0  0  0  0  0  0  0  0  0  0
   34.7434   12.8374  -13.5173 C   0  0  0  0  0  0  0  0  0  0  0  0
   34.9137   11.9762  -15.8425 C   0  0  0  0  0  0  0  0  0  0  0  0
   35.8568   12.8086  -16.1029 O   0  0  0  0  0  0  0  0  0  0  0  0
   34.3187   11.9374  -14.5662 N   0  0  0  0  0  0  0  0  0  0  0  0
   33.5451   11.2471  -14.3451 H   0  0  0  0  0  0  0  0  0  0  0  0
   33.3329   10.4770  -16.8930 C   0  0  0  0  0  0  0  0  0  0  0  0
   34.4930   11.0940  -16.8952 C   0  0  0  0  0  0  0  0  0  0  0  0
 36 37  2  0  0  0
 37 32  1  0  0  0
 32 33  2  0  0  0
 32 34  1  0  0  0
 34 31  1  0  0  0
 31 30  1  0  0  0
 30 29  1  0  0  0
 29 28  1  0  0  0
 28  1  1  0  0  0
  1 17  1  0  0  0
 17 18  1  0  0  0
 18 19  2  0  0  0
 18 21  1  0  0  0
 21 22  1  0  0  0
 22 23  2  0  0  0
 23 24  1  0  0  0
 24 25  2  0  0  0
 25 26  1  0  0  0
 26 27  2  0  0  0
  1  2  1  0  0  0
  2  3  2  0  0  0
  2  4  1  0  0  0
  4  5  1  0  0  0
  5  6  1  0  0  0
  6  7  1  0  0  0
  7 10  1  0  0  0
 10 11  2  0  0  0
 11 12  1  0  0  0
 12 13  2  0  0  0
 13 14  1  0  0  0
 14 15  1  0  0  0
 14 16  2  0  0  0
  7  8  1  0  0  0
  8  9  1  0  0  0
 27 22  1  0  0  0
  9  4  1  0  0  0
 16 10  1  0  0  0
 34 35  1  0  0  0
 17 20  1  0  0  0
M  END
> <minimizedAffinity>
-8.06527

> <CNNscore>
0.3012708127

> <CNNaffinity>
6.3783926964

> <CNN_VS>
1.9216235876

> <CNNaffinity_variance>
0.2687725127

$$$$
[H]C([H])=C([H])C(=O)N([H])C([H])([H])C([H])([H])C([H])([H])C([H])([H])[C@@]([H])(C(=O)N1C([H])([H])C([H])([H])N(c2c([H])c([H])c([H])c(C([H])([H])[H])c2[H])C([H])([H])C1([H])[H])N([H])C(=O)C([H])([H])c1c([H])c([H])c([H])c([H])c1[H]


 37 39  0  0  0  0  0  0  0  0999 V2000
   38.2057   15.2428  -12.5172 C   0  0  0  0  0  0  0  0  0  0  0  0
   38.5828   15.7078  -11.1732 C   0  0  0  0  0  0  0  0  0  0  0  0
   39.6316   16.4371  -11.0679 O   0  0  0  0  0  0  0  0  0  0  0  0
   37.8580   15.4002  -10.0050 N   0  0  0  0  0  0  0  0  0  0  0  0
   36.6597   14.6133  -10.0297 C   0  0  0  0  0  0  0  0  0  0  0  0
   35.7134   15.1382   -8.9550 C   0  0  0  0  0  0  0  0  0  0  0  0
   36.3801   14.9584   -7.6792 N   0  0  0  0  0  0  0  0  0  0  0  0
   37.8103   14.9002   -7.6448 C   0  0  0  0  0  0  0  0  0  0  0  0
   38.3060   15.8854   -8.7033 C   0  0  0  0  0  0  0  0  0  0  0  0
   35.6260   14.8509   -6.4823 C   0  0  0  0  0  0  0  0  0  0  0  0
   36.0793   13.9734   -5.5014 C   0  0  0  0  0  0  0  0  0  0  0  0
   35.3715   13.8548   -4.3326 C   0  0  0  0  0  0  0  0  0  0  0  0
   34.2305   14.5749   -4.1014 C   0  0  0  0  0  0  0  0  0  0  0  0
   33.7613   15.4482   -5.0532 C   0  0  0  0  0  0  0  0  0  0  0  0
   32.5374   16.2380   -4.8419 C   0  0  0  0  0  0  0  0  0  0  0  0
   34.4792   15.5649   -6.2314 C   0  0  0  0  0  0  0  0  0  0  0  0
   39.1819   14.2284  -12.9855 N   0  0  0  0  0  0  0  0  0  0  0  0
   39.7749   14.3377  -14.2561 C   0  0  0  0  0  0  0  0  0  0  0  0
   39.4675   15.3072  -14.9927 O   0  0  0  0  0  0  0  0  0  0  0  0
   39.3990   13.4609  -12.3528 H   0  0  0  0  0  0  0  0  0  0  0  0
   40.7379   13.3235  -14.6973 C   0  0  0  0  0  0  0  0  0  0  0  0
   40.2895   12.5448  -15.8529 C   0  0  0  0  0  0  0  0  0  0  0  0
   41.1063   12.5310  -16.9732 C   0  0  0  0  0  0  0  0  0  0  0  0
   40.7627   11.8253  -18.1106 C   0  0  0  0  0  0  0  0  0  0  0  0
   39.5951   11.1098  -18.1711 C   0  0  0  0  0  0  0  0  0  0  0  0
   38.7733   11.1122  -17.0693 C   0  0  0  0  0  0  0  0  0  0  0  0
   39.1219   11.8239  -15.9253 C   0  0  0  0  0  0  0  0  0  0  0  0
   36.8867   14.4804  -12.5227 C   0  0  0  0  0  0  0  0  0  0  0  0
   37.0204   13.0375  -12.8801 C   0  0  0  0  0  0  0  0  0  0  0  0
   35.7498   12.2313  -12.6573 C   0  0  0  0  0  0  0  0  0  0  0  0
   34.6405   12.6962  -13.5356 C   0  0  0  0  0  0  0  0  0  0  0  0
   35.0717   11.9140  -15.8549 C   0  0  0  0  0  0  0  0  0  0  0  0
   35.9133   12.8664  -16.0409 O   0  0  0  0  0  0  0  0  0  0  0  0
   34.4055   11.7715  -14.6220 N   0  0  0  0  0  0  0  0  0  0  0  0
   33.7155   10.9827  -14.4621 H   0  0  0  0  0  0  0  0  0  0  0  0
   34.0472    9.9627  -16.8514 C   0  0  0  0  0  0  0  0  0  0  0  0
   34.8385   11.0076  -16.9446 C   0  0  0  0  0  0  0  0  0  0  0  0
 36 37  2  0  0  0
 37 32  1  0  0  0
 32 33  2  0  0  0
 32 34  1  0  0  0
 34 31  1  0  0  0
 31 30  1  0  0  0
 30 29  1  0  0  0
 29 28  1  0  0  0
 28  1  1  0  0  0
  1 17  1  0  0  0
 17 18  1  0  0  0
 18 19  2  0  0  0
 18 21  1  0  0  0
 21 22  1  0  0  0
 22 23  2  0  0  0
 23 24  1  0  0  0
 24 25  2  0  0  0
 25 26  1  0  0  0
 26 27  2  0  0  0
  1  2  1  0  0  0
  2  3  2  0  0  0
  2  4  1  0  0  0
  4  5  1  0  0  0
  5  6  1  0  0  0
  6  7  1  0  0  0
  7 10  1  0  0  0
 10 11  2  0  0  0
 11 12  1  0  0  0
 12 13  2  0  0  0
 13 14  1  0  0  0
 14 15  1  0  0  0
 14 16  2  0  0  0
  7  8  1  0  0  0
  8  9  1  0  0  0
 27 22  1  0  0  0
  9  4  1  0  0  0
 16 10  1  0  0  0
 34 35  1  0  0  0
 17 20  1  0  0  0
M  END
> <minimizedAffinity>
-8.34636

> <CNNscore>
0.2435104698

> <CNNaffinity>
6.2798452377

> <CNN_VS>
1.5292080641

> <CNNaffinity_variance>
0.2174047232

$$$$
[H]C([H])=C([H])C(=O)N([H])C([H])([H])C([H])([H])C([H])([H])C([H])([H])[C@@]([H])(C(=O)N1C([H])([H])C([H])([H])N(c2c([H])c([H])c([H])c(C([H])([H])[H])c2[H])C([H])([H])C1([H])[H])N([H])C(=O)C([H])([H])c1c([H])c([H])c([H])c([H])c1[H]


 37 39  0  0  0  0  0  0  0  0999 V2000
   38.1180   15.3689  -12.6813 C   0  0  0  0  0  0  0  0  0  0  0  0
   39.0299   15.7536  -11.5925 C   0  0  0  0  0  0  0  0  0  0  0  0
   40.1236   16.3409  -11.9114 O   0  0  0  0  0  0  0  0  0  0  0  0
   38.7671   15.5162  -10.2289 N   0  0  0  0  0  0  0  0  0  0  0  0
   37.5593   14.8891   -9.7775 C   0  0  0  0  0  0  0  0  0  0  0  0
   37.1629   15.5074   -8.4409 C   0  0  0  0  0  0  0  0  0  0  0  0
   38.2334   15.2173   -7.5060 N   0  0  0  0  0  0  0  0  0  0  0  0
   39.5512   14.9767   -8.0115 C   0  0  0  0  0  0  0  0  0  0  0  0
   39.7305   15.9128   -9.2067 C   0  0  0  0  0  0  0  0  0  0  0  0
   37.9798   15.1815   -6.1105 C   0  0  0  0  0  0  0  0  0  0  0  0
   38.7218   16.0266   -5.2901 C   0  0  0  0  0  0  0  0  0  0  0  0
   38.4923   16.0153   -3.9379 C   0  0  0  0  0  0  0  0  0  0  0  0
   37.5538   15.1964   -3.3700 C   0  0  0  0  0  0  0  0  0  0  0  0
   36.8078   14.3524   -4.1573 C   0  0  0  0  0  0  0  0  0  0  0  0
   35.7912   13.4562   -3.5832 C   0  0  0  0  0  0  0  0  0  0  0  0
   37.0425   14.3674   -5.5218 C   0  0  0  0  0  0  0  0  0  0  0  0
   38.5192   14.0475  -13.2235 N   0  0  0  0  0  0  0  0  0  0  0  0
   39.2545   13.9569  -14.4191 C   0  0  0  0  0  0  0  0  0  0  0  0
   39.5687   15.0111  -15.0247 O   0  0  0  0  0  0  0  0  0  0  0  0
   38.2413   13.2217  -12.6970 H   0  0  0  0  0  0  0  0  0  0  0  0
   39.6409   12.6398  -14.9355 C   0  0  0  0  0  0  0  0  0  0  0  0
   38.6347   12.0264  -15.8040 C   0  0  0  0  0  0  0  0  0  0  0  0
   39.0812   11.3829  -16.9481 C   0  0  0  0  0  0  0  0  0  0  0  0
   38.2033   10.7776  -17.8272 C   0  0  0  0  0  0  0  0  0  0  0  0
   36.8521   10.7925  -17.5971 C   0  0  0  0  0  0  0  0  0  0  0  0
   36.3919   11.4259  -16.4674 C   0  0  0  0  0  0  0  0  0  0  0  0
   37.2783   12.0346  -15.5840 C   0  0  0  0  0  0  0  0  0  0  0  0
   36.6959   15.1239  -12.1929 C   0  0  0  0  0  0  0  0  0  0  0  0
   35.7904   14.5411  -13.2264 C   0  0  0  0  0  0  0  0  0  0  0  0
   34.5068   13.9568  -12.6565 C   0  0  0  0  0  0  0  0  0  0  0  0
   33.5744   15.0215  -12.1926 C   0  0  0  0  0  0  0  0  0  0  0  0
   31.2611   15.1318  -11.2905 C   0  0  0  0  0  0  0  0  0  0  0  0
   31.5847   16.1123  -10.5261 O   0  0  0  0  0  0  0  0  0  0  0  0
   32.2097   14.5456  -12.1512 N   0  0  0  0  0  0  0  0  0  0  0  0
   31.9449   13.7410  -12.7887 H   0  0  0  0  0  0  0  0  0  0  0  0
   29.2472   14.5049  -10.1068 C   0  0  0  0  0  0  0  0  0  0  0  0
   29.9053   14.6607  -11.2333 C   0  0  0  0  0  0  0  0  0  0  0  0
 36 37  2  0  0  0
 37 32  1  0  0  0
 32 33  2  0  0  0
 32 34  1  0  0  0
 34 31  1  0  0  0
 31 30  1  0  0  0
 30 29  1  0  0  0
 29 28  1  0  0  0
 28  1  1  0  0  0
  1 17  1  0  0  0
 17 18  1  0  0  0
 18 19  2  0  0  0
 18 21  1  0  0  0
 21 22  1  0  0  0
 22 23  2  0  0  0
 23 24  1  0  0  0
 24 25  2  0  0  0
 25 26  1  0  0  0
 26 27  2  0  0  0
  1  2  1  0  0  0
  2  3  2  0  0  0
  2  4  1  0  0  0
  4  5  1  0  0  0
  5  6  1  0  0  0
  6  7  1  0  0  0
  7 10  1  0  0  0
 10 11  2  0  0  0
 11 12  1  0  0  0
 12 13  2  0  0  0
 13 14  1  0  0  0
 14 15  1  0  0  0
 14 16  2  0  0  0
  7  8  1  0  0  0
  8  9  1  0  0  0
 27 22  1  0  0  0
  9  4  1  0  0  0
 16 10  1  0  0  0
 34 35  1  0  0  0
 17 20  1  0  0  0
M  END
> <minimizedAffinity>
-8.22397

> <CNNscore>
0.2267643809

> <CNNaffinity>
6.1434707642

> <CNN_VS>
1.3931202888

> <CNNaffinity_variance>
0.2569597363

$$$$
[H]C([H])=C([H])C(=O)N([H])C([H])([H])C([H])([H])C([H])([H])C([H])([H])[C@@]([H])(C(=O)N1C([H])([H])C([H])([H])N(c2c([H])c([H])c([H])c(C([H])([H])[H])c2[H])C([H])([H])C1([H])[H])N([H])C(=O)C([H])([H])c1c([H])c([H])c([H])c([H])c1[H]


 37 39  0  0  0  0  0  0  0  0999 V2000
   37.9007   14.7844  -13.2091 C   0  0  0  0  0  0  0  0  0  0  0  0
   38.3897   15.3487  -11.9412 C   0  0  0  0  0  0  0  0  0  0  0  0
   39.4547   16.0610  -11.9780 O   0  0  0  0  0  0  0  0  0  0  0  0
   37.7545   15.1529  -10.6991 N   0  0  0  0  0  0  0  0  0  0  0  0
   36.5459   14.3930  -10.5660 C   0  0  0  0  0  0  0  0  0  0  0  0
   35.6954   15.0240   -9.4685 C   0  0  0  0  0  0  0  0  0  0  0  0
   36.4577   14.9339   -8.2376 N   0  0  0  0  0  0  0  0  0  0  0  0
   37.8851   14.8474   -8.3091 C   0  0  0  0  0  0  0  0  0  0  0  0
   38.3111   15.7323   -9.4805 C   0  0  0  0  0  0  0  0  0  0  0  0
   35.7987   14.9405   -6.9812 C   0  0  0  0  0  0  0  0  0  0  0  0
   36.5178   15.3688   -5.8689 C   0  0  0  0  0  0  0  0  0  0  0  0
   35.9022   15.3899   -4.6434 C   0  0  0  0  0  0  0  0  0  0  0  0
   34.5996   15.0017   -4.4811 C   0  0  0  0  0  0  0  0  0  0  0  0
   33.8673   14.5746   -5.5628 C   0  0  0  0  0  0  0  0  0  0  0  0
   32.4653   14.1476   -5.4276 C   0  0  0  0  0  0  0  0  0  0  0  0
   34.4926   14.5553   -6.7980 C   0  0  0  0  0  0  0  0  0  0  0  0
   38.8126   13.7036  -13.6579 N   0  0  0  0  0  0  0  0  0  0  0  0
   39.7074   13.9170  -14.7219 C   0  0  0  0  0  0  0  0  0  0  0  0
   39.7256   15.0367  -15.2900 O   0  0  0  0  0  0  0  0  0  0  0  0
   38.7610   12.8136  -13.1664 H   0  0  0  0  0  0  0  0  0  0  0  0
   40.6002   12.8342  -15.1476 C   0  0  0  0  0  0  0  0  0  0  0  0
   42.0220   13.1386  -14.9782 C   0  0  0  0  0  0  0  0  0  0  0  0
   42.8508   12.9631  -16.0758 C   0  0  0  0  0  0  0  0  0  0  0  0
   44.2063   13.2233  -16.0080 C   0  0  0  0  0  0  0  0  0  0  0  0
   44.7822   13.6670  -14.8459 C   0  0  0  0  0  0  0  0  0  0  0  0
   43.9753   13.8468  -13.7478 C   0  0  0  0  0  0  0  0  0  0  0  0
   42.6106   13.5839  -13.8191 C   0  0  0  0  0  0  0  0  0  0  0  0
   36.5660   14.0666  -13.0526 C   0  0  0  0  0  0  0  0  0  0  0  0
   35.7387   14.0445  -14.2946 C   0  0  0  0  0  0  0  0  0  0  0  0
   34.2906   13.6429  -14.0586 C   0  0  0  0  0  0  0  0  0  0  0  0
   33.7083   14.3453  -12.8815 C   0  0  0  0  0  0  0  0  0  0  0  0
   31.5105   14.7835  -11.8067 C   0  0  0  0  0  0  0  0  0  0  0  0
   32.0738   15.4993  -10.9009 O   0  0  0  0  0  0  0  0  0  0  0  0
   32.2725   14.1830  -12.8280 N   0  0  0  0  0  0  0  0  0  0  0  0
   31.8107   13.5975  -13.5815 H   0  0  0  0  0  0  0  0  0  0  0  0
   29.4230   14.5710  -10.6036 C   0  0  0  0  0  0  0  0  0  0  0  0
   30.0850   14.6207  -11.7376 C   0  0  0  0  0  0  0  0  0  0  0  0
 36 37  2  0  0  0
 37 32  1  0  0  0
 32 33  2  0  0  0
 32 34  1  0  0  0
 34 31  1  0  0  0
 31 30  1  0  0  0
 30 29  1  0  0  0
 29 28  1  0  0  0
 28  1  1  0  0  0
  1 17  1  0  0  0
 17 18  1  0  0  0
 18 19  2  0  0  0
 18 21  1  0  0  0
 21 22  1  0  0  0
 22 23  2  0  0  0
 23 24  1  0  0  0
 24 25  2  0  0  0
 25 26  1  0  0  0
 26 27  2  0  0  0
  1  2  1  0  0  0
  2  3  2  0  0  0
  2  4  1  0  0  0
  4  5  1  0  0  0
  5  6  1  0  0  0
  6  7  1  0  0  0
  7 10  1  0  0  0
 10 11  2  0  0  0
 11 12  1  0  0  0
 12 13  2  0  0  0
 13 14  1  0  0  0
 14 15  1  0  0  0
 14 16  2  0  0  0
  7  8  1  0  0  0
  8  9  1  0  0  0
 27 22  1  0  0  0
  9  4  1  0  0  0
 16 10  1  0  0  0
 34 35  1  0  0  0
 17 20  1  0  0  0
M  END
> <minimizedAffinity>
-7.76261

> <CNNscore>
0.2071077973

> <CNNaffinity>
6.1268334389

> <CNN_VS>
1.2689149380

> <CNNaffinity_variance>
0.2265396565

$$$$
[H]C([H])=C([H])C(=O)N([H])C([H])([H])C([H])([H])C([H])([H])C([H])([H])[C@@]([H])(C(=O)N1C([H])([H])C([H])([H])N(c2c([H])c([H])c([H])c(C([H])([H])[H])c2[H])C([H])([H])C1([H])[H])N([H])C(=O)C([H])([H])c1c([H])c([H])c([H])c([H])c1[H]


 37 39  0  0  0  0  0  0  0  0999 V2000
   37.4986   14.4265  -12.5286 C   0  0  0  0  0  0  0  0  0  0  0  0
   37.9568   15.1178  -11.3133 C   0  0  0  0  0  0  0  0  0  0  0  0
   39.1496   15.5873  -11.3092 O   0  0  0  0  0  0  0  0  0  0  0  0
   37.1614   15.2932  -10.1638 N   0  0  0  0  0  0  0  0  0  0  0  0
   35.8085   14.8247  -10.0874 C   0  0  0  0  0  0  0  0  0  0  0  0
   35.0016   15.8093   -9.2476 C   0  0  0  0  0  0  0  0  0  0  0  0
   35.5853   15.8109   -7.9196 N   0  0  0  0  0  0  0  0  0  0  0  0
   36.9580   15.4347   -7.7636 C   0  0  0  0  0  0  0  0  0  0  0  0
   37.6940   15.9764   -8.9890 C   0  0  0  0  0  0  0  0  0  0  0  0
   34.8097   16.1884   -6.7932 C   0  0  0  0  0  0  0  0  0  0  0  0
   35.4801   16.6453   -5.6621 C   0  0  0  0  0  0  0  0  0  0  0  0
   34.7532   17.0216   -4.5615 C   0  0  0  0  0  0  0  0  0  0  0  0
   33.3858   16.9612   -4.5421 C   0  0  0  0  0  0  0  0  0  0  0  0
   32.6995   16.5139   -5.6456 C   0  0  0  0  0  0  0  0  0  0  0  0
   31.2299   16.4329   -5.6619 C   0  0  0  0  0  0  0  0  0  0  0  0
   33.4372   16.1354   -6.7544 C   0  0  0  0  0  0  0  0  0  0  0  0
   38.6114   13.6256  -13.0957 N   0  0  0  0  0  0  0  0  0  0  0  0
   39.3598   14.1089  -14.1840 C   0  0  0  0  0  0  0  0  0  0  0  0
   39.0744   15.2300  -14.6723 O   0  0  0  0  0  0  0  0  0  0  0  0
   38.8047   12.7231  -12.6659 H   0  0  0  0  0  0  0  0  0  0  0  0
   40.4559   13.3001  -14.7273 C   0  0  0  0  0  0  0  0  0  0  0  0
   40.1069   12.5761  -15.9508 C   0  0  0  0  0  0  0  0  0  0  0  0
   38.8892   11.9137  -15.9790 C   0  0  0  0  0  0  0  0  0  0  0  0
   38.4776   11.2029  -17.0904 C   0  0  0  0  0  0  0  0  0  0  0  0
   39.2639   11.1277  -18.2106 C   0  0  0  0  0  0  0  0  0  0  0  0
   40.4744   11.7787  -18.2002 C   0  0  0  0  0  0  0  0  0  0  0  0
   40.8862   12.4936  -17.0795 C   0  0  0  0  0  0  0  0  0  0  0  0
   36.4326   13.3778  -12.2372 C   0  0  0  0  0  0  0  0  0  0  0  0
   35.6454   12.9624  -13.4352 C   0  0  0  0  0  0  0  0  0  0  0  0
   34.6656   14.0197  -13.9207 C   0  0  0  0  0  0  0  0  0  0  0  0
   33.3170   13.8422  -13.3142 C   0  0  0  0  0  0  0  0  0  0  0  0
   31.8239   14.8931  -11.6279 C   0  0  0  0  0  0  0  0  0  0  0  0
   30.8808   14.0719  -11.9219 O   0  0  0  0  0  0  0  0  0  0  0  0
   33.0682   14.8268  -12.2850 N   0  0  0  0  0  0  0  0  0  0  0  0
   33.8514   15.4980  -12.0402 H   0  0  0  0  0  0  0  0  0  0  0  0
   30.9930   15.5817   -9.4633 C   0  0  0  0  0  0  0  0  0  0  0  0
   31.5619   15.8735  -10.6112 C   0  0  0  0  0  0  0  0  0  0  0  0
 36 37  2  0  0  0
 37 32  1  0  0  0
 32 33  2  0  0  0
 32 34  1  0  0  0
 34 31  1  0  0  0
 31 30  1  0  0  0
 30 29  1  0  0  0
 29 28  1  0  0  0
 28  1  1  0  0  0
  1 17  1  0  0  0
 17 18  1  0  0  0
 18 19  2  0  0  0
 18 21  1  0  0  0
 21 22  1  0  0  0
 22 23  2  0  0  0
 23 24  1  0  0  0
 24 25  2  0  0  0
 25 26  1  0  0  0
 26 27  2  0  0  0
  1  2  1  0  0  0
  2  3  2  0  0  0
  2  4  1  0  0  0
  4  5  1  0  0  0
  5  6  1  0  0  0
  6  7  1  0  0  0
  7 10  1  0  0  0
 10 11  2  0  0  0
 11 12  1  0  0  0
 12 13  2  0  0  0
 13 14  1  0  0  0
 14 15  1  0  0  0
 14 16  2  0  0  0
  7  8  1  0  0  0
  8  9  1  0  0  0
 27 22  1  0  0  0
  9  4  1  0  0  0
 16 10  1  0  0  0
 34 35  1  0  0  0
 17 20  1  0  0  0
M  END
> <minimizedAffinity>
-8.00727

> <CNNscore>
0.2012200207

> <CNNaffinity>
6.2793860435

> <CNN_VS>
1.2635382414

> <CNNaffinity_variance>
0.2228774726

$$$$
[H]C([H])=C([H])C(=O)N([H])C([H])([H])C([H])([H])C([H])([H])C([H])([H])[C@@]([H])(C(=O)N1C([H])([H])C([H])([H])N(c2c([H])c([H])c([H])c(C([H])([H])[H])c2[H])C([H])([H])C1([H])[H])N([H])C(=O)C([H])([H])c1c([H])c([H])c([H])c([H])c1[H]


 37 39  0  0  0  0  0  0  0  0999 V2000
   36.3649   15.0464   -9.4921 C   0  0  0  0  0  0  0  0  0  0  0  0
   37.3243   15.2057  -10.5962 C   0  0  0  0  0  0  0  0  0  0  0  0
   38.3009   16.0178  -10.4239 O   0  0  0  0  0  0  0  0  0  0  0  0
   37.2305   14.5175  -11.8219 N   0  0  0  0  0  0  0  0  0  0  0  0
   36.1878   13.5717  -12.0936 C   0  0  0  0  0  0  0  0  0  0  0  0
   36.7594   12.4572  -12.9638 C   0  0  0  0  0  0  0  0  0  0  0  0
   37.1893   13.0688  -14.2069 N   0  0  0  0  0  0  0  0  0  0  0  0
   37.5309   14.4592  -14.2154 C   0  0  0  0  0  0  0  0  0  0  0  0
   38.2135   14.7423  -12.8772 C   0  0  0  0  0  0  0  0  0  0  0  0
   37.2786   12.2981  -15.3947 C   0  0  0  0  0  0  0  0  0  0  0  0
   36.1122   11.7191  -15.8867 C   0  0  0  0  0  0  0  0  0  0  0  0
   36.1704   10.9735  -17.0365 C   0  0  0  0  0  0  0  0  0  0  0  0
   37.3431   10.7814  -17.7159 C   0  0  0  0  0  0  0  0  0  0  0  0
   38.5089   11.3420  -17.2516 C   0  0  0  0  0  0  0  0  0  0  0  0
   39.7893   11.1562  -17.9533 C   0  0  0  0  0  0  0  0  0  0  0  0
   38.4455   12.0940  -16.0908 C   0  0  0  0  0  0  0  0  0  0  0  0
   37.0145   15.4161   -8.2105 N   0  0  0  0  0  0  0  0  0  0  0  0
   37.0877   14.4929   -7.1519 C   0  0  0  0  0  0  0  0  0  0  0  0
   36.5949   13.3480   -7.3042 O   0  0  0  0  0  0  0  0  0  0  0  0
   37.3993   16.3556   -8.1348 H   0  0  0  0  0  0  0  0  0  0  0  0
   37.7355   14.8804   -5.8945 C   0  0  0  0  0  0  0  0  0  0  0  0
   39.1636   14.5629   -5.8424 C   0  0  0  0  0  0  0  0  0  0  0  0
   40.0569   15.6233   -5.8415 C   0  0  0  0  0  0  0  0  0  0  0  0
   41.4229   15.4187   -5.7964 C   0  0  0  0  0  0  0  0  0  0  0  0
   41.9454   14.1523   -5.7506 C   0  0  0  0  0  0  0  0  0  0  0  0
   41.0742   13.0892   -5.7506 C   0  0  0  0  0  0  0  0  0  0  0  0
   39.6991   13.2983   -5.7961 C   0  0  0  0  0  0  0  0  0  0  0  0
   35.2012   16.0253   -9.5837 C   0  0  0  0  0  0  0  0  0  0  0  0
   34.9840   16.8288   -8.3449 C   0  0  0  0  0  0  0  0  0  0  0  0
   33.6274   16.5992   -7.6962 C   0  0  0  0  0  0  0  0  0  0  0  0
   33.5476   15.2634   -7.0424 C   0  0  0  0  0  0  0  0  0  0  0  0
   31.7597   13.5760   -6.6771 C   0  0  0  0  0  0  0  0  0  0  0  0
   32.1756   13.3653   -5.4801 O   0  0  0  0  0  0  0  0  0  0  0  0
   32.4002   14.5167   -7.5074 N   0  0  0  0  0  0  0  0  0  0  0  0
   32.0557   14.6987   -8.4933 H   0  0  0  0  0  0  0  0  0  0  0  0
   29.8806   13.1889   -8.1499 C   0  0  0  0  0  0  0  0  0  0  0  0
   30.6255   12.8210   -7.1318 C   0  0  0  0  0  0  0  0  0  0  0  0
 36 37  2  0  0  0
 37 32  1  0  0  0
 32 33  2  0  0  0
 32 34  1  0  0  0
 34 31  1  0  0  0
 31 30  1  0  0  0
 30 29  1  0  0  0
 29 28  1  0  0  0
 28  1  1  0  0  0
  1 17  1  0  0  0
 17 18  1  0  0  0
 18 19  2  0  0  0
 18 21  1  0  0  0
 21 22  1  0  0  0
 22 23  2  0  0  0
 23 24  1  0  0  0
 24 25  2  0  0  0
 25 26  1  0  0  0
 26 27  2  0  0  0
  1  2  1  0  0  0
  2  3  2  0  0  0
  2  4  1  0  0  0
  4  5  1  0  0  0
  5  6  1  0  0  0
  6  7  1  0  0  0
  7 10  1  0  0  0
 10 11  2  0  0  0
 11 12  1  0  0  0
 12 13  2  0  0  0
 13 14  1  0  0  0
 14 15  1  0  0  0
 14 16  2  0  0  0
  7  8  1  0  0  0
  8  9  1  0  0  0
 27 22  1  0  0  0
  9  4  1  0  0  0
 16 10  1  0  0  0
 34 35  1  0  0  0
 17 20  1  0  0  0
M  END
> <minimizedAffinity>
-8.15656

> <CNNscore>
0.1686901748

> <CNNaffinity>
5.8526935577

> <CNN_VS>
0.9872918725

> <CNNaffinity_variance>
0.2668302655

$$$$
[H]c1nc([H])c(N([H])c2c([H])c(-c3c([H])c([H])c4c([H])c(C#N)c([H])nn34)nc([H])c2C(=O)N([H])[C@]2([H])C([H])([H])C([H])([H])[C@@]([H])(N([H])C(=O)C3([H])C([H])([H])C3([H])[H])C([H])([H])C2([H])[H])c([H])c1[H]


 42 47  0  0  0  0  0  0  0  0999 V2000
   35.3491   13.1129  -13.7406 C   0  0  0  0  0  0  0  0  0  0  0  0
   34.3959   14.0532  -13.4861 C   0  0  0  0  0  0  0  0  0  0  0  0
   34.2889   14.8357  -12.3398 C   0  0  0  0  0  0  0  0  0  0  0  0
   35.2655   14.6248  -11.3610 C   0  0  0  0  0  0  0  0  0  0  0  0
   36.2514   13.6584  -11.6088 C   0  0  0  0  0  0  0  0  0  0  0  0
   36.2739   12.9531  -12.7427 N   0  0  0  0  0  0  0  0  0  0  0  0
   38.3983   11.3615  -17.5788 C   0  0  0  0  0  0  0  0  0  0  0  0
   38.7000   12.1890  -16.5285 C   0  0  0  0  0  0  0  0  0  0  0  0
   37.7365   12.4982  -15.6586 N   0  0  0  0  0  0  0  0  0  0  0  0
   36.4933   12.0531  -15.7434 N   0  0  0  0  0  0  0  0  0  0  0  0
   35.4631   12.2969  -14.9420 C   0  0  0  0  0  0  0  0  0  0  0  0
   34.3851   11.5848  -15.4845 C   0  0  0  0  0  0  0  0  0  0  0  0
   34.8175   10.9294  -16.6102 C   0  0  0  0  0  0  0  0  0  0  0  0
   36.1683   11.2401  -16.7610 C   0  0  0  0  0  0  0  0  0  0  0  0
   37.1121   10.8808  -17.6941 C   0  0  0  0  0  0  0  0  0  0  0  0
   40.2516   10.7601  -19.2843 N   0  0  0  0  0  0  0  0  0  0  0  0
   39.4201   11.0260  -18.5221 C   0  0  0  0  0  0  0  0  0  0  0  0
   35.3364   15.4269  -10.1679 C   0  0  0  0  0  0  0  0  0  0  0  0
   35.5729   16.6810  -10.2651 O   0  0  0  0  0  0  0  0  0  0  0  0
   35.1569   14.9158   -8.8688 N   0  0  0  0  0  0  0  0  0  0  0  0
   34.9538   13.9085   -8.7371 H   0  0  0  0  0  0  0  0  0  0  0  0
   35.2591   15.8329   -7.7438 C   0  0  0  0  0  0  0  0  0  0  0  0
   35.2790   17.2426   -8.3429 C   0  0  0  0  0  0  0  0  0  0  0  0
   35.1743   18.2568   -7.2096 C   0  0  0  0  0  0  0  0  0  0  0  0
   33.7153   18.1814   -6.7357 C   0  0  0  0  0  0  0  0  0  0  0  0
   33.1402   16.8269   -6.9650 C   0  0  0  0  0  0  0  0  0  0  0  0
   34.1845   15.7226   -6.7302 C   0  0  0  0  0  0  0  0  0  0  0  0
   33.7220   18.4931   -5.3139 N   0  0  0  0  0  0  0  0  0  0  0  0
   33.0805   19.6622   -4.8549 C   0  0  0  0  0  0  0  0  0  0  0  0
   32.5060   20.4409   -5.6843 O   0  0  0  0  0  0  0  0  0  0  0  0
   34.1887   17.8650   -4.6379 H   0  0  0  0  0  0  0  0  0  0  0  0
   33.0649   19.9999   -3.4202 C   0  0  0  0  0  0  0  0  0  0  0  0
   32.9487   21.3936   -2.9873 C   0  0  0  0  0  0  0  0  0  0  0  0
   34.3177   20.7970   -3.0047 C   0  0  0  0  0  0  0  0  0  0  0  0
   33.1842   15.6703  -12.1650 N   0  0  0  0  0  0  0  0  0  0  0  0
   33.1710   16.6321  -12.5677 H   0  0  0  0  0  0  0  0  0  0  0  0
   32.0468   15.3252  -11.4068 C   0  0  0  0  0  0  0  0  0  0  0  0
   31.8266   15.7277  -10.0830 C   0  0  0  0  0  0  0  0  0  0  0  0
   30.7001   15.3588   -9.3942 C   0  0  0  0  0  0  0  0  0  0  0  0
   29.7607   14.5726  -10.0183 C   0  0  0  0  0  0  0  0  0  0  0  0
   29.9404   14.1677  -11.2870 N   0  0  0  0  0  0  0  0  0  0  0  0
   31.0372   14.5295  -11.9532 C   0  0  0  0  0  0  0  0  0  0  0  0
 16 17  3  0  0  0
 17  7  1  0  0  0
  7  8  1  0  0  0
  8  9  2  0  0  0
  9 10  1  0  0  0
 10 11  1  0  0  0
 11  1  1  0  0  0
  1  2  2  0  0  0
  2  3  1  0  0  0
  3 35  1  0  0  0
 35 37  1  0  0  0
 37 38  2  0  0  0
 38 39  1  0  0  0
 39 40  2  0  0  0
 40 41  1  0  0  0
 41 42  2  0  0  0
  3  4  2  0  0  0
  4 18  1  0  0  0
 18 19  2  0  0  0
 18 20  1  0  0  0
 20 22  1  0  0  0
 22 23  1  0  0  0
 23 24  1  0  0  0
 24 25  1  0  0  0
 25 28  1  0  0  0
 28 29  1  0  0  0
 29 30  2  0  0  0
 29 32  1  0  0  0
 32 33  1  0  0  0
 33 34  1  0  0  0
 25 26  1  0  0  0
 26 27  1  0  0  0
  4  5  1  0  0  0
  5  6  2  0  0  0
 11 12  2  0  0  0
 12 13  1  0  0  0
 13 14  2  0  0  0
 14 15  1  0  0  0
 15  7  2  0  0  0
 14 10  1  0  0  0
  6  1  1  0  0  0
 42 37  1  0  0  0
 27 22  1  0  0  0
 34 32  1  0  0  0
 35 36  1  0  0  0
 20 21  1  0  0  0
 28 31  1  0  0  0
M  END
> <minimizedAffinity>
-9.21664

> <CNNscore>
0.2737520337

> <CNNaffinity>
7.2032814026

> <CNN_VS>
1.9719129801

> <CNNaffinity_variance>
0.1197266802

$$$$
[H]c1nc([H])c(N([H])c2c([H])c(-c3c([H])c([H])c4c([H])c(C#N)c([H])nn34)nc([H])c2C(=O)N([H])[C@]2([H])C([H])([H])C([H])([H])[C@@]([H])(N([H])C(=O)C3([H])C([H])([H])C3([H])[H])C([H])([H])C2([H])[H])c([H])c1[H]


 42 47  0  0  0  0  0  0  0  0999 V2000
   36.7254   14.3421  -12.2710 C   0  0  0  0  0  0  0  0  0  0  0  0
   36.0168   14.1854  -11.1174 C   0  0  0  0  0  0  0  0  0  0  0  0
   36.0980   14.9836   -9.9799 C   0  0  0  0  0  0  0  0  0  0  0  0
   37.0011   16.0497  -10.0431 C   0  0  0  0  0  0  0  0  0  0  0  0
   37.7388   16.2216  -11.2236 C   0  0  0  0  0  0  0  0  0  0  0  0
   37.5933   15.4021  -12.2680 N   0  0  0  0  0  0  0  0  0  0  0  0
   39.1617   12.3457  -16.4153 C   0  0  0  0  0  0  0  0  0  0  0  0
   39.6439   13.1598  -15.4235 C   0  0  0  0  0  0  0  0  0  0  0  0
   38.8160   13.5439  -14.4501 N   0  0  0  0  0  0  0  0  0  0  0  0
   37.5441   13.1862  -14.3774 N   0  0  0  0  0  0  0  0  0  0  0  0
   36.6374   13.5090  -13.4627 C   0  0  0  0  0  0  0  0  0  0  0  0
   35.4556   12.8690  -13.8594 C   0  0  0  0  0  0  0  0  0  0  0  0
   35.7030   12.1745  -15.0170 C   0  0  0  0  0  0  0  0  0  0  0  0
   37.0438   12.3884  -15.3341 C   0  0  0  0  0  0  0  0  0  0  0  0
   37.8412   11.9552  -16.3671 C   0  0  0  0  0  0  0  0  0  0  0  0
   40.7513   11.5962  -18.3171 N   0  0  0  0  0  0  0  0  0  0  0  0
   40.0367   11.9307  -17.4682 C   0  0  0  0  0  0  0  0  0  0  0  0
   37.1210   17.0127   -8.9801 C   0  0  0  0  0  0  0  0  0  0  0  0
   37.8425   16.7376   -7.9592 O   0  0  0  0  0  0  0  0  0  0  0  0
   36.4861   18.2689   -8.9858 N   0  0  0  0  0  0  0  0  0  0  0  0
   35.8985   18.5432   -9.7938 H   0  0  0  0  0  0  0  0  0  0  0  0
   36.6845   19.1501   -7.8452 C   0  0  0  0  0  0  0  0  0  0  0  0
   37.3566   20.4129   -8.3934 C   0  0  0  0  0  0  0  0  0  0  0  0
   37.4027   21.4612   -7.2877 C   0  0  0  0  0  0  0  0  0  0  0  0
   35.9571   21.9603   -7.1458 C   0  0  0  0  0  0  0  0  0  0  0  0
   34.9790   20.9035   -7.5257 C   0  0  0  0  0  0  0  0  0  0  0  0
   35.4591   19.5077   -7.0936 C   0  0  0  0  0  0  0  0  0  0  0  0
   35.7800   22.3340   -5.7501 N   0  0  0  0  0  0  0  0  0  0  0  0
   35.1157   23.5362   -5.4307 C   0  0  0  0  0  0  0  0  0  0  0  0
   34.6810   24.2905   -6.3616 O   0  0  0  0  0  0  0  0  0  0  0  0
   36.1329   21.7258   -4.9919 H   0  0  0  0  0  0  0  0  0  0  0  0
   34.9155   23.9370   -4.0264 C   0  0  0  0  0  0  0  0  0  0  0  0
   34.7243   22.9247   -2.9861 C   0  0  0  0  0  0  0  0  0  0  0  0
   33.4996   23.5870   -3.5262 C   0  0  0  0  0  0  0  0  0  0  0  0
   35.4010   14.6259   -8.8250 N   0  0  0  0  0  0  0  0  0  0  0  0
   35.6188   13.7390   -8.3216 H   0  0  0  0  0  0  0  0  0  0  0  0
   34.3368   15.3744   -8.2820 C   0  0  0  0  0  0  0  0  0  0  0  0
   34.2784   15.8183   -6.9544 C   0  0  0  0  0  0  0  0  0  0  0  0
   33.2147   16.5425   -6.4816 C   0  0  0  0  0  0  0  0  0  0  0  0
   32.1767   16.8414   -7.3321 C   0  0  0  0  0  0  0  0  0  0  0  0
   32.1997   16.4305   -8.6113 N   0  0  0  0  0  0  0  0  0  0  0  0
   33.2366   15.7270   -9.0670 C   0  0  0  0  0  0  0  0  0  0  0  0
 16 17  3  0  0  0
 17  7  1  0  0  0
  7  8  1  0  0  0
  8  9  2  0  0  0
  9 10  1  0  0  0
 10 11  1  0  0  0
 11  1  1  0  0  0
  1  2  2  0  0  0
  2  3  1  0  0  0
  3 35  1  0  0  0
 35 37  1  0  0  0
 37 38  2  0  0  0
 38 39  1  0  0  0
 39 40  2  0  0  0
 40 41  1  0  0  0
 41 42  2  0  0  0
  3  4  2  0  0  0
  4 18  1  0  0  0
 18 19  2  0  0  0
 18 20  1  0  0  0
 20 22  1  0  0  0
 22 23  1  0  0  0
 23 24  1  0  0  0
 24 25  1  0  0  0
 25 28  1  0  0  0
 28 29  1  0  0  0
 29 30  2  0  0  0
 29 32  1  0  0  0
 32 33  1  0  0  0
 33 34  1  0  0  0
 25 26  1  0  0  0
 26 27  1  0  0  0
  4  5  1  0  0  0
  5  6  2  0  0  0
 11 12  2  0  0  0
 12 13  1  0  0  0
 13 14  2  0  0  0
 14 15  1  0  0  0
 15  7  2  0  0  0
 14 10  1  0  0  0
  6  1  1  0  0  0
 42 37  1  0  0  0
 27 22  1  0  0  0
 34 32  1  0  0  0
 35 36  1  0  0  0
 20 21  1  0  0  0
 28 31  1  0  0  0
M  END
> <minimizedAffinity>
-8.29403

> <CNNscore>
0.1738853306

> <CNNaffinity>
6.6546506882

> <CNN_VS>
1.1571460962

> <CNNaffinity_variance>
0.0907097235

$$$$
[H]c1nc([H])c(N([H])c2c([H])c(-c3c([H])c([H])c4c([H])c(C#N)c([H])nn34)nc([H])c2C(=O)N([H])[C@]2([H])C([H])([H])C([H])([H])[C@@]([H])(N([H])C(=O)C3([H])C([H])([H])C3([H])[H])C([H])([H])C2([H])[H])c([H])c1[H]


 42 47  0  0  0  0  0  0  0  0999 V2000
   39.8154   15.1389  -12.4603 C   0  0  0  0  0  0  0  0  0  0  0  0
   38.5739   14.6687  -12.1518 C   0  0  0  0  0  0  0  0  0  0  0  0
   37.6757   15.2305  -11.2487 C   0  0  0  0  0  0  0  0  0  0  0  0
   38.1046   16.3942  -10.6021 C   0  0  0  0  0  0  0  0  0  0  0  0
   39.3812   16.8880  -10.9084 C   0  0  0  0  0  0  0  0  0  0  0  0
   40.1762   16.2790  -11.7919 N   0  0  0  0  0  0  0  0  0  0  0  0
   40.4933   12.4313  -16.8542 C   0  0  0  0  0  0  0  0  0  0  0  0
   39.3341   12.8261  -16.2383 C   0  0  0  0  0  0  0  0  0  0  0  0
   39.4162   13.5249  -15.1045 N   0  0  0  0  0  0  0  0  0  0  0  0
   40.5571   13.8670  -14.5280 N   0  0  0  0  0  0  0  0  0  0  0  0
   40.7535   14.5529  -13.4082 C   0  0  0  0  0  0  0  0  0  0  0  0
   42.1437   14.6312  -13.2516 C   0  0  0  0  0  0  0  0  0  0  0  0
   42.7385   13.9779  -14.3019 C   0  0  0  0  0  0  0  0  0  0  0  0
   41.7089   13.4952  -15.1087 C   0  0  0  0  0  0  0  0  0  0  0  0
   41.6977   12.7729  -16.2786 C   0  0  0  0  0  0  0  0  0  0  0  0
   40.3564   11.0705  -19.0530 N   0  0  0  0  0  0  0  0  0  0  0  0
   40.4201   11.6768  -18.0673 C   0  0  0  0  0  0  0  0  0  0  0  0
   37.2463   17.1357   -9.7160 C   0  0  0  0  0  0  0  0  0  0  0  0
   35.9877   16.9031   -9.7171 O   0  0  0  0  0  0  0  0  0  0  0  0
   37.7064   18.1225   -8.8240 N   0  0  0  0  0  0  0  0  0  0  0  0
   38.7180   18.3415   -8.7781 H   0  0  0  0  0  0  0  0  0  0  0  0
   36.7334   18.8044   -7.9840 C   0  0  0  0  0  0  0  0  0  0  0  0
   37.3158   18.8006   -6.5672 C   0  0  0  0  0  0  0  0  0  0  0  0
   36.4450   19.6813   -5.6784 C   0  0  0  0  0  0  0  0  0  0  0  0
   36.7654   21.1224   -6.1022 C   0  0  0  0  0  0  0  0  0  0  0  0
   37.1797   21.1878   -7.5312 C   0  0  0  0  0  0  0  0  0  0  0  0
   36.3931   20.1866   -8.3939 C   0  0  0  0  0  0  0  0  0  0  0  0
   35.5519   21.8984   -5.8923 N   0  0  0  0  0  0  0  0  0  0  0  0
   35.6474   23.2294   -5.4361 C   0  0  0  0  0  0  0  0  0  0  0  0
   36.7908   23.7427   -5.2041 O   0  0  0  0  0  0  0  0  0  0  0  0
   34.6223   21.4851   -6.0774 H   0  0  0  0  0  0  0  0  0  0  0  0
   34.4363   24.0416   -5.2213 C   0  0  0  0  0  0  0  0  0  0  0  0
   33.1074   23.4529   -5.3971 C   0  0  0  0  0  0  0  0  0  0  0  0
   33.6515   24.2588   -6.5306 C   0  0  0  0  0  0  0  0  0  0  0  0
   36.4875   14.5663  -10.9414 N   0  0  0  0  0  0  0  0  0  0  0  0
   36.2035   14.4084   -9.9505 H   0  0  0  0  0  0  0  0  0  0  0  0
   35.6190   14.0160  -11.9060 C   0  0  0  0  0  0  0  0  0  0  0  0
   34.5172   14.6868  -12.4528 C   0  0  0  0  0  0  0  0  0  0  0  0
   33.7055   14.0987  -13.3882 C   0  0  0  0  0  0  0  0  0  0  0  0
   33.9790   12.8163  -13.8011 C   0  0  0  0  0  0  0  0  0  0  0  0
   35.0271   12.1433  -13.2967 N   0  0  0  0  0  0  0  0  0  0  0  0
   35.8142   12.7196  -12.3877 C   0  0  0  0  0  0  0  0  0  0  0  0
 16 17  3  0  0  0
 17  7  1  0  0  0
  7  8  1  0  0  0
  8  9  2  0  0  0
  9 10  1  0  0  0
 10 11  1  0  0  0
 11  1  1  0  0  0
  1  2  2  0  0  0
  2  3  1  0  0  0
  3 35  1  0  0  0
 35 37  1  0  0  0
 37 38  2  0  0  0
 38 39  1  0  0  0
 39 40  2  0  0  0
 40 41  1  0  0  0
 41 42  2  0  0  0
  3  4  2  0  0  0
  4 18  1  0  0  0
 18 19  2  0  0  0
 18 20  1  0  0  0
 20 22  1  0  0  0
 22 23  1  0  0  0
 23 24  1  0  0  0
 24 25  1  0  0  0
 25 28  1  0  0  0
 28 29  1  0  0  0
 29 30  2  0  0  0
 29 32  1  0  0  0
 32 33  1  0  0  0
 33 34  1  0  0  0
 25 26  1  0  0  0
 26 27  1  0  0  0
  4  5  1  0  0  0
  5  6  2  0  0  0
 11 12  2  0  0  0
 12 13  1  0  0  0
 13 14  2  0  0  0
 14 15  1  0  0  0
 15  7  2  0  0  0
 14 10  1  0  0  0
  6  1  1  0  0  0
 42 37  1  0  0  0
 27 22  1  0  0  0
 34 32  1  0  0  0
 35 36  1  0  0  0
 20 21  1  0  0  0
 28 31  1  0  0  0
M  END
> <minimizedAffinity>
-8.38039

> <CNNscore>
0.1216877773

> <CNNaffinity>
6.7663397789

> <CNN_VS>
0.8233808279

> <CNNaffinity_variance>
0.3320682645

$$$$
[H]c1nc([H])c(N([H])c2c([H])c(-c3c([H])c([H])c4c([H])c(C#N)c([H])nn34)nc([H])c2C(=O)N([H])[C@]2([H])C([H])([H])C([H])([H])[C@@]([H])(N([H])C(=O)C3([H])C([H])([H])C3([H])[H])C([H])([H])C2([H])[H])c([H])c1[H]


 42 47  0  0  0  0  0  0  0  0999 V2000
   42.1756   15.8253  -11.2192 C   0  0  0  0  0  0  0  0  0  0  0  0
   42.3258   15.6343   -9.8782 C   0  0  0  0  0  0  0  0  0  0  0  0
   41.3122   15.6222   -8.9241 C   0  0  0  0  0  0  0  0  0  0  0  0
   40.0153   15.8272   -9.4059 C   0  0  0  0  0  0  0  0  0  0  0  0
   39.8463   16.0274  -10.7839 C   0  0  0  0  0  0  0  0  0  0  0  0
   40.8825   16.0224  -11.6263 N   0  0  0  0  0  0  0  0  0  0  0  0
   44.3454   13.4848  -15.3315 C   0  0  0  0  0  0  0  0  0  0  0  0
   43.2367   13.1321  -14.6067 C   0  0  0  0  0  0  0  0  0  0  0  0
   42.8686   13.9033  -13.5819 N   0  0  0  0  0  0  0  0  0  0  0  0
   43.5108   15.0004  -13.2143 N   0  0  0  0  0  0  0  0  0  0  0  0
   43.2362   15.8339  -12.2179 C   0  0  0  0  0  0  0  0  0  0  0  0
   44.2268   16.8235  -12.2688 C   0  0  0  0  0  0  0  0  0  0  0  0
   45.0726   16.5410  -13.3121 C   0  0  0  0  0  0  0  0  0  0  0  0
   44.5998   15.3715  -13.9060 C   0  0  0  0  0  0  0  0  0  0  0  0
   45.0353   14.6226  -14.9737 C   0  0  0  0  0  0  0  0  0  0  0  0
   45.0921   12.0035  -17.3198 N   0  0  0  0  0  0  0  0  0  0  0  0
   44.7548   12.6641  -16.4293 C   0  0  0  0  0  0  0  0  0  0  0  0
   38.8610   15.7457   -8.5498 C   0  0  0  0  0  0  0  0  0  0  0  0
   38.6122   14.6538   -7.9300 O   0  0  0  0  0  0  0  0  0  0  0  0
   37.9652   16.8107   -8.3395 N   0  0  0  0  0  0  0  0  0  0  0  0
   38.1277   17.7188   -8.8109 H   0  0  0  0  0  0  0  0  0  0  0  0
   36.8319   16.5972   -7.4523 C   0  0  0  0  0  0  0  0  0  0  0  0
   37.1470   17.3655   -6.1650 C   0  0  0  0  0  0  0  0  0  0  0  0
   35.9097   17.3557   -5.2746 C   0  0  0  0  0  0  0  0  0  0  0  0
   34.9267   18.3297   -5.9410 C   0  0  0  0  0  0  0  0  0  0  0  0
   35.1377   18.3896   -7.4140 C   0  0  0  0  0  0  0  0  0  0  0  0
   35.5147   17.0132   -7.9872 C   0  0  0  0  0  0  0  0  0  0  0  0
   33.5885   17.8412   -5.6420 N   0  0  0  0  0  0  0  0  0  0  0  0
   32.6043   18.7428   -5.1870 C   0  0  0  0  0  0  0  0  0  0  0  0
   32.8914   19.9751   -5.0336 O   0  0  0  0  0  0  0  0  0  0  0  0
   33.3520   16.8419   -5.7631 H   0  0  0  0  0  0  0  0  0  0  0  0
   31.2387   18.2782   -4.8832 C   0  0  0  0  0  0  0  0  0  0  0  0
   30.6859   17.1050   -5.5624 C   0  0  0  0  0  0  0  0  0  0  0  0
   30.2938   18.4459   -6.0900 C   0  0  0  0  0  0  0  0  0  0  0  0
   41.6311   15.5399   -7.5680 N   0  0  0  0  0  0  0  0  0  0  0  0
   41.6714   14.6177   -7.0827 H   0  0  0  0  0  0  0  0  0  0  0  0
   41.8643   16.6591   -6.7429 C   0  0  0  0  0  0  0  0  0  0  0  0
   40.9126   17.2173   -5.8794 C   0  0  0  0  0  0  0  0  0  0  0  0
   41.1969   18.3094   -5.1009 C   0  0  0  0  0  0  0  0  0  0  0  0
   42.4490   18.8728   -5.1689 C   0  0  0  0  0  0  0  0  0  0  0  0
   43.3856   18.3636   -5.9871 N   0  0  0  0  0  0  0  0  0  0  0  0
   43.1048   17.3009   -6.7419 C   0  0  0  0  0  0  0  0  0  0  0  0
 16 17  3  0  0  0
 17  7  1  0  0  0
  7  8  1  0  0  0
  8  9  2  0  0  0
  9 10  1  0  0  0
 10 11  1  0  0  0
 11  1  1  0  0  0
  1  2  2  0  0  0
  2  3  1  0  0  0
  3 35  1  0  0  0
 35 37  1  0  0  0
 37 38  2  0  0  0
 38 39  1  0  0  0
 39 40  2  0  0  0
 40 41  1  0  0  0
 41 42  2  0  0  0
  3  4  2  0  0  0
  4 18  1  0  0  0
 18 19  2  0  0  0
 18 20  1  0  0  0
 20 22  1  0  0  0
 22 23  1  0  0  0
 23 24  1  0  0  0
 24 25  1  0  0  0
 25 28  1  0  0  0
 28 29  1  0  0  0
 29 30  2  0  0  0
 29 32  1  0  0  0
 32 33  1  0  0  0
 33 34  1  0  0  0
 25 26  1  0  0  0
 26 27  1  0  0  0
  4  5  1  0  0  0
  5  6  2  0  0  0
 11 12  2  0  0  0
 12 13  1  0  0  0
 13 14  2  0  0  0
 14 15  1  0  0  0
 15  7  2  0  0  0
 14 10  1  0  0  0
  6  1  1  0  0  0
 42 37  1  0  0  0
 27 22  1  0  0  0
 34 32  1  0  0  0
 35 36  1  0  0  0
 20 21  1  0  0  0
 28 31  1  0  0  0
M  END
> <minimizedAffinity>
-6.59052

> <CNNscore>
0.1100681201

> <CNNaffinity>
5.9813919067

> <CNN_VS>
0.6583605409

> <CNNaffinity_variance>
0.0442393608

$$$$
[H]c1nc([H])c(N([H])c2c([H])c(-c3c([H])c([H])c4c([H])c(C#N)c([H])nn34)nc([H])c2C(=O)N([H])[C@]2([H])C([H])([H])C([H])([H])[C@@]([H])(N([H])C(=O)C3([H])C([H])([H])C3([H])[H])C([H])([H])C2([H])[H])c([H])c1[H]


 42 47  0  0  0  0  0  0  0  0999 V2000
   37.4362   14.8188  -11.5557 C   0  0  0  0  0  0  0  0  0  0  0  0
   38.3059   14.8466  -10.5067 C   0  0  0  0  0  0  0  0  0  0  0  0
   38.3793   15.8225   -9.5167 C   0  0  0  0  0  0  0  0  0  0  0  0
   37.4614   16.8724   -9.6225 C   0  0  0  0  0  0  0  0  0  0  0  0
   36.5618   16.8577  -10.6986 C   0  0  0  0  0  0  0  0  0  0  0  0
   36.5657   15.8755  -11.6035 N   0  0  0  0  0  0  0  0  0  0  0  0
   39.6019   12.6689  -15.7728 C   0  0  0  0  0  0  0  0  0  0  0  0
   40.0349   13.7175  -15.0036 C   0  0  0  0  0  0  0  0  0  0  0  0
   39.2989   14.0903  -13.9549 N   0  0  0  0  0  0  0  0  0  0  0  0
   38.1642   13.5072  -13.6034 N   0  0  0  0  0  0  0  0  0  0  0  0
   37.3569   13.7953  -12.5894 C   0  0  0  0  0  0  0  0  0  0  0  0
   36.3011   12.8780  -12.6740 C   0  0  0  0  0  0  0  0  0  0  0  0
   36.5193   12.0602  -13.7544 C   0  0  0  0  0  0  0  0  0  0  0  0
   37.7154   12.4766  -14.3374 C   0  0  0  0  0  0  0  0  0  0  0  0
   38.4241   12.0404  -15.4319 C   0  0  0  0  0  0  0  0  0  0  0  0
   41.0102   11.9272  -17.8154 N   0  0  0  0  0  0  0  0  0  0  0  0
   40.3783   12.2621  -16.9034 C   0  0  0  0  0  0  0  0  0  0  0  0
   37.3577   17.8998   -8.6198 C   0  0  0  0  0  0  0  0  0  0  0  0
   38.2766   18.0126   -7.7360 O   0  0  0  0  0  0  0  0  0  0  0  0
   36.2903   18.8140   -8.5426 N   0  0  0  0  0  0  0  0  0  0  0  0
   35.5258   18.7705   -9.2405 H   0  0  0  0  0  0  0  0  0  0  0  0
   36.3015   19.8030   -7.4754 C   0  0  0  0  0  0  0  0  0  0  0  0
   36.8430   21.0945   -8.0962 C   0  0  0  0  0  0  0  0  0  0  0  0
   36.6848   22.2258   -7.0867 C   0  0  0  0  0  0  0  0  0  0  0  0
   35.1816   22.5406   -7.0676 C   0  0  0  0  0  0  0  0  0  0  0  0
   34.3714   21.3374   -7.4046 C   0  0  0  0  0  0  0  0  0  0  0  0
   34.9947   20.0562   -6.8255 C   0  0  0  0  0  0  0  0  0  0  0  0
   34.8687   22.9994   -5.7221 N   0  0  0  0  0  0  0  0  0  0  0  0
   33.7438   23.8234   -5.5120 C   0  0  0  0  0  0  0  0  0  0  0  0
   33.0128   24.1670   -6.4980 O   0  0  0  0  0  0  0  0  0  0  0  0
   35.4603   22.7246   -4.9197 H   0  0  0  0  0  0  0  0  0  0  0  0
   33.3982   24.2974   -4.1596 C   0  0  0  0  0  0  0  0  0  0  0  0
   34.0915   23.7624   -2.9863 C   0  0  0  0  0  0  0  0  0  0  0  0
   32.7527   23.1849   -3.3093 C   0  0  0  0  0  0  0  0  0  0  0  0
   39.4069   15.7836   -8.5733 N   0  0  0  0  0  0  0  0  0  0  0  0
   39.9327   16.6475   -8.3189 H   0  0  0  0  0  0  0  0  0  0  0  0
   39.8528   14.6054   -7.9403 C   0  0  0  0  0  0  0  0  0  0  0  0
   41.1411   14.0723   -8.0784 C   0  0  0  0  0  0  0  0  0  0  0  0
   41.5177   12.9198   -7.4385 C   0  0  0  0  0  0  0  0  0  0  0  0
   40.6075   12.2689   -6.6398 C   0  0  0  0  0  0  0  0  0  0  0  0
   39.3630   12.7519   -6.4858 N   0  0  0  0  0  0  0  0  0  0  0  0
   39.0013   13.8735   -7.1096 C   0  0  0  0  0  0  0  0  0  0  0  0
 16 17  3  0  0  0
 17  7  1  0  0  0
  7  8  1  0  0  0
  8  9  2  0  0  0
  9 10  1  0  0  0
 10 11  1  0  0  0
 11  1  1  0  0  0
  1  2  2  0  0  0
  2  3  1  0  0  0
  3 35  1  0  0  0
 35 37  1  0  0  0
 37 38  2  0  0  0
 38 39  1  0  0  0
 39 40  2  0  0  0
 40 41  1  0  0  0
 41 42  2  0  0  0
  3  4  2  0  0  0
  4 18  1  0  0  0
 18 19  2  0  0  0
 18 20  1  0  0  0
 20 22  1  0  0  0
 22 23  1  0  0  0
 23 24  1  0  0  0
 24 25  1  0  0  0
 25 28  1  0  0  0
 28 29  1  0  0  0
 29 30  2  0  0  0
 29 32  1  0  0  0
 32 33  1  0  0  0
 33 34  1  0  0  0
 25 26  1  0  0  0
 26 27  1  0  0  0
  4  5  1  0  0  0
  5  6  2  0  0  0
 11 12  2  0  0  0
 12 13  1  0  0  0
 13 14  2  0  0  0
 14 15  1  0  0  0
 15  7  2  0  0  0
 14 10  1  0  0  0
  6  1  1  0  0  0
 42 37  1  0  0  0
 27 22  1  0  0  0
 34 32  1  0  0  0
 35 36  1  0  0  0
 20 21  1  0  0  0
 28 31  1  0  0  0
M  END
> <minimizedAffinity>
-8.70293

> <CNNscore>
0.1070152000

> <CNNaffinity>
6.3591089249

> <CNN_VS>
0.6805213094

> <CNNaffinity_variance>
0.0045806430

$$$$
[H]c1nc([H])c(N([H])c2c([H])c(-c3c([H])c([H])c4c([H])c(C#N)c([H])nn34)nc([H])c2C(=O)N([H])[C@]2([H])C([H])([H])C([H])([H])[C@@]([H])(N([H])C(=O)C3([H])C([H])([H])C3([H])[H])C([H])([H])C2([H])[H])c([H])c1[H]


 42 47  0  0  0  0  0  0  0  0999 V2000
   37.2381   14.4289  -12.5889 C   0  0  0  0  0  0  0  0  0  0  0  0
   38.3538   15.1375  -12.2566 C   0  0  0  0  0  0  0  0  0  0  0  0
   38.4778   16.0444  -11.2078 C   0  0  0  0  0  0  0  0  0  0  0  0
   37.3344   16.2358  -10.4253 C   0  0  0  0  0  0  0  0  0  0  0  0
   36.1782   15.5146  -10.7575 C   0  0  0  0  0  0  0  0  0  0  0  0
   36.1531   14.6630  -11.7860 N   0  0  0  0  0  0  0  0  0  0  0  0
   39.4348   12.2215  -16.7601 C   0  0  0  0  0  0  0  0  0  0  0  0
   39.9369   13.1646  -15.9013 C   0  0  0  0  0  0  0  0  0  0  0  0
   39.1746   13.5794  -14.8877 N   0  0  0  0  0  0  0  0  0  0  0  0
   37.9505   13.1348  -14.6532 N   0  0  0  0  0  0  0  0  0  0  0  0
   37.1097   13.4770  -13.6842 C   0  0  0  0  0  0  0  0  0  0  0  0
   35.9550   12.7126  -13.8980 C   0  0  0  0  0  0  0  0  0  0  0  0
   36.1508   11.9272  -15.0064 C   0  0  0  0  0  0  0  0  0  0  0  0
   37.4324   12.2100  -15.4768 C   0  0  0  0  0  0  0  0  0  0  0  0
   38.1630   11.7382  -16.5418 C   0  0  0  0  0  0  0  0  0  0  0  0
   40.8962   11.4106  -18.7380 N   0  0  0  0  0  0  0  0  0  0  0  0
   40.2390   11.7717  -17.8543 C   0  0  0  0  0  0  0  0  0  0  0  0
   37.3430   17.0694   -9.2520 C   0  0  0  0  0  0  0  0  0  0  0  0
   38.1436   16.7966   -8.2913 O   0  0  0  0  0  0  0  0  0  0  0  0
   36.5130   18.1936   -9.0838 N   0  0  0  0  0  0  0  0  0  0  0  0
   35.8538   18.4621   -9.8366 H   0  0  0  0  0  0  0  0  0  0  0  0
   36.6155   18.9509   -7.8456 C   0  0  0  0  0  0  0  0  0  0  0  0
   37.2357   20.3004   -8.2209 C   0  0  0  0  0  0  0  0  0  0  0  0
   37.1782   21.2194   -7.0060 C   0  0  0  0  0  0  0  0  0  0  0  0
   35.7020   21.6232   -6.8764 C   0  0  0  0  0  0  0  0  0  0  0  0
   34.8016   20.5658   -7.4141 C   0  0  0  0  0  0  0  0  0  0  0  0
   35.3430   19.1575   -7.1160 C   0  0  0  0  0  0  0  0  0  0  0  0
   35.4489   21.8286   -5.4577 N   0  0  0  0  0  0  0  0  0  0  0  0
   34.5811   22.8621   -5.0484 C   0  0  0  0  0  0  0  0  0  0  0  0
   34.0298   23.6130   -5.9183 O   0  0  0  0  0  0  0  0  0  0  0  0
   35.8956   21.2229   -4.7487 H   0  0  0  0  0  0  0  0  0  0  0  0
   34.3003   23.0892   -3.6192 C   0  0  0  0  0  0  0  0  0  0  0  0
   33.5975   24.2975   -3.1841 C   0  0  0  0  0  0  0  0  0  0  0  0
   35.0861   24.2943   -3.0646 C   0  0  0  0  0  0  0  0  0  0  0  0
   39.6481   16.7911  -11.0654 N   0  0  0  0  0  0  0  0  0  0  0  0
   39.6388   17.8276  -11.1795 H   0  0  0  0  0  0  0  0  0  0  0  0
   40.9175   16.2292  -10.8193 C   0  0  0  0  0  0  0  0  0  0  0  0
   41.9324   16.1169  -11.7787 C   0  0  0  0  0  0  0  0  0  0  0  0
   43.1485   15.5584  -11.4810 C   0  0  0  0  0  0  0  0  0  0  0  0
   43.3794   15.0955  -10.2073 C   0  0  0  0  0  0  0  0  0  0  0  0
   42.4278   15.1865   -9.2627 N   0  0  0  0  0  0  0  0  0  0  0  0
   41.2467   15.7311   -9.5566 C   0  0  0  0  0  0  0  0  0  0  0  0
 16 17  3  0  0  0
 17  7  1  0  0  0
  7  8  1  0  0  0
  8  9  2  0  0  0
  9 10  1  0  0  0
 10 11  1  0  0  0
 11  1  1  0  0  0
  1  2  2  0  0  0
  2  3  1  0  0  0
  3 35  1  0  0  0
 35 37  1  0  0  0
 37 38  2  0  0  0
 38 39  1  0  0  0
 39 40  2  0  0  0
 40 41  1  0  0  0
 41 42  2  0  0  0
  3  4  2  0  0  0
  4 18  1  0  0  0
 18 19  2  0  0  0
 18 20  1  0  0  0
 20 22  1  0  0  0
 22 23  1  0  0  0
 23 24  1  0  0  0
 24 25  1  0  0  0
 25 28  1  0  0  0
 28 29  1  0  0  0
 29 30  2  0  0  0
 29 32  1  0  0  0
 32 33  1  0  0  0
 33 34  1  0  0  0
 25 26  1  0  0  0
 26 27  1  0  0  0
  4  5  1  0  0  0
  5  6  2  0  0  0
 11 12  2  0  0  0
 12 13  1  0  0  0
 13 14  2  0  0  0
 14 15  1  0  0  0
 15  7  2  0  0  0
 14 10  1  0  0  0
  6  1  1  0  0  0
 42 37  1  0  0  0
 27 22  1  0  0  0
 34 32  1  0  0  0
 35 36  1  0  0  0
 20 21  1  0  0  0
 28 31  1  0  0  0
M  END
> <minimizedAffinity>
-8.51194

> <CNNscore>
0.1040973440

> <CNNaffinity>
6.5205507278

> <CNN_VS>
0.6787720323

> <CNNaffinity_variance>
0.0447897017

$$$$
[H]c1nc([H])c(N([H])c2c([H])c(-c3c([H])c([H])c4c([H])c(C#N)c([H])nn34)nc([H])c2C(=O)N([H])[C@]2([H])C([H])([H])C([H])([H])[C@@]([H])(N([H])C(=O)C3([H])C([H])([H])C3([H])[H])C([H])([H])C2([H])[H])c([H])c1[H]


 42 47  0  0  0  0  0  0  0  0999 V2000
   40.3519   14.9784  -12.9704 C   0  0  0  0  0  0  0  0  0  0  0  0
   38.9965   14.9263  -12.8374 C   0  0  0  0  0  0  0  0  0  0  0  0
   38.2256   15.6365  -11.9213 C   0  0  0  0  0  0  0  0  0  0  0  0
   38.9269   16.4849  -11.0585 C   0  0  0  0  0  0  0  0  0  0  0  0
   40.3227   16.5467  -11.1827 C   0  0  0  0  0  0  0  0  0  0  0  0
   40.9789   15.8254  -12.0952 N   0  0  0  0  0  0  0  0  0  0  0  0
   40.4709   12.1669  -17.3497 C   0  0  0  0  0  0  0  0  0  0  0  0
   39.4077   12.7535  -16.7137 C   0  0  0  0  0  0  0  0  0  0  0  0
   39.6304   13.4363  -15.5891 N   0  0  0  0  0  0  0  0  0  0  0  0
   40.8249   13.5871  -15.0401 N   0  0  0  0  0  0  0  0  0  0  0  0
   41.1579   14.2380  -13.9318 C   0  0  0  0  0  0  0  0  0  0  0  0
   42.5449   14.0844  -13.8052 C   0  0  0  0  0  0  0  0  0  0  0  0
   42.9989   13.3342  -14.8610 C   0  0  0  0  0  0  0  0  0  0  0  0
   41.8855   13.0247  -15.6410 C   0  0  0  0  0  0  0  0  0  0  0  0
   41.7279   12.3067  -16.8030 C   0  0  0  0  0  0  0  0  0  0  0  0
   40.0695   10.8240  -19.5270 N   0  0  0  0  0  0  0  0  0  0  0  0
   40.2459   11.4273  -18.5533 C   0  0  0  0  0  0  0  0  0  0  0  0
   38.2545   17.3508  -10.1259 C   0  0  0  0  0  0  0  0  0  0  0  0
   37.9806   18.5534  -10.4677 O   0  0  0  0  0  0  0  0  0  0  0  0
   37.8651   16.9567   -8.8320 N   0  0  0  0  0  0  0  0  0  0  0  0
   38.0556   15.9903   -8.5106 H   0  0  0  0  0  0  0  0  0  0  0  0
   37.1959   17.9310   -7.9835 C   0  0  0  0  0  0  0  0  0  0  0  0
   35.7090   17.5634   -8.0022 C   0  0  0  0  0  0  0  0  0  0  0  0
   34.9816   18.4161   -6.9690 C   0  0  0  0  0  0  0  0  0  0  0  0
   35.3902   17.8343   -5.6075 C   0  0  0  0  0  0  0  0  0  0  0  0
   36.7434   17.2153   -5.6666 C   0  0  0  0  0  0  0  0  0  0  0  0
   37.6869   18.0067   -6.5879 C   0  0  0  0  0  0  0  0  0  0  0  0
   35.3819   18.9407   -4.6617 N   0  0  0  0  0  0  0  0  0  0  0  0
   34.1829   19.2846   -4.0038 C   0  0  0  0  0  0  0  0  0  0  0  0
   33.1147   18.6321   -4.2441 O   0  0  0  0  0  0  0  0  0  0  0  0
   36.2458   19.4739   -4.4653 H   0  0  0  0  0  0  0  0  0  0  0  0
   34.1458   20.3955   -3.0357 C   0  0  0  0  0  0  0  0  0  0  0  0
   32.9952   21.2995   -2.9874 C   0  0  0  0  0  0  0  0  0  0  0  0
   34.1996   21.7684   -3.7355 C   0  0  0  0  0  0  0  0  0  0  0  0
   36.8567   15.3858  -11.8183 N   0  0  0  0  0  0  0  0  0  0  0  0
   36.2763   15.8712  -11.1007 H   0  0  0  0  0  0  0  0  0  0  0  0
   36.1653   14.4446  -12.6081 C   0  0  0  0  0  0  0  0  0  0  0  0
   35.6533   14.7077  -13.8855 C   0  0  0  0  0  0  0  0  0  0  0  0
   34.9867   13.7513  -14.6069 C   0  0  0  0  0  0  0  0  0  0  0  0
   34.8151   12.5004  -14.0632 C   0  0  0  0  0  0  0  0  0  0  0  0
   35.2924   12.2140  -12.8400 N   0  0  0  0  0  0  0  0  0  0  0  0
   35.9408   13.1471  -12.1423 C   0  0  0  0  0  0  0  0  0  0  0  0
 16 17  3  0  0  0
 17  7  1  0  0  0
  7  8  1  0  0  0
  8  9  2  0  0  0
  9 10  1  0  0  0
 10 11  1  0  0  0
 11  1  1  0  0  0
  1  2  2  0  0  0
  2  3  1  0  0  0
  3 35  1  0  0  0
 35 37  1  0  0  0
 37 38  2  0  0  0
 38 39  1  0  0  0
 39 40  2  0  0  0
 40 41  1  0  0  0
 41 42  2  0  0  0
  3  4  2  0  0  0
  4 18  1  0  0  0
 18 19  2  0  0  0
 18 20  1  0  0  0
 20 22  1  0  0  0
 22 23  1  0  0  0
 23 24  1  0  0  0
 24 25  1  0  0  0
 25 28  1  0  0  0
 28 29  1  0  0  0
 29 30  2  0  0  0
 29 32  1  0  0  0
 32 33  1  0  0  0
 33 34  1  0  0  0
 25 26  1  0  0  0
 26 27  1  0  0  0
  4  5  1  0  0  0
  5  6  2  0  0  0
 11 12  2  0  0  0
 12 13  1  0  0  0
 13 14  2  0  0  0
 14 15  1  0  0  0
 15  7  2  0  0  0
 14 10  1  0  0  0
  6  1  1  0  0  0
 42 37  1  0  0  0
 27 22  1  0  0  0
 34 32  1  0  0  0
 35 36  1  0  0  0
 20 21  1  0  0  0
 28 31  1  0  0  0
M  END
> <minimizedAffinity>
-8.32810

> <CNNscore>
0.1027338952

> <CNNaffinity>
6.9337439537

> <CNN_VS>
0.7123305202

> <CNNaffinity_variance>
0.2957811952

$$$$
[H]c1nc([H])c(N([H])c2c([H])c(-c3c([H])c([H])c4c([H])c(C#N)c([H])nn34)nc([H])c2C(=O)N([H])[C@]2([H])C([H])([H])C([H])([H])[C@@]([H])(N([H])C(=O)C3([H])C([H])([H])C3([H])[H])C([H])([H])C2([H])[H])c([H])c1[H]


 42 47  0  0  0  0  0  0  0  0999 V2000
   39.4907   13.7083  -14.4894 C   0  0  0  0  0  0  0  0  0  0  0  0
   38.1673   13.3844  -14.4564 C   0  0  0  0  0  0  0  0  0  0  0  0
   37.2056   13.9137  -13.6004 C   0  0  0  0  0  0  0  0  0  0  0  0
   37.6583   14.8736  -12.6895 C   0  0  0  0  0  0  0  0  0  0  0  0
   39.0186   15.2149  -12.7108 C   0  0  0  0  0  0  0  0  0  0  0  0
   39.8703   14.6518  -13.5716 N   0  0  0  0  0  0  0  0  0  0  0  0
   44.5418   12.8873  -15.4428 C   0  0  0  0  0  0  0  0  0  0  0  0
   43.9399   13.4961  -14.3723 C   0  0  0  0  0  0  0  0  0  0  0  0
   42.6087   13.5860  -14.3509 N   0  0  0  0  0  0  0  0  0  0  0  0
   41.8209   13.1200  -15.3065 N   0  0  0  0  0  0  0  0  0  0  0  0
   40.4961   13.1571  -15.3880 C   0  0  0  0  0  0  0  0  0  0  0  0
   40.1740   12.5287  -16.5982 C   0  0  0  0  0  0  0  0  0  0  0  0
   41.3382   12.1316  -17.2070 C   0  0  0  0  0  0  0  0  0  0  0  0
   42.3818   12.5177  -16.3670 C   0  0  0  0  0  0  0  0  0  0  0  0
   43.7481   12.3910  -16.4539 C   0  0  0  0  0  0  0  0  0  0  0  0
   47.1246   12.7127  -15.5068 N   0  0  0  0  0  0  0  0  0  0  0  0
   45.9684   12.7888  -15.4816 C   0  0  0  0  0  0  0  0  0  0  0  0
   36.7603   15.5749  -11.8100 C   0  0  0  0  0  0  0  0  0  0  0  0
   36.3519   16.7452  -12.1291 O   0  0  0  0  0  0  0  0  0  0  0  0
   36.2860   15.0494  -10.5934 N   0  0  0  0  0  0  0  0  0  0  0  0
   36.5796   14.1019  -10.2944 H   0  0  0  0  0  0  0  0  0  0  0  0
   35.3848   15.8635   -9.7921 C   0  0  0  0  0  0  0  0  0  0  0  0
   33.9665   15.4096  -10.1511 C   0  0  0  0  0  0  0  0  0  0  0  0
   32.9834   16.0761   -9.1955 C   0  0  0  0  0  0  0  0  0  0  0  0
   33.1715   15.3511   -7.8546 C   0  0  0  0  0  0  0  0  0  0  0  0
   34.5592   14.8301   -7.7100 C   0  0  0  0  0  0  0  0  0  0  0  0
   35.5902   15.7901   -8.3269 C   0  0  0  0  0  0  0  0  0  0  0  0
   32.8863   16.3246   -6.8106 N   0  0  0  0  0  0  0  0  0  0  0  0
   31.6146   16.3390   -6.2014 C   0  0  0  0  0  0  0  0  0  0  0  0
   30.7219   15.5075   -6.5706 O   0  0  0  0  0  0  0  0  0  0  0  0
   33.6071   17.0022   -6.5095 H   0  0  0  0  0  0  0  0  0  0  0  0
   31.2995   17.3085   -5.1367 C   0  0  0  0  0  0  0  0  0  0  0  0
   29.9933   17.9688   -5.0974 C   0  0  0  0  0  0  0  0  0  0  0  0
   31.1276   18.7362   -5.6932 C   0  0  0  0  0  0  0  0  0  0  0  0
   35.9109   13.3929  -13.5979 N   0  0  0  0  0  0  0  0  0  0  0  0
   35.2666   13.5643  -12.7960 H   0  0  0  0  0  0  0  0  0  0  0  0
   35.3901   12.5683  -14.6161 C   0  0  0  0  0  0  0  0  0  0  0  0
   36.1104   12.1538  -15.7441 C   0  0  0  0  0  0  0  0  0  0  0  0
   35.5493   11.3518  -16.7041 C   0  0  0  0  0  0  0  0  0  0  0  0
   34.2450   10.9430  -16.5570 C   0  0  0  0  0  0  0  0  0  0  0  0
   33.5248   11.3227  -15.4879 N   0  0  0  0  0  0  0  0  0  0  0  0
   34.0748   12.1022  -14.5564 C   0  0  0  0  0  0  0  0  0  0  0  0
 16 17  3  0  0  0
 17  7  1  0  0  0
  7  8  1  0  0  0
  8  9  2  0  0  0
  9 10  1  0  0  0
 10 11  1  0  0  0
 11  1  1  0  0  0
  1  2  2  0  0  0
  2  3  1  0  0  0
  3 35  1  0  0  0
 35 37  1  0  0  0
 37 38  2  0  0  0
 38 39  1  0  0  0
 39 40  2  0  0  0
 40 41  1  0  0  0
 41 42  2  0  0  0
  3  4  2  0  0  0
  4 18  1  0  0  0
 18 19  2  0  0  0
 18 20  1  0  0  0
 20 22  1  0  0  0
 22 23  1  0  0  0
 23 24  1  0  0  0
 24 25  1  0  0  0
 25 28  1  0  0  0
 28 29  1  0  0  0
 29 30  2  0  0  0
 29 32  1  0  0  0
 32 33  1  0  0  0
 33 34  1  0  0  0
 25 26  1  0  0  0
 26 27  1  0  0  0
  4  5  1  0  0  0
  5  6  2  0  0  0
 11 12  2  0  0  0
 12 13  1  0  0  0
 13 14  2  0  0  0
 14 15  1  0  0  0
 15  7  2  0  0  0
 14 10  1  0  0  0
  6  1  1  0  0  0
 42 37  1  0  0  0
 27 22  1  0  0  0
 34 32  1  0  0  0
 35 36  1  0  0  0
 20 21  1  0  0  0
 28 31  1  0  0  0
M  END
> <minimizedAffinity>
-9.86067

> <CNNscore>
0.0959023535

> <CNNaffinity>
6.7793107033

> <CNN_VS>
0.6501518488

> <CNNaffinity_variance>
0.0861230195

$$$$
[H]c1nc([H])c(N([H])c2c([H])c(-c3c([H])c([H])c4c([H])c(C#N)c([H])nn34)nc([H])c2C(=O)N([H])[C@]2([H])C([H])([H])C([H])([H])[C@@]([H])(N([H])C(=O)C3([H])C([H])([H])C3([H])[H])C([H])([H])C2([H])[H])c([H])c1[H]


 42 47  0  0  0  0  0  0  0  0999 V2000
   42.0866   15.5174  -11.3761 C   0  0  0  0  0  0  0  0  0  0  0  0
   42.1733   15.3071  -10.0323 C   0  0  0  0  0  0  0  0  0  0  0  0
   41.2395   15.6865   -9.0721 C   0  0  0  0  0  0  0  0  0  0  0  0
   40.1036   16.3478   -9.5503 C   0  0  0  0  0  0  0  0  0  0  0  0
   40.0024   16.5730  -10.9311 C   0  0  0  0  0  0  0  0  0  0  0  0
   40.9524   16.1713  -11.7794 N   0  0  0  0  0  0  0  0  0  0  0  0
   46.0580   16.9187  -14.4357 C   0  0  0  0  0  0  0  0  0  0  0  0
   45.3438   17.6616  -13.5319 C   0  0  0  0  0  0  0  0  0  0  0  0
   44.3577   17.0715  -12.8537 N   0  0  0  0  0  0  0  0  0  0  0  0
   44.0194   15.8003  -12.9971 N   0  0  0  0  0  0  0  0  0  0  0  0
   43.0622   15.1168  -12.3811 C   0  0  0  0  0  0  0  0  0  0  0  0
   43.1304   13.8176  -12.9015 C   0  0  0  0  0  0  0  0  0  0  0  0
   44.1438   13.7705  -13.8259 C   0  0  0  0  0  0  0  0  0  0  0  0
   44.7017   15.0473  -13.8744 C   0  0  0  0  0  0  0  0  0  0  0  0
   45.7301   15.5914  -14.6072 C   0  0  0  0  0  0  0  0  0  0  0  0
   47.9652   18.0475  -15.7749 N   0  0  0  0  0  0  0  0  0  0  0  0
   47.1142   17.5398  -15.1739 C   0  0  0  0  0  0  0  0  0  0  0  0
   39.0122   16.7129   -8.6859 C   0  0  0  0  0  0  0  0  0  0  0  0
   38.2668   15.7975   -8.1913 O   0  0  0  0  0  0  0  0  0  0  0  0
   38.7008   18.0401   -8.3356 N   0  0  0  0  0  0  0  0  0  0  0  0
   39.2798   18.8171   -8.7023 H   0  0  0  0  0  0  0  0  0  0  0  0
   37.5660   18.2759   -7.4559 C   0  0  0  0  0  0  0  0  0  0  0  0
   38.1531   18.5749   -6.0729 C   0  0  0  0  0  0  0  0  0  0  0  0
   37.0279   19.0357   -5.1535 C   0  0  0  0  0  0  0  0  0  0  0  0
   36.6853   20.4588   -5.6189 C   0  0  0  0  0  0  0  0  0  0  0  0
   36.9720   20.6386   -7.0692 C   0  0  0  0  0  0  0  0  0  0  0  0
   36.6521   19.3655   -7.8704 C   0  0  0  0  0  0  0  0  0  0  0  0
   35.2667   20.6531   -5.3567 N   0  0  0  0  0  0  0  0  0  0  0  0
   34.8422   21.7845   -4.6299 C   0  0  0  0  0  0  0  0  0  0  0  0
   35.6993   22.6250   -4.2016 O   0  0  0  0  0  0  0  0  0  0  0  0
   34.5683   19.9726   -5.7007 H   0  0  0  0  0  0  0  0  0  0  0  0
   33.4117   22.0112   -4.3554 C   0  0  0  0  0  0  0  0  0  0  0  0
   32.3999   21.6588   -5.3531 C   0  0  0  0  0  0  0  0  0  0  0  0
   32.8144   23.0916   -5.2792 C   0  0  0  0  0  0  0  0  0  0  0  0
   41.5232   15.5151   -7.7166 N   0  0  0  0  0  0  0  0  0  0  0  0
   41.7703   16.3299   -7.1144 H   0  0  0  0  0  0  0  0  0  0  0  0
   41.5572   14.2629   -7.0697 C   0  0  0  0  0  0  0  0  0  0  0  0
   42.4131   13.9444   -6.0071 C   0  0  0  0  0  0  0  0  0  0  0  0
   42.4023   12.7067   -5.4177 C   0  0  0  0  0  0  0  0  0  0  0  0
   41.5288   11.7516   -5.8811 C   0  0  0  0  0  0  0  0  0  0  0  0
   40.6947   12.0228   -6.8992 N   0  0  0  0  0  0  0  0  0  0  0  0
   40.7082   13.2282   -7.4689 C   0  0  0  0  0  0  0  0  0  0  0  0
 16 17  3  0  0  0
 17  7  1  0  0  0
  7  8  1  0  0  0
  8  9  2  0  0  0
  9 10  1  0  0  0
 10 11  1  0  0  0
 11  1  1  0  0  0
  1  2  2  0  0  0
  2  3  1  0  0  0
  3 35  1  0  0  0
 35 37  1  0  0  0
 37 38  2  0  0  0
 38 39  1  0  0  0
 39 40  2  0  0  0
 40 41  1  0  0  0
 41 42  2  0  0  0
  3  4  2  0  0  0
  4 18  1  0  0  0
 18 19  2  0  0  0
 18 20  1  0  0  0
 20 22  1  0  0  0
 22 23  1  0  0  0
 23 24  1  0  0  0
 24 25  1  0  0  0
 25 28  1  0  0  0
 28 29  1  0  0  0
 29 30  2  0  0  0
 29 32  1  0  0  0
 32 33  1  0  0  0
 33 34  1  0  0  0
 25 26  1  0  0  0
 26 27  1  0  0  0
  4  5  1  0  0  0
  5  6  2  0  0  0
 11 12  2  0  0  0
 12 13  1  0  0  0
 13 14  2  0  0  0
 14 15  1  0  0  0
 15  7  2  0  0  0
 14 10  1  0  0  0
  6  1  1  0  0  0
 42 37  1  0  0  0
 27 22  1  0  0  0
 34 32  1  0  0  0
 35 36  1  0  0  0
 20 21  1  0  0  0
 28 31  1  0  0  0
M  END
> <minimizedAffinity>
-6.91511

> <CNNscore>
0.0959008336

> <CNNaffinity>
5.9081792831

> <CNN_VS>
0.5665993094

> <CNNaffinity_variance>
0.0179618802

$$$$
[H]c1c([H])c([H])c(N2C(N3C([H])([H])C([H])([H])C([H])([H])C([H])([H])C3([H])[H])=Nc3c([H])c([H])c([H])c([H])c3C2([H])C([H])([H])C(=O)N([H])C([H])([H])c2c([H])c([H])c([H])c([H])c2[H])c([H])c1[H]


 34 38  0  0  0  0  0  0  0  0999 V2000
   41.4344   13.8759  -14.3836 C   0  0  0  0  0  0  0  0  0  0  0  0
   41.1010   12.9691  -15.4868 C   0  0  0  0  0  0  0  0  0  0  0  0
   39.8561   12.4077  -15.6857 C   0  0  0  0  0  0  0  0  0  0  0  0
   39.6201   11.6752  -16.8459 C   0  0  0  0  0  0  0  0  0  0  0  0
   40.5896   11.4914  -17.8013 C   0  0  0  0  0  0  0  0  0  0  0  0
   41.8300   12.0388  -17.6137 C   0  0  0  0  0  0  0  0  0  0  0  0
   42.0864   12.7818  -16.4415 C   0  0  0  0  0  0  0  0  0  0  0  0
   43.4345   13.1642  -16.1873 N   0  0  0  0  0  0  0  0  0  0  0  0
   43.7668   13.6834  -15.0410 C   0  0  0  0  0  0  0  0  0  0  0  0
   42.8063   13.8064  -14.0036 N   0  0  0  0  0  0  0  0  0  0  0  0
   45.1327   14.0518  -14.8542 N   0  0  0  0  0  0  0  0  0  0  0  0
   45.4461   15.4318  -14.6358 C   0  0  0  0  0  0  0  0  0  0  0  0
   46.5717   15.5746  -13.5941 C   0  0  0  0  0  0  0  0  0  0  0  0
   47.7275   14.7589  -14.1282 C   0  0  0  0  0  0  0  0  0  0  0  0
   47.3503   13.3194  -14.0972 C   0  0  0  0  0  0  0  0  0  0  0  0
   46.1115   12.9917  -14.8900 C   0  0  0  0  0  0  0  0  0  0  0  0
   43.2166   13.8534  -12.6523 C   0  0  0  0  0  0  0  0  0  0  0  0
   43.7436   12.7674  -11.9900 C   0  0  0  0  0  0  0  0  0  0  0  0
   44.1270   12.8537  -10.6731 C   0  0  0  0  0  0  0  0  0  0  0  0
   44.0069   14.0172   -9.9506 C   0  0  0  0  0  0  0  0  0  0  0  0
   43.4788   15.1012  -10.6177 C   0  0  0  0  0  0  0  0  0  0  0  0
   43.0921   15.0346  -11.9267 C   0  0  0  0  0  0  0  0  0  0  0  0
   40.4434   14.1146  -13.3240 C   0  0  0  0  0  0  0  0  0  0  0  0
   39.0336   15.4918  -14.6607 O   0  0  0  0  0  0  0  0  0  0  0  0
   39.1232   14.5881  -13.7897 C   0  0  0  0  0  0  0  0  0  0  0  0
   37.9051   14.0488  -13.2792 N   0  0  0  0  0  0  0  0  0  0  0  0
   37.9012   13.2928  -12.5511 H   0  0  0  0  0  0  0  0  0  0  0  0
   36.6375   14.5395  -13.7593 C   0  0  0  0  0  0  0  0  0  0  0  0
   35.8333   13.4958  -14.4368 C   0  0  0  0  0  0  0  0  0  0  0  0
   36.3681   12.8238  -15.5065 C   0  0  0  0  0  0  0  0  0  0  0  0
   35.6537   11.8322  -16.1760 C   0  0  0  0  0  0  0  0  0  0  0  0
   34.3765   11.5115  -15.7599 C   0  0  0  0  0  0  0  0  0  0  0  0
   33.8374   12.1964  -14.6734 C   0  0  0  0  0  0  0  0  0  0  0  0
   34.5653   13.1845  -14.0161 C   0  0  0  0  0  0  0  0  0  0  0  0
 24 25  2  0  0  0
 25 23  1  0  0  0
 23  1  1  0  0  0
  1  2  1  0  0  0
  2  3  2  0  0  0
  3  4  1  0  0  0
  4  5  2  0  0  0
  5  6  1  0  0  0
  6  7  2  0  0  0
  7  8  1  0  0  0
  8  9  2  0  0  0
  9 11  1  0  0  0
 11 12  1  0  0  0
 12 13  1  0  0  0
 13 14  1  0  0  0
 14 15  1  0  0  0
 15 16  1  0  0  0
  9 10  1  0  0  0
 10 17  1  0  0  0
 17 18  2  0  0  0
 18 19  1  0  0  0
 19 20  2  0  0  0
 20 21  1  0  0  0
 21 22  2  0  0  0
 25 26  1  0  0  0
 26 28  1  0  0  0
 28 29  1  0  0  0
 29 30  2  0  0  0
 30 31  1  0  0  0
 31 32  2  0  0  0
 32 33  1  0  0  0
 33 34  2  0  0  0
 10  1  1  0  0  0
 22 17  1  0  0  0
 34 29  1  0  0  0
  7  2  1  0  0  0
 16 11  1  0  0  0
 26 27  1  0  0  0
M  END
> <minimizedAffinity>
-8.09137

> <CNNscore>
0.2477805763

> <CNNaffinity>
6.6610879898

> <CNN_VS>
1.6504882574

> <CNNaffinity_variance>
0.0740315914

$$$$
[H]c1c([H])c([H])c(N2C(N3C([H])([H])C([H])([H])C([H])([H])C([H])([H])C3([H])[H])=Nc3c([H])c([H])c([H])c([H])c3C2([H])C([H])([H])C(=O)N([H])C([H])([H])c2c([H])c([H])c([H])c([H])c2[H])c([H])c1[H]


 34 38  0  0  0  0  0  0  0  0999 V2000
   41.8017   14.3842  -13.6611 C   0  0  0  0  0  0  0  0  0  0  0  0
   41.1199   13.5298  -14.6386 C   0  0  0  0  0  0  0  0  0  0  0  0
   39.7924   13.1611  -14.5602 C   0  0  0  0  0  0  0  0  0  0  0  0
   39.2185   12.4640  -15.6199 C   0  0  0  0  0  0  0  0  0  0  0  0
   39.9335   12.1289  -16.7438 C   0  0  0  0  0  0  0  0  0  0  0  0
   41.2523   12.4843  -16.8318 C   0  0  0  0  0  0  0  0  0  0  0  0
   41.8499   13.1889  -15.7649 C   0  0  0  0  0  0  0  0  0  0  0  0
   43.2625   13.3655  -15.8032 N   0  0  0  0  0  0  0  0  0  0  0  0
   43.8955   13.8372  -14.7683 C   0  0  0  0  0  0  0  0  0  0  0  0
   43.1973   14.1114  -13.5637 N   0  0  0  0  0  0  0  0  0  0  0  0
   45.3095   13.9967  -14.8757 N   0  0  0  0  0  0  0  0  0  0  0  0
   45.8514   15.3221  -14.8707 C   0  0  0  0  0  0  0  0  0  0  0  0
   47.1691   15.3669  -14.0741 C   0  0  0  0  0  0  0  0  0  0  0  0
   48.0699   14.3369  -14.7177 C   0  0  0  0  0  0  0  0  0  0  0  0
   47.5068   12.9833  -14.4608 C   0  0  0  0  0  0  0  0  0  0  0  0
   46.1024   12.7947  -14.9733 C   0  0  0  0  0  0  0  0  0  0  0  0
   43.8789   14.1061  -12.3260 C   0  0  0  0  0  0  0  0  0  0  0  0
   44.2771   15.2572  -11.6840 C   0  0  0  0  0  0  0  0  0  0  0  0
   44.9420   15.2087  -10.4822 C   0  0  0  0  0  0  0  0  0  0  0  0
   45.2439   14.0204   -9.8602 C   0  0  0  0  0  0  0  0  0  0  0  0
   44.8434   12.8711  -10.5067 C   0  0  0  0  0  0  0  0  0  0  0  0
   44.1814   12.8994  -11.7018 C   0  0  0  0  0  0  0  0  0  0  0  0
   41.0954   14.7776  -12.4330 C   0  0  0  0  0  0  0  0  0  0  0  0
   39.3987   16.0557  -13.5092 O   0  0  0  0  0  0  0  0  0  0  0  0
   39.6964   15.2145  -12.6220 C   0  0  0  0  0  0  0  0  0  0  0  0
   38.6326   14.7088  -11.8171 N   0  0  0  0  0  0  0  0  0  0  0  0
   38.8048   14.0049  -11.0578 H   0  0  0  0  0  0  0  0  0  0  0  0
   37.2814   15.1621  -12.0330 C   0  0  0  0  0  0  0  0  0  0  0  0
   36.4944   14.2446  -12.8897 C   0  0  0  0  0  0  0  0  0  0  0  0
   36.3363   14.5375  -14.2206 C   0  0  0  0  0  0  0  0  0  0  0  0
   35.6078   13.7058  -15.0688 C   0  0  0  0  0  0  0  0  0  0  0  0
   35.0276   12.5575  -14.5668 C   0  0  0  0  0  0  0  0  0  0  0  0
   35.1906   12.2641  -13.2149 C   0  0  0  0  0  0  0  0  0  0  0  0
   35.9218   13.1063  -12.3817 C   0  0  0  0  0  0  0  0  0  0  0  0
 24 25  2  0  0  0
 25 23  1  0  0  0
 23  1  1  0  0  0
  1  2  1  0  0  0
  2  3  2  0  0  0
  3  4  1  0  0  0
  4  5  2  0  0  0
  5  6  1  0  0  0
  6  7  2  0  0  0
  7  8  1  0  0  0
  8  9  2  0  0  0
  9 11  1  0  0  0
 11 12  1  0  0  0
 12 13  1  0  0  0
 13 14  1  0  0  0
 14 15  1  0  0  0
 15 16  1  0  0  0
  9 10  1  0  0  0
 10 17  1  0  0  0
 17 18  2  0  0  0
 18 19  1  0  0  0
 19 20  2  0  0  0
 20 21  1  0  0  0
 21 22  2  0  0  0
 25 26  1  0  0  0
 26 28  1  0  0  0
 28 29  1  0  0  0
 29 30  2  0  0  0
 30 31  1  0  0  0
 31 32  2  0  0  0
 32 33  1  0  0  0
 33 34  2  0  0  0
 10  1  1  0  0  0
 22 17  1  0  0  0
 34 29  1  0  0  0
  7  2  1  0  0  0
 16 11  1  0  0  0
 26 27  1  0  0  0
M  END
> <minimizedAffinity>
-7.57445

> <CNNscore>
0.2212582529

> <CNNaffinity>
6.4653663635

> <CNN_VS>
1.4305156469

> <CNNaffinity_variance>
0.1012612432

$$$$
[H]c1c([H])c([H])c(N2C(N3C([H])([H])C([H])([H])C([H])([H])C([H])([H])C3([H])[H])=Nc3c([H])c([H])c([H])c([H])c3C2([H])C([H])([H])C(=O)N([H])C([H])([H])c2c([H])c([H])c([H])c([H])c2[H])c([H])c1[H]


 34 38  0  0  0  0  0  0  0  0999 V2000
   35.2593   15.8219   -8.2218 C   0  0  0  0  0  0  0  0  0  0  0  0
   34.4277   15.7953   -9.4293 C   0  0  0  0  0  0  0  0  0  0  0  0
   34.8942   15.4855  -10.6906 C   0  0  0  0  0  0  0  0  0  0  0  0
   33.9847   15.3542  -11.7366 C   0  0  0  0  0  0  0  0  0  0  0  0
   32.6342   15.5250  -11.5536 C   0  0  0  0  0  0  0  0  0  0  0  0
   32.1592   15.8374  -10.3085 C   0  0  0  0  0  0  0  0  0  0  0  0
   33.0683   15.9769   -9.2379 C   0  0  0  0  0  0  0  0  0  0  0  0
   32.5642   16.4944   -8.0107 N   0  0  0  0  0  0  0  0  0  0  0  0
   33.3790   16.8225   -7.0502 C   0  0  0  0  0  0  0  0  0  0  0  0
   34.7828   16.7389   -7.2401 N   0  0  0  0  0  0  0  0  0  0  0  0
   32.8080   17.3275   -5.8438 N   0  0  0  0  0  0  0  0  0  0  0  0
   32.5728   16.4170   -4.7640 C   0  0  0  0  0  0  0  0  0  0  0  0
   32.8920   17.0835   -3.4125 C   0  0  0  0  0  0  0  0  0  0  0  0
   32.0390   18.3311   -3.3615 C   0  0  0  0  0  0  0  0  0  0  0  0
   32.5297   19.2871   -4.3914 C   0  0  0  0  0  0  0  0  0  0  0  0
   32.5138   18.7396   -5.7951 C   0  0  0  0  0  0  0  0  0  0  0  0
   35.6562   17.5453   -6.4763 C   0  0  0  0  0  0  0  0  0  0  0  0
   36.1978   17.1379   -5.2778 C   0  0  0  0  0  0  0  0  0  0  0  0
   37.0406   17.9548   -4.5629 C   0  0  0  0  0  0  0  0  0  0  0  0
   37.3865   19.2116   -4.9998 C   0  0  0  0  0  0  0  0  0  0  0  0
   36.8418   19.6149   -6.1997 C   0  0  0  0  0  0  0  0  0  0  0  0
   36.0021   18.8168   -6.9245 C   0  0  0  0  0  0  0  0  0  0  0  0
   36.7141   15.6495   -8.3461 C   0  0  0  0  0  0  0  0  0  0  0  0
   36.5250   13.4914   -7.3572 O   0  0  0  0  0  0  0  0  0  0  0  0
   37.2682   14.4569   -7.6718 C   0  0  0  0  0  0  0  0  0  0  0  0
   38.6538   14.3473   -7.3505 N   0  0  0  0  0  0  0  0  0  0  0  0
   39.3339   15.1125   -7.5821 H   0  0  0  0  0  0  0  0  0  0  0  0
   39.1540   13.1671   -6.6910 C   0  0  0  0  0  0  0  0  0  0  0  0
   40.5171   13.3478   -6.1391 C   0  0  0  0  0  0  0  0  0  0  0  0
   41.3243   12.2517   -5.9694 C   0  0  0  0  0  0  0  0  0  0  0  0
   42.6149   12.3687   -5.4568 C   0  0  0  0  0  0  0  0  0  0  0  0
   43.1012   13.6134   -5.1086 C   0  0  0  0  0  0  0  0  0  0  0  0
   42.2782   14.7236   -5.2826 C   0  0  0  0  0  0  0  0  0  0  0  0
   40.9912   14.5884   -5.7961 C   0  0  0  0  0  0  0  0  0  0  0  0
 24 25  2  0  0  0
 25 23  1  0  0  0
 23  1  1  0  0  0
  1  2  1  0  0  0
  2  3  2  0  0  0
  3  4  1  0  0  0
  4  5  2  0  0  0
  5  6  1  0  0  0
  6  7  2  0  0  0
  7  8  1  0  0  0
  8  9  2  0  0  0
  9 11  1  0  0  0
 11 12  1  0  0  0
 12 13  1  0  0  0
 13 14  1  0  0  0
 14 15  1  0  0  0
 15 16  1  0  0  0
  9 10  1  0  0  0
 10 17  1  0  0  0
 17 18  2  0  0  0
 18 19  1  0  0  0
 19 20  2  0  0  0
 20 21  1  0  0  0
 21 22  2  0  0  0
 25 26  1  0  0  0
 26 28  1  0  0  0
 28 29  1  0  0  0
 29 30  2  0  0  0
 30 31  1  0  0  0
 31 32  2  0  0  0
 32 33  1  0  0  0
 33 34  2  0  0  0
 10  1  1  0  0  0
 22 17  1  0  0  0
 34 29  1  0  0  0
  7  2  1  0  0  0
 16 11  1  0  0  0
 26 27  1  0  0  0
M  END
> <minimizedAffinity>
-6.08922

> <CNNscore>
0.2018584460

> <CNNaffinity>
5.2166361809

> <CNN_VS>
1.0530220270

> <CNNaffinity_variance>
0.4541817307

$$$$
[H]c1c([H])c([H])c(N2C(N3C([H])([H])C([H])([H])C([H])([H])C([H])([H])C3([H])[H])=Nc3c([H])c([H])c([H])c([H])c3C2([H])C([H])([H])C(=O)N([H])C([H])([H])c2c([H])c([H])c([H])c([H])c2[H])c([H])c1[H]


 34 38  0  0  0  0  0  0  0  0999 V2000
   38.1323   15.3375   -7.8021 C   0  0  0  0  0  0  0  0  0  0  0  0
   36.9364   15.0682   -6.9974 C   0  0  0  0  0  0  0  0  0  0  0  0
   35.8174   15.8753   -6.9692 C   0  0  0  0  0  0  0  0  0  0  0  0
   34.6882   15.4451   -6.2777 C   0  0  0  0  0  0  0  0  0  0  0  0
   34.6523   14.2402   -5.6192 C   0  0  0  0  0  0  0  0  0  0  0  0
   35.7572   13.4326   -5.6353 C   0  0  0  0  0  0  0  0  0  0  0  0
   36.9111   13.8553   -6.3295 C   0  0  0  0  0  0  0  0  0  0  0  0
   38.0987   13.0882   -6.1591 N   0  0  0  0  0  0  0  0  0  0  0  0
   39.2362   13.5251   -6.6165 C   0  0  0  0  0  0  0  0  0  0  0  0
   39.3213   14.8045   -7.2245 N   0  0  0  0  0  0  0  0  0  0  0  0
   40.3864   12.7038   -6.4192 N   0  0  0  0  0  0  0  0  0  0  0  0
   40.9689   12.0566   -7.5559 C   0  0  0  0  0  0  0  0  0  0  0  0
   42.5059   12.0603   -7.4543 C   0  0  0  0  0  0  0  0  0  0  0  0
   42.8290   11.3948   -6.1355 C   0  0  0  0  0  0  0  0  0  0  0  0
   42.3648   12.2764   -5.0297 C   0  0  0  0  0  0  0  0  0  0  0  0
   40.8917   12.5909   -5.0720 C   0  0  0  0  0  0  0  0  0  0  0  0
   40.5475   15.5065   -7.2428 C   0  0  0  0  0  0  0  0  0  0  0  0
   41.3805   15.5330   -8.3387 C   0  0  0  0  0  0  0  0  0  0  0  0
   42.5676   16.2250   -8.3142 C   0  0  0  0  0  0  0  0  0  0  0  0
   42.9857   16.9222   -7.2056 C   0  0  0  0  0  0  0  0  0  0  0  0
   42.1486   16.8926   -6.1112 C   0  0  0  0  0  0  0  0  0  0  0  0
   40.9647   16.2103   -6.1168 C   0  0  0  0  0  0  0  0  0  0  0  0
   38.2380   16.6107   -8.5300 C   0  0  0  0  0  0  0  0  0  0  0  0
   38.8305   16.9520  -10.8110 O   0  0  0  0  0  0  0  0  0  0  0  0
   37.9820   16.5299   -9.9832 C   0  0  0  0  0  0  0  0  0  0  0  0
   36.7760   15.9766  -10.5073 N   0  0  0  0  0  0  0  0  0  0  0  0
   36.0228   15.6049   -9.8779 H   0  0  0  0  0  0  0  0  0  0  0  0
   36.5646   15.9176  -11.9320 C   0  0  0  0  0  0  0  0  0  0  0  0
   36.8313   14.5756  -12.5003 C   0  0  0  0  0  0  0  0  0  0  0  0
   35.9117   13.5738  -12.3188 C   0  0  0  0  0  0  0  0  0  0  0  0
   36.1142   12.2955  -12.8354 C   0  0  0  0  0  0  0  0  0  0  0  0
   37.2648   12.0213  -13.5482 C   0  0  0  0  0  0  0  0  0  0  0  0
   38.1958   13.0413  -13.7300 C   0  0  0  0  0  0  0  0  0  0  0  0
   37.9773   14.3128  -13.2069 C   0  0  0  0  0  0  0  0  0  0  0  0
 24 25  2  0  0  0
 25 23  1  0  0  0
 23  1  1  0  0  0
  1  2  1  0  0  0
  2  3  2  0  0  0
  3  4  1  0  0  0
  4  5  2  0  0  0
  5  6  1  0  0  0
  6  7  2  0  0  0
  7  8  1  0  0  0
  8  9  2  0  0  0
  9 11  1  0  0  0
 11 12  1  0  0  0
 12 13  1  0  0  0
 13 14  1  0  0  0
 14 15  1  0  0  0
 15 16  1  0  0  0
  9 10  1  0  0  0
 10 17  1  0  0  0
 17 18  2  0  0  0
 18 19  1  0  0  0
 19 20  2  0  0  0
 20 21  1  0  0  0
 21 22  2  0  0  0
 25 26  1  0  0  0
 26 28  1  0  0  0
 28 29  1  0  0  0
 29 30  2  0  0  0
 30 31  1  0  0  0
 31 32  2  0  0  0
 32 33  1  0  0  0
 33 34  2  0  0  0
 10  1  1  0  0  0
 22 17  1  0  0  0
 34 29  1  0  0  0
  7  2  1  0  0  0
 16 11  1  0  0  0
 26 27  1  0  0  0
M  END
> <minimizedAffinity>
-6.70715

> <CNNscore>
0.1449358165

> <CNNaffinity>
5.5622019768

> <CNN_VS>
0.8061622977

> <CNNaffinity_variance>
0.1283603907

$$$$
[H]c1c([H])c([H])c(N2C(N3C([H])([H])C([H])([H])C([H])([H])C([H])([H])C3([H])[H])=Nc3c([H])c([H])c([H])c([H])c3C2([H])C([H])([H])C(=O)N([H])C([H])([H])c2c([H])c([H])c([H])c([H])c2[H])c([H])c1[H]


 34 38  0  0  0  0  0  0  0  0999 V2000
   43.3794   15.5414  -12.6106 C   0  0  0  0  0  0  0  0  0  0  0  0
   43.3891   14.5601  -13.7003 C   0  0  0  0  0  0  0  0  0  0  0  0
   42.3604   13.6796  -13.9660 C   0  0  0  0  0  0  0  0  0  0  0  0
   42.4212   12.8916  -15.1121 C   0  0  0  0  0  0  0  0  0  0  0  0
   43.4762   12.9612  -15.9889 C   0  0  0  0  0  0  0  0  0  0  0  0
   44.5054   13.8269  -15.7342 C   0  0  0  0  0  0  0  0  0  0  0  0
   44.4603   14.6308  -14.5751 C   0  0  0  0  0  0  0  0  0  0  0  0
   45.6319   15.3678  -14.2403 N   0  0  0  0  0  0  0  0  0  0  0  0
   45.7218   15.9764  -13.0933 C   0  0  0  0  0  0  0  0  0  0  0  0
   44.6854   15.8520  -12.1319 N   0  0  0  0  0  0  0  0  0  0  0  0
   46.9196   16.7037  -12.8239 N   0  0  0  0  0  0  0  0  0  0  0  0
   46.9493   18.1057  -13.1137 C   0  0  0  0  0  0  0  0  0  0  0  0
   47.7323   18.8680  -12.0281 C   0  0  0  0  0  0  0  0  0  0  0  0
   49.0983   18.2211  -11.9804 C   0  0  0  0  0  0  0  0  0  0  0  0
   48.9525   16.8365  -11.4539 C   0  0  0  0  0  0  0  0  0  0  0  0
   48.0259   15.9660  -12.2628 C   0  0  0  0  0  0  0  0  0  0  0  0
   44.9609   16.0306  -10.7575 C   0  0  0  0  0  0  0  0  0  0  0  0
   45.3216   14.9958   -9.9241 C   0  0  0  0  0  0  0  0  0  0  0  0
   45.5773   15.2111   -8.5911 C   0  0  0  0  0  0  0  0  0  0  0  0
   45.4881   16.4589   -8.0209 C   0  0  0  0  0  0  0  0  0  0  0  0
   45.1268   17.4914   -8.8591 C   0  0  0  0  0  0  0  0  0  0  0  0
   44.8687   17.2967  -10.1869 C   0  0  0  0  0  0  0  0  0  0  0  0
   42.2809   15.5205  -11.6335 C   0  0  0  0  0  0  0  0  0  0  0  0
   40.7826   16.8879  -12.8809 O   0  0  0  0  0  0  0  0  0  0  0  0
   40.9482   15.8596  -12.1747 C   0  0  0  0  0  0  0  0  0  0  0  0
   39.8029   15.0468  -11.9244 N   0  0  0  0  0  0  0  0  0  0  0  0
   39.8644   14.1742  -11.3442 H   0  0  0  0  0  0  0  0  0  0  0  0
   38.5201   15.4136  -12.4700 C   0  0  0  0  0  0  0  0  0  0  0  0
   38.0117   14.4346  -13.4589 C   0  0  0  0  0  0  0  0  0  0  0  0
   36.6990   14.4967  -13.8526 C   0  0  0  0  0  0  0  0  0  0  0  0
   36.1730   13.6010  -14.7816 C   0  0  0  0  0  0  0  0  0  0  0  0
   36.9847   12.6242  -15.3239 C   0  0  0  0  0  0  0  0  0  0  0  0
   38.3169   12.5647  -14.9212 C   0  0  0  0  0  0  0  0  0  0  0  0
   38.8258   13.4678  -13.9919 C   0  0  0  0  0  0  0  0  0  0  0  0
 24 25  2  0  0  0
 25 23  1  0  0  0
 23  1  1  0  0  0
  1  2  1  0  0  0
  2  3  2  0  0  0
  3  4  1  0  0  0
  4  5  2  0  0  0
  5  6  1  0  0  0
  6  7  2  0  0  0
  7  8  1  0  0  0
  8  9  2  0  0  0
  9 11  1  0  0  0
 11 12  1  0  0  0
 12 13  1  0  0  0
 13 14  1  0  0  0
 14 15  1  0  0  0
 15 16  1  0  0  0
  9 10  1  0  0  0
 10 17  1  0  0  0
 17 18  2  0  0  0
 18 19  1  0  0  0
 19 20  2  0  0  0
 20 21  1  0  0  0
 21 22  2  0  0  0
 25 26  1  0  0  0
 26 28  1  0  0  0
 28 29  1  0  0  0
 29 30  2  0  0  0
 30 31  1  0  0  0
 31 32  2  0  0  0
 32 33  1  0  0  0
 33 34  2  0  0  0
 10  1  1  0  0  0
 22 17  1  0  0  0
 34 29  1  0  0  0
  7  2  1  0  0  0
 16 11  1  0  0  0
 26 27  1  0  0  0
M  END
> <minimizedAffinity>
-7.03988

> <CNNscore>
0.1176676676

> <CNNaffinity>
5.5869302750

> <CNN_VS>
0.6574010253

> <CNNaffinity_variance>
0.2351136953

$$$$
[H]c1c([H])c([H])c(N2C(N3C([H])([H])C([H])([H])C([H])([H])C([H])([H])C3([H])[H])=Nc3c([H])c([H])c([H])c([H])c3C2([H])C([H])([H])C(=O)N([H])C([H])([H])c2c([H])c([H])c([H])c([H])c2[H])c([H])c1[H]


 34 38  0  0  0  0  0  0  0  0999 V2000
   37.1901   16.2207  -11.2466 C   0  0  0  0  0  0  0  0  0  0  0  0
   38.4509   15.7918  -11.8603 C   0  0  0  0  0  0  0  0  0  0  0  0
   38.5437   15.1103  -13.0567 C   0  0  0  0  0  0  0  0  0  0  0  0
   39.8003   14.8803  -13.6103 C   0  0  0  0  0  0  0  0  0  0  0  0
   40.9543   15.3096  -13.0016 C   0  0  0  0  0  0  0  0  0  0  0  0
   40.8763   15.9822  -11.8121 C   0  0  0  0  0  0  0  0  0  0  0  0
   39.6102   16.2212  -11.2362 C   0  0  0  0  0  0  0  0  0  0  0  0
   39.5786   16.7429   -9.9114 N   0  0  0  0  0  0  0  0  0  0  0  0
   38.4558   16.8093   -9.2564 C   0  0  0  0  0  0  0  0  0  0  0  0
   37.2618   16.2946   -9.8250 N   0  0  0  0  0  0  0  0  0  0  0  0
   38.4926   17.3497   -7.9362 N   0  0  0  0  0  0  0  0  0  0  0  0
   37.8690   18.6163   -7.6970 C   0  0  0  0  0  0  0  0  0  0  0  0
   37.1622   18.6236   -6.3284 C   0  0  0  0  0  0  0  0  0  0  0  0
   38.2272   18.2622   -5.3176 C   0  0  0  0  0  0  0  0  0  0  0  0
   38.6331   16.8471   -5.5372 C   0  0  0  0  0  0  0  0  0  0  0  0
   39.1563   16.5660   -6.9221 C   0  0  0  0  0  0  0  0  0  0  0  0
   36.1985   15.8745   -8.9946 C   0  0  0  0  0  0  0  0  0  0  0  0
   36.2546   14.7362   -8.2221 C   0  0  0  0  0  0  0  0  0  0  0  0
   35.1961   14.3600   -7.4305 C   0  0  0  0  0  0  0  0  0  0  0  0
   34.0338   15.0915   -7.3663 C   0  0  0  0  0  0  0  0  0  0  0  0
   33.9825   16.2298   -8.1412 C   0  0  0  0  0  0  0  0  0  0  0  0
   35.0246   16.6199   -8.9345 C   0  0  0  0  0  0  0  0  0  0  0  0
   35.9168   15.7934  -11.8449 C   0  0  0  0  0  0  0  0  0  0  0  0
   36.1356   13.4743  -11.3499 O   0  0  0  0  0  0  0  0  0  0  0  0
   35.8322   14.3593  -12.1915 C   0  0  0  0  0  0  0  0  0  0  0  0
   35.4081   13.9182  -13.4802 N   0  0  0  0  0  0  0  0  0  0  0  0
   35.1392   14.5984  -14.2329 H   0  0  0  0  0  0  0  0  0  0  0  0
   35.3406   12.5095  -13.7785 C   0  0  0  0  0  0  0  0  0  0  0  0
   36.2444   12.1089  -14.8820 C   0  0  0  0  0  0  0  0  0  0  0  0
   37.6004   12.1094  -14.6743 C   0  0  0  0  0  0  0  0  0  0  0  0
   38.4923   11.7386  -15.6787 C   0  0  0  0  0  0  0  0  0  0  0  0
   38.0089   11.3602  -16.9158 C   0  0  0  0  0  0  0  0  0  0  0  0
   36.6314   11.3613  -17.1224 C   0  0  0  0  0  0  0  0  0  0  0  0
   35.7546   11.7347  -16.1075 C   0  0  0  0  0  0  0  0  0  0  0  0
 24 25  2  0  0  0
 25 23  1  0  0  0
 23  1  1  0  0  0
  1  2  1  0  0  0
  2  3  2  0  0  0
  3  4  1  0  0  0
  4  5  2  0  0  0
  5  6  1  0  0  0
  6  7  2  0  0  0
  7  8  1  0  0  0
  8  9  2  0  0  0
  9 11  1  0  0  0
 11 12  1  0  0  0
 12 13  1  0  0  0
 13 14  1  0  0  0
 14 15  1  0  0  0
 15 16  1  0  0  0
  9 10  1  0  0  0
 10 17  1  0  0  0
 17 18  2  0  0  0
 18 19  1  0  0  0
 19 20  2  0  0  0
 20 21  1  0  0  0
 21 22  2  0  0  0
 25 26  1  0  0  0
 26 28  1  0  0  0
 28 29  1  0  0  0
 29 30  2  0  0  0
 30 31  1  0  0  0
 31 32  2  0  0  0
 32 33  1  0  0  0
 33 34  2  0  0  0
 10  1  1  0  0  0
 22 17  1  0  0  0
 34 29  1  0  0  0
  7  2  1  0  0  0
 16 11  1  0  0  0
 26 27  1  0  0  0
M  END
> <minimizedAffinity>
-8.39847

> <CNNscore>
0.1099133790

> <CNNaffinity>
5.6659049988

> <CNN_VS>
0.6227587461

> <CNNaffinity_variance>
0.5593245029

$$$$
[H]c1c([H])c([H])c(N2C(N3C([H])([H])C([H])([H])C([H])([H])C([H])([H])C3([H])[H])=Nc3c([H])c([H])c([H])c([H])c3C2([H])C([H])([H])C(=O)N([H])C([H])([H])c2c([H])c([H])c([H])c([H])c2[H])c([H])c1[H]


 34 38  0  0  0  0  0  0  0  0999 V2000
   40.4735   16.2927   -9.7830 C   0  0  0  0  0  0  0  0  0  0  0  0
   41.4891   16.0648  -10.8159 C   0  0  0  0  0  0  0  0  0  0  0  0
   41.2094   15.8410  -12.1486 C   0  0  0  0  0  0  0  0  0  0  0  0
   42.2594   15.7785  -13.0607 C   0  0  0  0  0  0  0  0  0  0  0  0
   43.5690   15.9313  -12.6755 C   0  0  0  0  0  0  0  0  0  0  0  0
   43.8602   16.1487  -11.3559 C   0  0  0  0  0  0  0  0  0  0  0  0
   42.8074   16.2121  -10.4182 C   0  0  0  0  0  0  0  0  0  0  0  0
   43.1572   16.2394   -9.0380 N   0  0  0  0  0  0  0  0  0  0  0  0
   42.2402   16.1090   -8.1235 C   0  0  0  0  0  0  0  0  0  0  0  0
   40.8914   15.8635   -8.4897 N   0  0  0  0  0  0  0  0  0  0  0  0
   42.6572   16.1533   -6.7594 N   0  0  0  0  0  0  0  0  0  0  0  0
   42.4864   17.3739   -6.0304 C   0  0  0  0  0  0  0  0  0  0  0  0
   42.0545   17.0843   -4.5805 C   0  0  0  0  0  0  0  0  0  0  0  0
   43.1188   16.1727   -4.0123 C   0  0  0  0  0  0  0  0  0  0  0  0
   43.0442   14.8596   -4.7091 C   0  0  0  0  0  0  0  0  0  0  0  0
   43.2197   14.9462   -6.2032 C   0  0  0  0  0  0  0  0  0  0  0  0
   40.0143   15.2144   -7.5919 C   0  0  0  0  0  0  0  0  0  0  0  0
   39.8990   13.8446   -7.5143 C   0  0  0  0  0  0  0  0  0  0  0  0
   39.0303   13.2521   -6.6295 C   0  0  0  0  0  0  0  0  0  0  0  0
   38.2358   13.9863   -5.7811 C   0  0  0  0  0  0  0  0  0  0  0  0
   38.3548   15.3568   -5.8625 C   0  0  0  0  0  0  0  0  0  0  0  0
   39.2128   15.9639   -6.7358 C   0  0  0  0  0  0  0  0  0  0  0  0
   39.0517   16.1419  -10.1263 C   0  0  0  0  0  0  0  0  0  0  0  0
   37.1765   17.5168  -10.6400 O   0  0  0  0  0  0  0  0  0  0  0  0
   38.2328   17.3626   -9.9738 C   0  0  0  0  0  0  0  0  0  0  0  0
   38.5980   18.4089   -9.0755 N   0  0  0  0  0  0  0  0  0  0  0  0
   39.4653   18.3504   -8.4871 H   0  0  0  0  0  0  0  0  0  0  0  0
   37.7721   19.5844   -8.9573 C   0  0  0  0  0  0  0  0  0  0  0  0
   37.1856   19.7448   -7.6063 C   0  0  0  0  0  0  0  0  0  0  0  0
   35.9341   20.2918   -7.4773 C   0  0  0  0  0  0  0  0  0  0  0  0
   35.3373   20.4615   -6.2295 C   0  0  0  0  0  0  0  0  0  0  0  0
   36.0142   20.0729   -5.0902 C   0  0  0  0  0  0  0  0  0  0  0  0
   37.2846   19.5180   -5.2258 C   0  0  0  0  0  0  0  0  0  0  0  0
   37.8658   19.3557   -6.4804 C   0  0  0  0  0  0  0  0  0  0  0  0
 24 25  2  0  0  0
 25 23  1  0  0  0
 23  1  1  0  0  0
  1  2  1  0  0  0
  2  3  2  0  0  0
  3  4  1  0  0  0
  4  5  2  0  0  0
  5  6  1  0  0  0
  6  7  2  0  0  0
  7  8  1  0  0  0
  8  9  2  0  0  0
  9 11  1  0  0  0
 11 12  1  0  0  0
 12 13  1  0  0  0
 13 14  1  0  0  0
 14 15  1  0  0  0
 15 16  1  0  0  0
  9 10  1  0  0  0
 10 17  1  0  0  0
 17 18  2  0  0  0
 18 19  1  0  0  0
 19 20  2  0  0  0
 20 21  1  0  0  0
 21 22  2  0  0  0
 25 26  1  0  0  0
 26 28  1  0  0  0
 28 29  1  0  0  0
 29 30  2  0  0  0
 30 31  1  0  0  0
 31 32  2  0  0  0
 32 33  1  0  0  0
 33 34  2  0  0  0
 10  1  1  0  0  0
 22 17  1  0  0  0
 34 29  1  0  0  0
  7  2  1  0  0  0
 16 11  1  0  0  0
 26 27  1  0  0  0
M  END
> <minimizedAffinity>
-5.87122

> <CNNscore>
0.0997693688

> <CNNaffinity>
5.1163740158

> <CNN_VS>
0.5104573965

> <CNNaffinity_variance>
0.3198211789

$$$$
[H]c1c([H])c([H])c(N2C(N3C([H])([H])C([H])([H])C([H])([H])C([H])([H])C3([H])[H])=Nc3c([H])c([H])c([H])c([H])c3C2([H])C([H])([H])C(=O)N([H])C([H])([H])c2c([H])c([H])c([H])c([H])c2[H])c([H])c1[H]


 34 38  0  0  0  0  0  0  0  0999 V2000
   36.3849   15.3401   -7.0927 C   0  0  0  0  0  0  0  0  0  0  0  0
   37.6240   15.1296   -6.3372 C   0  0  0  0  0  0  0  0  0  0  0  0
   38.5917   14.2033   -6.6688 C   0  0  0  0  0  0  0  0  0  0  0  0
   39.7899   14.1911   -5.9599 C   0  0  0  0  0  0  0  0  0  0  0  0
   40.0402   15.0728   -4.9369 C   0  0  0  0  0  0  0  0  0  0  0  0
   39.0866   15.9931   -4.5948 C   0  0  0  0  0  0  0  0  0  0  0  0
   37.8653   16.0170   -5.3018 C   0  0  0  0  0  0  0  0  0  0  0  0
   36.8269   16.8477   -4.7923 N   0  0  0  0  0  0  0  0  0  0  0  0
   35.6237   16.7739   -5.2832 C   0  0  0  0  0  0  0  0  0  0  0  0
   35.3134   15.8132   -6.2805 N   0  0  0  0  0  0  0  0  0  0  0  0
   34.6318   17.6398   -4.7329 N   0  0  0  0  0  0  0  0  0  0  0  0
   34.3375   18.8643   -5.4143 C   0  0  0  0  0  0  0  0  0  0  0  0
   32.8274   19.1639   -5.3644 C   0  0  0  0  0  0  0  0  0  0  0  0
   32.4620   19.1738   -3.8971 C   0  0  0  0  0  0  0  0  0  0  0  0
   32.6014   17.7921   -3.3612 C   0  0  0  0  0  0  0  0  0  0  0  0
   33.9818   17.2087   -3.5186 C   0  0  0  0  0  0  0  0  0  0  0  0
   33.9866   15.3551   -6.4427 C   0  0  0  0  0  0  0  0  0  0  0  0
   33.4626   14.3041   -5.7239 C   0  0  0  0  0  0  0  0  0  0  0  0
   32.1674   13.8865   -5.9148 C   0  0  0  0  0  0  0  0  0  0  0  0
   31.3308   14.4883   -6.8248 C   0  0  0  0  0  0  0  0  0  0  0  0
   31.8597   15.5396   -7.5418 C   0  0  0  0  0  0  0  0  0  0  0  0
   33.1451   15.9690   -7.3659 C   0  0  0  0  0  0  0  0  0  0  0  0
   36.0531   14.4298   -8.1987 C   0  0  0  0  0  0  0  0  0  0  0  0
   35.1329   15.3851  -10.1764 O   0  0  0  0  0  0  0  0  0  0  0  0
   36.1605   15.0149   -9.5514 C   0  0  0  0  0  0  0  0  0  0  0  0
   37.4184   15.1848  -10.2025 N   0  0  0  0  0  0  0  0  0  0  0  0
   38.3180   14.8994   -9.7431 H   0  0  0  0  0  0  0  0  0  0  0  0
   37.4796   15.7587  -11.5234 C   0  0  0  0  0  0  0  0  0  0  0  0
   38.7116   15.3876  -12.2579 C   0  0  0  0  0  0  0  0  0  0  0  0
   39.9133   15.9227  -11.8684 C   0  0  0  0  0  0  0  0  0  0  0  0
   41.1006   15.6036  -12.5245 C   0  0  0  0  0  0  0  0  0  0  0  0
   41.0767   14.7291  -13.5931 C   0  0  0  0  0  0  0  0  0  0  0  0
   39.8544   14.1883  -13.9852 C   0  0  0  0  0  0  0  0  0  0  0  0
   38.6777   14.5181  -13.3183 C   0  0  0  0  0  0  0  0  0  0  0  0
 24 25  2  0  0  0
 25 23  1  0  0  0
 23  1  1  0  0  0
  1  2  1  0  0  0
  2  3  2  0  0  0
  3  4  1  0  0  0
  4  5  2  0  0  0
  5  6  1  0  0  0
  6  7  2  0  0  0
  7  8  1  0  0  0
  8  9  2  0  0  0
  9 11  1  0  0  0
 11 12  1  0  0  0
 12 13  1  0  0  0
 13 14  1  0  0  0
 14 15  1  0  0  0
 15 16  1  0  0  0
  9 10  1  0  0  0
 10 17  1  0  0  0
 17 18  2  0  0  0
 18 19  1  0  0  0
 19 20  2  0  0  0
 20 21  1  0  0  0
 21 22  2  0  0  0
 25 26  1  0  0  0
 26 28  1  0  0  0
 28 29  1  0  0  0
 29 30  2  0  0  0
 30 31  1  0  0  0
 31 32  2  0  0  0
 32 33  1  0  0  0
 33 34  2  0  0  0
 10  1  1  0  0  0
 22 17  1  0  0  0
 34 29  1  0  0  0
  7  2  1  0  0  0
 16 11  1  0  0  0
 26 27  1  0  0  0
M  END
> <minimizedAffinity>
-6.23745

> <CNNscore>
0.0914489776

> <CNNaffinity>
5.3161940575

> <CNN_VS>
0.4861605167

> <CNNaffinity_variance>
0.2997250855

$$$$
[H]c1c([H])c([H])c(N2C(N3C([H])([H])C([H])([H])C([H])([H])C([H])([H])C3([H])[H])=Nc3c([H])c([H])c([H])c([H])c3C2([H])C([H])([H])C(=O)N([H])C([H])([H])c2c([H])c([H])c([H])c([H])c2[H])c([H])c1[H]


 34 38  0  0  0  0  0  0  0  0999 V2000
   43.3539   15.5287  -12.5713 C   0  0  0  0  0  0  0  0  0  0  0  0
   43.3344   14.5476  -13.6611 C   0  0  0  0  0  0  0  0  0  0  0  0
   42.3072   13.6544  -13.8879 C   0  0  0  0  0  0  0  0  0  0  0  0
   42.3341   12.8673  -15.0359 C   0  0  0  0  0  0  0  0  0  0  0  0
   43.3540   12.9500  -15.9522 C   0  0  0  0  0  0  0  0  0  0  0  0
   44.3814   13.8282  -15.7364 C   0  0  0  0  0  0  0  0  0  0  0  0
   44.3705   14.6316  -14.5760 C   0  0  0  0  0  0  0  0  0  0  0  0
   45.5448   15.3830  -14.2857 N   0  0  0  0  0  0  0  0  0  0  0  0
   45.6707   15.9926  -13.1426 C   0  0  0  0  0  0  0  0  0  0  0  0
   44.6733   15.8554  -12.1426 N   0  0  0  0  0  0  0  0  0  0  0  0
   46.8689   16.7347  -12.9187 N   0  0  0  0  0  0  0  0  0  0  0  0
   46.8648   18.1404  -13.1911 C   0  0  0  0  0  0  0  0  0  0  0  0
   47.6854   18.9010  -12.1325 C   0  0  0  0  0  0  0  0  0  0  0  0
   49.0615   18.2744  -12.1557 C   0  0  0  0  0  0  0  0  0  0  0  0
   48.9602   16.8814  -11.6411 C   0  0  0  0  0  0  0  0  0  0  0  0
   48.0104   16.0070  -12.4183 C   0  0  0  0  0  0  0  0  0  0  0  0
   44.9987   16.0374  -10.7796 C   0  0  0  0  0  0  0  0  0  0  0  0
   45.4228   15.0108   -9.9660 C   0  0  0  0  0  0  0  0  0  0  0  0
   45.7257   15.2291   -8.6434 C   0  0  0  0  0  0  0  0  0  0  0  0
   45.6231   16.4718   -8.0645 C   0  0  0  0  0  0  0  0  0  0  0  0
   45.1982   17.4960   -8.8827 C   0  0  0  0  0  0  0  0  0  0  0  0
   44.8925   17.2983  -10.1999 C   0  0  0  0  0  0  0  0  0  0  0  0
   42.2938   15.4942  -11.5531 C   0  0  0  0  0  0  0  0  0  0  0  0
   40.8138   16.8059  -12.8798 O   0  0  0  0  0  0  0  0  0  0  0  0
   40.9513   15.8917  -12.0261 C   0  0  0  0  0  0  0  0  0  0  0  0
   39.7646   15.2648  -11.5425 N   0  0  0  0  0  0  0  0  0  0  0  0
   39.8010   14.4949  -10.8299 H   0  0  0  0  0  0  0  0  0  0  0  0
   38.4738   15.6831  -12.0288 C   0  0  0  0  0  0  0  0  0  0  0  0
   37.4076   15.5725  -11.0060 C   0  0  0  0  0  0  0  0  0  0  0  0
   37.7213   15.1017   -9.7562 C   0  0  0  0  0  0  0  0  0  0  0  0
   36.7557   14.9812   -8.7587 C   0  0  0  0  0  0  0  0  0  0  0  0
   35.4496   15.3418   -9.0253 C   0  0  0  0  0  0  0  0  0  0  0  0
   35.1355   15.8193  -10.2956 C   0  0  0  0  0  0  0  0  0  0  0  0
   36.1129   15.9331  -11.2804 C   0  0  0  0  0  0  0  0  0  0  0  0
 24 25  2  0  0  0
 25 23  1  0  0  0
 23  1  1  0  0  0
  1  2  1  0  0  0
  2  3  2  0  0  0
  3  4  1  0  0  0
  4  5  2  0  0  0
  5  6  1  0  0  0
  6  7  2  0  0  0
  7  8  1  0  0  0
  8  9  2  0  0  0
  9 11  1  0  0  0
 11 12  1  0  0  0
 12 13  1  0  0  0
 13 14  1  0  0  0
 14 15  1  0  0  0
 15 16  1  0  0  0
  9 10  1  0  0  0
 10 17  1  0  0  0
 17 18  2  0  0  0
 18 19  1  0  0  0
 19 20  2  0  0  0
 20 21  1  0  0  0
 21 22  2  0  0  0
 25 26  1  0  0  0
 26 28  1  0  0  0
 28 29  1  0  0  0
 29 30  2  0  0  0
 30 31  1  0  0  0
 31 32  2  0  0  0
 32 33  1  0  0  0
 33 34  2  0  0  0
 10  1  1  0  0  0
 22 17  1  0  0  0
 34 29  1  0  0  0
  7  2  1  0  0  0
 16 11  1  0  0  0
 26 27  1  0  0  0
M  END
> <minimizedAffinity>
-6.25819

> <CNNscore>
0.0913454220

> <CNNaffinity>
5.2850780487

> <CNN_VS>
0.4827676713

> <CNNaffinity_variance>
0.2318247110

$$$$
[H]c1c([H])c([H])c(C([H])(N2C([H])([H])C([H])([H])N(C([H])([H])C#N)C([H])([H])C2([H])[H])C([H])([H])OC([H])([H])c2c([H])c(C(F)(F)F)c([H])c(C(F)(F)F)c2[H])c([H])c1[H]


 33 35  0  0  0  0  0  0  0  0999 V2000
   37.1337   12.9317  -13.2837 C   0  0  0  0  0  0  0  0  0  0  0  0
   36.1198   13.5595  -14.1794 C   0  0  0  0  0  0  0  0  0  0  0  0
   33.0096   15.2658  -11.9151 N   0  0  0  0  0  0  0  0  0  0  0  0
   34.3506   15.4657  -11.4999 C   0  0  0  0  0  0  0  0  0  0  0  0
   35.2744   14.3797  -12.0445 C   0  0  0  0  0  0  0  0  0  0  0  0
   35.1354   14.2469  -13.4469 N   0  0  0  0  0  0  0  0  0  0  0  0
   33.8218   14.2241  -13.9877 C   0  0  0  0  0  0  0  0  0  0  0  0
   32.8263   14.2166  -12.8589 C   0  0  0  0  0  0  0  0  0  0  0  0
   31.9808   15.4821  -10.9680 C   0  0  0  0  0  0  0  0  0  0  0  0
   29.7481   14.3410  -11.8248 N   0  0  0  0  0  0  0  0  0  0  0  0
   30.7462   14.8389  -11.4451 C   0  0  0  0  0  0  0  0  0  0  0  0
   35.6096   12.5421  -15.1322 C   0  0  0  0  0  0  0  0  0  0  0  0
   34.4518   11.8206  -14.9426 C   0  0  0  0  0  0  0  0  0  0  0  0
   34.0321   10.8540  -15.8364 C   0  0  0  0  0  0  0  0  0  0  0  0
   34.7577   10.5636  -16.9676 C   0  0  0  0  0  0  0  0  0  0  0  0
   35.9223   11.2798  -17.1769 C   0  0  0  0  0  0  0  0  0  0  0  0
   36.3297   12.2437  -16.2722 C   0  0  0  0  0  0  0  0  0  0  0  0
   38.1684   13.7689  -12.8742 O   0  0  0  0  0  0  0  0  0  0  0  0
   38.5423   14.4320  -14.0708 C   0  0  0  0  0  0  0  0  0  0  0  0
   39.6942   13.8550  -14.7349 C   0  0  0  0  0  0  0  0  0  0  0  0
   40.9698   13.9499  -14.1357 C   0  0  0  0  0  0  0  0  0  0  0  0
   42.0914   13.4261  -14.7024 C   0  0  0  0  0  0  0  0  0  0  0  0
   41.9970   12.7745  -15.9071 C   0  0  0  0  0  0  0  0  0  0  0  0
   40.7631   12.6733  -16.5047 C   0  0  0  0  0  0  0  0  0  0  0  0
   39.6032   13.2046  -15.9361 C   0  0  0  0  0  0  0  0  0  0  0  0
   43.4410   13.5279  -14.0702 C   0  0  0  0  0  0  0  0  0  0  0  0
   44.3909   12.8912  -14.7936 F   0  0  0  0  0  0  0  0  0  0  0  0
   43.3024   13.0063  -12.7916 F   0  0  0  0  0  0  0  0  0  0  0  0
   43.7022   14.8791  -13.9040 F   0  0  0  0  0  0  0  0  0  0  0  0
   40.7156   11.9428  -17.8114 C   0  0  0  0  0  0  0  0  0  0  0  0
   42.0049   11.5300  -18.1728 F   0  0  0  0  0  0  0  0  0  0  0  0
   39.9490   10.8239  -17.6134 F   0  0  0  0  0  0  0  0  0  0  0  0
   40.2243   12.7150  -18.8433 F   0  0  0  0  0  0  0  0  0  0  0  0
 10 11  3  0  0  0
 11  9  1  0  0  0
  9  3  1  0  0  0
  3  4  1  0  0  0
  4  5  1  0  0  0
  5  6  1  0  0  0
  6  2  1  0  0  0
  2  1  1  0  0  0
  1 18  1  0  0  0
 18 19  1  0  0  0
 19 20  1  0  0  0
 20 21  2  0  0  0
 21 22  1  0  0  0
 22 26  1  0  0  0
 26 27  1  0  0  0
 26 28  1  0  0  0
 26 29  1  0  0  0
 22 23  2  0  0  0
 23 24  1  0  0  0
 24 30  1  0  0  0
 30 31  1  0  0  0
 30 32  1  0  0  0
 30 33  1  0  0  0
 24 25  2  0  0  0
  2 12  1  0  0  0
 12 13  2  0  0  0
 13 14  1  0  0  0
 14 15  2  0  0  0
 15 16  1  0  0  0
 16 17  2  0  0  0
  6  7  1  0  0  0
  7  8  1  0  0  0
  8  3  1  0  0  0
 25 20  1  0  0  0
 17 12  1  0  0  0
M  END
> <minimizedAffinity>
-9.39735

> <CNNscore>
0.5853518248

> <CNNaffinity>
7.0774979591

> <CNN_VS>
4.1428265572

> <CNNaffinity_variance>
0.1604361385

$$$$
[H]c1c([H])c([H])c(C([H])(N2C([H])([H])C([H])([H])N(C([H])([H])C#N)C([H])([H])C2([H])[H])C([H])([H])OC([H])([H])c2c([H])c(C(F)(F)F)c([H])c(C(F)(F)F)c2[H])c([H])c1[H]


 33 35  0  0  0  0  0  0  0  0999 V2000
   37.2216   12.9425  -13.2824 C   0  0  0  0  0  0  0  0  0  0  0  0
   36.1967   13.5527  -14.1777 C   0  0  0  0  0  0  0  0  0  0  0  0
   33.0909   15.2790  -11.9226 N   0  0  0  0  0  0  0  0  0  0  0  0
   34.4306   15.4521  -11.4913 C   0  0  0  0  0  0  0  0  0  0  0  0
   35.3426   14.3586  -12.0408 C   0  0  0  0  0  0  0  0  0  0  0  0
   35.2159   14.2462  -13.4462 N   0  0  0  0  0  0  0  0  0  0  0  0
   33.9077   14.2514  -14.0004 C   0  0  0  0  0  0  0  0  0  0  0  0
   32.9007   14.2453  -12.8818 C   0  0  0  0  0  0  0  0  0  0  0  0
   32.0561   15.4995  -10.9831 C   0  0  0  0  0  0  0  0  0  0  0  0
   29.8311   14.3451  -11.8423 N   0  0  0  0  0  0  0  0  0  0  0  0
   30.8219   14.8627  -11.4701 C   0  0  0  0  0  0  0  0  0  0  0  0
   35.6825   12.5192  -15.1109 C   0  0  0  0  0  0  0  0  0  0  0  0
   34.4851   11.8590  -14.9460 C   0  0  0  0  0  0  0  0  0  0  0  0
   34.0610   10.8748  -15.8182 C   0  0  0  0  0  0  0  0  0  0  0  0
   34.8218   10.5041  -16.9018 C   0  0  0  0  0  0  0  0  0  0  0  0
   36.0266   11.1580  -17.0859 C   0  0  0  0  0  0  0  0  0  0  0  0
   36.4378   12.1406  -16.2032 C   0  0  0  0  0  0  0  0  0  0  0  0
   38.2604   13.7879  -12.9010 O   0  0  0  0  0  0  0  0  0  0  0  0
   38.6483   14.3965  -14.1219 C   0  0  0  0  0  0  0  0  0  0  0  0
   39.8572   13.8465  -14.7023 C   0  0  0  0  0  0  0  0  0  0  0  0
   39.7963   13.1725  -15.9421 C   0  0  0  0  0  0  0  0  0  0  0  0
   40.8932   12.6371  -16.5450 C   0  0  0  0  0  0  0  0  0  0  0  0
   42.1188   12.7480  -15.9363 C   0  0  0  0  0  0  0  0  0  0  0  0
   42.1964   13.4005  -14.7288 C   0  0  0  0  0  0  0  0  0  0  0  0
   41.0807   13.9556  -14.0978 C   0  0  0  0  0  0  0  0  0  0  0  0
   40.8291   11.9224  -17.8552 C   0  0  0  0  0  0  0  0  0  0  0  0
   42.0510   11.5216  -18.2763 F   0  0  0  0  0  0  0  0  0  0  0  0
   40.2202   12.8023  -18.7389 F   0  0  0  0  0  0  0  0  0  0  0  0
   39.9409   10.8708  -17.6922 F   0  0  0  0  0  0  0  0  0  0  0  0
   43.5587   13.5026  -14.1149 C   0  0  0  0  0  0  0  0  0  0  0  0
   44.4634   12.7063  -14.8297 F   0  0  0  0  0  0  0  0  0  0  0  0
   43.9523   14.8099  -14.2365 F   0  0  0  0  0  0  0  0  0  0  0  0
   43.5904   13.0862  -12.8004 F   0  0  0  0  0  0  0  0  0  0  0  0
 10 11  3  0  0  0
 11  9  1  0  0  0
  9  3  1  0  0  0
  3  4  1  0  0  0
  4  5  1  0  0  0
  5  6  1  0  0  0
  6  2  1  0  0  0
  2  1  1  0  0  0
  1 18  1  0  0  0
 18 19  1  0  0  0
 19 20  1  0  0  0
 20 21  2  0  0  0
 21 22  1  0  0  0
 22 26  1  0  0  0
 26 27  1  0  0  0
 26 28  1  0  0  0
 26 29  1  0  0  0
 22 23  2  0  0  0
 23 24  1  0  0  0
 24 30  1  0  0  0
 30 31  1  0  0  0
 30 32  1  0  0  0
 30 33  1  0  0  0
 24 25  2  0  0  0
  2 12  1  0  0  0
 12 13  2  0  0  0
 13 14  1  0  0  0
 14 15  2  0  0  0
 15 16  1  0  0  0
 16 17  2  0  0  0
  6  7  1  0  0  0
  7  8  1  0  0  0
  8  3  1  0  0  0
 25 20  1  0  0  0
 17 12  1  0  0  0
M  END
> <minimizedAffinity>
-9.37420

> <CNNscore>
0.5637494922

> <CNNaffinity>
7.0397558212

> <CNN_VS>
3.9686586857

> <CNNaffinity_variance>
0.1173501834

$$$$
[H]c1c([H])c([H])c(C([H])(N2C([H])([H])C([H])([H])N(C([H])([H])C#N)C([H])([H])C2([H])[H])C([H])([H])OC([H])([H])c2c([H])c(C(F)(F)F)c([H])c(C(F)(F)F)c2[H])c([H])c1[H]


 33 35  0  0  0  0  0  0  0  0999 V2000
   39.3312   15.2314  -12.6664 C   0  0  0  0  0  0  0  0  0  0  0  0
   37.8484   15.2797  -12.8193 C   0  0  0  0  0  0  0  0  0  0  0  0
   36.1685   16.1613   -9.0626 N   0  0  0  0  0  0  0  0  0  0  0  0
   35.3370   16.1917  -10.2108 C   0  0  0  0  0  0  0  0  0  0  0  0
   36.1480   16.4087  -11.4853 C   0  0  0  0  0  0  0  0  0  0  0  0
   37.2055   15.4728  -11.5833 N   0  0  0  0  0  0  0  0  0  0  0  0
   37.9899   15.2289  -10.4242 C   0  0  0  0  0  0  0  0  0  0  0  0
   37.5651   16.1775   -9.3356 C   0  0  0  0  0  0  0  0  0  0  0  0
   35.7206   16.8305   -7.8991 C   0  0  0  0  0  0  0  0  0  0  0  0
   36.6582   19.3088   -7.9113 N   0  0  0  0  0  0  0  0  0  0  0  0
   36.2327   18.2102   -7.9118 C   0  0  0  0  0  0  0  0  0  0  0  0
   37.3962   14.0969  -13.5939 C   0  0  0  0  0  0  0  0  0  0  0  0
   37.9559   12.8433  -13.4837 C   0  0  0  0  0  0  0  0  0  0  0  0
   37.5302   11.7769  -14.2523 C   0  0  0  0  0  0  0  0  0  0  0  0
   36.5185   11.9183  -15.1725 C   0  0  0  0  0  0  0  0  0  0  0  0
   35.9417   13.1694  -15.2957 C   0  0  0  0  0  0  0  0  0  0  0  0
   36.3798   14.2274  -14.5196 C   0  0  0  0  0  0  0  0  0  0  0  0
   40.0575   15.3619  -13.8474 O   0  0  0  0  0  0  0  0  0  0  0  0
   41.2211   14.5898  -13.5997 C   0  0  0  0  0  0  0  0  0  0  0  0
   41.6270   13.7533  -14.7115 C   0  0  0  0  0  0  0  0  0  0  0  0
   40.6691   13.3369  -15.6624 C   0  0  0  0  0  0  0  0  0  0  0  0
   40.9833   12.5557  -16.7321 C   0  0  0  0  0  0  0  0  0  0  0  0
   42.2816   12.1461  -16.9099 C   0  0  0  0  0  0  0  0  0  0  0  0
   43.2270   12.5417  -15.9936 C   0  0  0  0  0  0  0  0  0  0  0  0
   42.9208   13.3433  -14.8914 C   0  0  0  0  0  0  0  0  0  0  0  0
   39.9704   12.1133  -17.7370 C   0  0  0  0  0  0  0  0  0  0  0  0
   38.7039   12.3097  -17.3029 F   0  0  0  0  0  0  0  0  0  0  0  0
   40.2474   10.7779  -17.9937 F   0  0  0  0  0  0  0  0  0  0  0  0
   40.2515   12.7933  -18.9118 F   0  0  0  0  0  0  0  0  0  0  0  0
   44.6288   12.0762  -16.2418 C   0  0  0  0  0  0  0  0  0  0  0  0
   44.6294   10.7074  -16.5415 F   0  0  0  0  0  0  0  0  0  0  0  0
   45.0833   12.7544  -17.3428 F   0  0  0  0  0  0  0  0  0  0  0  0
   45.4590   12.2622  -15.1562 F   0  0  0  0  0  0  0  0  0  0  0  0
 10 11  3  0  0  0
 11  9  1  0  0  0
  9  3  1  0  0  0
  3  4  1  0  0  0
  4  5  1  0  0  0
  5  6  1  0  0  0
  6  2  1  0  0  0
  2  1  1  0  0  0
  1 18  1  0  0  0
 18 19  1  0  0  0
 19 20  1  0  0  0
 20 21  2  0  0  0
 21 22  1  0  0  0
 22 26  1  0  0  0
 26 27  1  0  0  0
 26 28  1  0  0  0
 26 29  1  0  0  0
 22 23  2  0  0  0
 23 24  1  0  0  0
 24 30  1  0  0  0
 30 31  1  0  0  0
 30 32  1  0  0  0
 30 33  1  0  0  0
 24 25  2  0  0  0
  2 12  1  0  0  0
 12 13  2  0  0  0
 13 14  1  0  0  0
 14 15  2  0  0  0
 15 16  1  0  0  0
 16 17  2  0  0  0
  6  7  1  0  0  0
  7  8  1  0  0  0
  8  3  1  0  0  0
 25 20  1  0  0  0
 17 12  1  0  0  0
M  END
> <minimizedAffinity>
-8.49652

> <CNNscore>
0.3294290900

> <CNNaffinity>
6.2067065239

> <CNN_VS>
2.0446696281

> <CNNaffinity_variance>
0.2104479373

$$$$
[H]c1c([H])c([H])c(C([H])(N2C([H])([H])C([H])([H])N(C([H])([H])C#N)C([H])([H])C2([H])[H])C([H])([H])OC([H])([H])c2c([H])c(C(F)(F)F)c([H])c(C(F)(F)F)c2[H])c([H])c1[H]


 33 35  0  0  0  0  0  0  0  0999 V2000
   38.3063   15.0100  -12.6250 C   0  0  0  0  0  0  0  0  0  0  0  0
   36.9163   15.3706  -12.2222 C   0  0  0  0  0  0  0  0  0  0  0  0
   36.4337   15.6608   -8.0515 N   0  0  0  0  0  0  0  0  0  0  0  0
   37.7436   15.6806   -8.5942 C   0  0  0  0  0  0  0  0  0  0  0  0
   37.7900   15.0259   -9.9721 C   0  0  0  0  0  0  0  0  0  0  0  0
   36.8168   15.5837  -10.8355 N   0  0  0  0  0  0  0  0  0  0  0  0
   35.5060   15.7805  -10.3243 C   0  0  0  0  0  0  0  0  0  0  0  0
   35.4255   15.1938   -8.9406 C   0  0  0  0  0  0  0  0  0  0  0  0
   36.2875   15.3565   -6.6774 C   0  0  0  0  0  0  0  0  0  0  0  0
   36.8028   12.7832   -6.3120 N   0  0  0  0  0  0  0  0  0  0  0  0
   36.5819   13.9299   -6.4677 C   0  0  0  0  0  0  0  0  0  0  0  0
   35.9691   14.3747  -12.7826 C   0  0  0  0  0  0  0  0  0  0  0  0
   35.9225   13.0532  -12.3972 C   0  0  0  0  0  0  0  0  0  0  0  0
   35.0504   12.1489  -12.9724 C   0  0  0  0  0  0  0  0  0  0  0  0
   34.1799   12.5290  -13.9665 C   0  0  0  0  0  0  0  0  0  0  0  0
   34.2098   13.8530  -14.3653 C   0  0  0  0  0  0  0  0  0  0  0  0
   35.0895   14.7461  -13.7804 C   0  0  0  0  0  0  0  0  0  0  0  0
   38.4835   14.7366  -13.9788 O   0  0  0  0  0  0  0  0  0  0  0  0
   38.9994   13.4154  -13.9783 C   0  0  0  0  0  0  0  0  0  0  0  0
   38.8120   12.7038  -15.2270 C   0  0  0  0  0  0  0  0  0  0  0  0
   37.5623   12.1128  -15.5169 C   0  0  0  0  0  0  0  0  0  0  0  0
   37.3173   11.4352  -16.6720 C   0  0  0  0  0  0  0  0  0  0  0  0
   38.3159   11.3114  -17.6060 C   0  0  0  0  0  0  0  0  0  0  0  0
   39.5389   11.8801  -17.3400 C   0  0  0  0  0  0  0  0  0  0  0  0
   39.8058   12.5788  -16.1602 C   0  0  0  0  0  0  0  0  0  0  0  0
   35.9965   10.8084  -16.9784 C   0  0  0  0  0  0  0  0  0  0  0  0
   35.2523   11.5715  -17.8120 F   0  0  0  0  0  0  0  0  0  0  0  0
   35.3815   10.5988  -15.7520 F   0  0  0  0  0  0  0  0  0  0  0  0
   36.2629    9.5483  -17.4910 F   0  0  0  0  0  0  0  0  0  0  0  0
   40.5882   11.7248  -18.3974 C   0  0  0  0  0  0  0  0  0  0  0  0
   40.3684   10.5418  -19.1154 F   0  0  0  0  0  0  0  0  0  0  0  0
   40.4426   12.7805  -19.2595 F   0  0  0  0  0  0  0  0  0  0  0  0
   41.8668   11.6653  -17.8838 F   0  0  0  0  0  0  0  0  0  0  0  0
 10 11  3  0  0  0
 11  9  1  0  0  0
  9  3  1  0  0  0
  3  4  1  0  0  0
  4  5  1  0  0  0
  5  6  1  0  0  0
  6  2  1  0  0  0
  2  1  1  0  0  0
  1 18  1  0  0  0
 18 19  1  0  0  0
 19 20  1  0  0  0
 20 21  2  0  0  0
 21 22  1  0  0  0
 22 26  1  0  0  0
 26 27  1  0  0  0
 26 28  1  0  0  0
 26 29  1  0  0  0
 22 23  2  0  0  0
 23 24  1  0  0  0
 24 30  1  0  0  0
 30 31  1  0  0  0
 30 32  1  0  0  0
 30 33  1  0  0  0
 24 25  2  0  0  0
  2 12  1  0  0  0
 12 13  2  0  0  0
 13 14  1  0  0  0
 14 15  2  0  0  0
 15 16  1  0  0  0
 16 17  2  0  0  0
  6  7  1  0  0  0
  7  8  1  0  0  0
  8  3  1  0  0  0
 25 20  1  0  0  0
 17 12  1  0  0  0
M  END
> <minimizedAffinity>
-8.32838

> <CNNscore>
0.3104311526

> <CNNaffinity>
6.3539085388

> <CNN_VS>
1.9724512100

> <CNNaffinity_variance>
0.1824287027

$$$$
[H]c1c([H])c([H])c(C([H])(N2C([H])([H])C([H])([H])N(C([H])([H])C#N)C([H])([H])C2([H])[H])C([H])([H])OC([H])([H])c2c([H])c(C(F)(F)F)c([H])c(C(F)(F)F)c2[H])c([H])c1[H]


 33 35  0  0  0  0  0  0  0  0999 V2000
   43.0679   14.3839  -13.1187 C   0  0  0  0  0  0  0  0  0  0  0  0
   44.4867   14.4138  -13.5776 C   0  0  0  0  0  0  0  0  0  0  0  0
   46.6011   11.5638  -11.3152 N   0  0  0  0  0  0  0  0  0  0  0  0
   47.1206   11.9655  -12.5720 C   0  0  0  0  0  0  0  0  0  0  0  0
   46.0276   12.5269  -13.4774 C   0  0  0  0  0  0  0  0  0  0  0  0
   45.2947   13.5453  -12.8220 N   0  0  0  0  0  0  0  0  0  0  0  0
   44.8839   13.3143  -11.4818 C   0  0  0  0  0  0  0  0  0  0  0  0
   45.2363   11.9026  -11.0968 C   0  0  0  0  0  0  0  0  0  0  0  0
   47.0727   10.3521  -10.7572 C   0  0  0  0  0  0  0  0  0  0  0  0
   46.8445    8.4191  -12.5551 N   0  0  0  0  0  0  0  0  0  0  0  0
   46.9542    9.2829  -11.7614 C   0  0  0  0  0  0  0  0  0  0  0  0
   44.9521   15.8219  -13.6413 C   0  0  0  0  0  0  0  0  0  0  0  0
   46.0483   16.2395  -14.3632 C   0  0  0  0  0  0  0  0  0  0  0  0
   46.4711   17.5550  -14.3646 C   0  0  0  0  0  0  0  0  0  0  0  0
   45.8117   18.5182  -13.6382 C   0  0  0  0  0  0  0  0  0  0  0  0
   44.7065   18.1187  -12.9089 C   0  0  0  0  0  0  0  0  0  0  0  0
   44.2962   16.7976  -12.9169 C   0  0  0  0  0  0  0  0  0  0  0  0
   42.3183   13.2995  -13.5673 O   0  0  0  0  0  0  0  0  0  0  0  0
   42.0499   13.6282  -14.9206 C   0  0  0  0  0  0  0  0  0  0  0  0
   40.8300   13.0454  -15.4431 C   0  0  0  0  0  0  0  0  0  0  0  0
   40.8148   12.5008  -16.7463 C   0  0  0  0  0  0  0  0  0  0  0  0
   39.7056   11.9344  -17.2958 C   0  0  0  0  0  0  0  0  0  0  0  0
   38.5436   11.8814  -16.5665 C   0  0  0  0  0  0  0  0  0  0  0  0
   38.5403   12.4072  -15.2963 C   0  0  0  0  0  0  0  0  0  0  0  0
   39.6699   12.9911  -14.7182 C   0  0  0  0  0  0  0  0  0  0  0  0
   39.6883   11.3601  -18.6747 C   0  0  0  0  0  0  0  0  0  0  0  0
   38.5603   10.6532  -18.9173 F   0  0  0  0  0  0  0  0  0  0  0  0
   40.8369   10.5882  -18.7796 F   0  0  0  0  0  0  0  0  0  0  0  0
   39.8613   12.4208  -19.5502 F   0  0  0  0  0  0  0  0  0  0  0  0
   37.2502   12.3127  -14.5413 C   0  0  0  0  0  0  0  0  0  0  0  0
   37.4456   11.5954  -13.3535 F   0  0  0  0  0  0  0  0  0  0  0  0
   36.8879   13.5930  -14.2121 F   0  0  0  0  0  0  0  0  0  0  0  0
   36.2554   11.6735  -15.2514 F   0  0  0  0  0  0  0  0  0  0  0  0
 10 11  3  0  0  0
 11  9  1  0  0  0
  9  3  1  0  0  0
  3  4  1  0  0  0
  4  5  1  0  0  0
  5  6  1  0  0  0
  6  2  1  0  0  0
  2  1  1  0  0  0
  1 18  1  0  0  0
 18 19  1  0  0  0
 19 20  1  0  0  0
 20 21  2  0  0  0
 21 22  1  0  0  0
 22 26  1  0  0  0
 26 27  1  0  0  0
 26 28  1  0  0  0
 26 29  1  0  0  0
 22 23  2  0  0  0
 23 24  1  0  0  0
 24 30  1  0  0  0
 30 31  1  0  0  0
 30 32  1  0  0  0
 30 33  1  0  0  0
 24 25  2  0  0  0
  2 12  1  0  0  0
 12 13  2  0  0  0
 13 14  1  0  0  0
 14 15  2  0  0  0
 15 16  1  0  0  0
 16 17  2  0  0  0
  6  7  1  0  0  0
  7  8  1  0  0  0
  8  3  1  0  0  0
 25 20  1  0  0  0
 17 12  1  0  0  0
M  END
> <minimizedAffinity>
-7.76613

> <CNNscore>
0.3095861375

> <CNNaffinity>
5.9104261398

> <CNN_VS>
1.8297859430

> <CNNaffinity_variance>
0.1818113327

$$$$
[H]c1c([H])c([H])c(C([H])(N2C([H])([H])C([H])([H])N(C([H])([H])C#N)C([H])([H])C2([H])[H])C([H])([H])OC([H])([H])c2c([H])c(C(F)(F)F)c([H])c(C(F)(F)F)c2[H])c([H])c1[H]


 33 35  0  0  0  0  0  0  0  0999 V2000
   39.5054   15.3537  -12.5448 C   0  0  0  0  0  0  0  0  0  0  0  0
   38.0156   15.4211  -12.5317 C   0  0  0  0  0  0  0  0  0  0  0  0
   36.3912   15.4245   -8.6492 N   0  0  0  0  0  0  0  0  0  0  0  0
   37.7756   15.6830   -8.8145 C   0  0  0  0  0  0  0  0  0  0  0  0
   38.2997   15.1129  -10.1297 C   0  0  0  0  0  0  0  0  0  0  0  0
   37.5135   15.5470  -11.2239 N   0  0  0  0  0  0  0  0  0  0  0  0
   36.1000   15.5033  -11.0884 C   0  0  0  0  0  0  0  0  0  0  0  0
   35.7524   14.8442   -9.7807 C   0  0  0  0  0  0  0  0  0  0  0  0
   35.9360   15.0335   -7.3678 C   0  0  0  0  0  0  0  0  0  0  0  0
   37.2321   12.8407   -6.6380 N   0  0  0  0  0  0  0  0  0  0  0  0
   36.6467   13.8117   -6.9580 C   0  0  0  0  0  0  0  0  0  0  0  0
   37.4661   14.2883  -13.3179 C   0  0  0  0  0  0  0  0  0  0  0  0
   37.8473   12.9757  -13.1485 C   0  0  0  0  0  0  0  0  0  0  0  0
   37.3389   11.9549  -13.9287 C   0  0  0  0  0  0  0  0  0  0  0  0
   36.4202   12.2037  -14.9209 C   0  0  0  0  0  0  0  0  0  0  0  0
   36.0227   13.5157  -15.1045 C   0  0  0  0  0  0  0  0  0  0  0  0
   36.5417   14.5268  -14.3158 C   0  0  0  0  0  0  0  0  0  0  0  0
   40.0919   15.3568  -13.8079 O   0  0  0  0  0  0  0  0  0  0  0  0
   41.2400   14.5424  -13.6345 C   0  0  0  0  0  0  0  0  0  0  0  0
   41.5636   13.7193  -14.7828 C   0  0  0  0  0  0  0  0  0  0  0  0
   42.8971   13.3051  -14.9956 C   0  0  0  0  0  0  0  0  0  0  0  0
   43.2686   12.5280  -16.0499 C   0  0  0  0  0  0  0  0  0  0  0  0
   42.3197   12.1202  -16.9544 C   0  0  0  0  0  0  0  0  0  0  0  0
   41.0167   12.5145  -16.7630 C   0  0  0  0  0  0  0  0  0  0  0  0
   40.6196   13.3110  -15.6864 C   0  0  0  0  0  0  0  0  0  0  0  0
   44.6790   12.0914  -16.2765 C   0  0  0  0  0  0  0  0  0  0  0  0
   45.4915   12.4449  -15.2538 F   0  0  0  0  0  0  0  0  0  0  0  0
   45.0625   12.6561  -17.4848 F   0  0  0  0  0  0  0  0  0  0  0  0
   44.6426   10.7223  -16.4906 F   0  0  0  0  0  0  0  0  0  0  0  0
   40.0212   12.0321  -17.7727 C   0  0  0  0  0  0  0  0  0  0  0  0
   40.2004   10.6611  -17.9999 F   0  0  0  0  0  0  0  0  0  0  0  0
   38.7785   12.2149  -17.2240 F   0  0  0  0  0  0  0  0  0  0  0  0
   40.1345   12.6712  -18.9897 F   0  0  0  0  0  0  0  0  0  0  0  0
 10 11  3  0  0  0
 11  9  1  0  0  0
  9  3  1  0  0  0
  3  4  1  0  0  0
  4  5  1  0  0  0
  5  6  1  0  0  0
  6  2  1  0  0  0
  2  1  1  0  0  0
  1 18  1  0  0  0
 18 19  1  0  0  0
 19 20  1  0  0  0
 20 21  2  0  0  0
 21 22  1  0  0  0
 22 26  1  0  0  0
 26 27  1  0  0  0
 26 28  1  0  0  0
 26 29  1  0  0  0
 22 23  2  0  0  0
 23 24  1  0  0  0
 24 30  1  0  0  0
 30 31  1  0  0  0
 30 32  1  0  0  0
 30 33  1  0  0  0
 24 25  2  0  0  0
  2 12  1  0  0  0
 12 13  2  0  0  0
 13 14  1  0  0  0
 14 15  2  0  0  0
 15 16  1  0  0  0
 16 17  2  0  0  0
  6  7  1  0  0  0
  7  8  1  0  0  0
  8  3  1  0  0  0
 25 20  1  0  0  0
 17 12  1  0  0  0
M  END
> <minimizedAffinity>
-8.61510

> <CNNscore>
0.2802053988

> <CNNaffinity>
6.1566748619

> <CNN_VS>
1.7251335382

> <CNNaffinity_variance>
0.2009617835

$$$$
[H]c1c([H])c([H])c(C([H])(N2C([H])([H])C([H])([H])N(C([H])([H])C#N)C([H])([H])C2([H])[H])C([H])([H])OC([H])([H])c2c([H])c(C(F)(F)F)c([H])c(C(F)(F)F)c2[H])c([H])c1[H]


 33 35  0  0  0  0  0  0  0  0999 V2000
   41.1572   14.1772  -14.2860 C   0  0  0  0  0  0  0  0  0  0  0  0
   42.3758   13.5967  -13.6517 C   0  0  0  0  0  0  0  0  0  0  0  0
   43.5268   16.0207  -10.4095 N   0  0  0  0  0  0  0  0  0  0  0  0
   44.3081   14.8804  -10.7257 C   0  0  0  0  0  0  0  0  0  0  0  0
   43.5001   13.8443  -11.5023 C   0  0  0  0  0  0  0  0  0  0  0  0
   42.8745   14.4260  -12.6311 N   0  0  0  0  0  0  0  0  0  0  0  0
   42.2169   15.6736  -12.4601 C   0  0  0  0  0  0  0  0  0  0  0  0
   42.2324   16.0407  -11.0005 C   0  0  0  0  0  0  0  0  0  0  0  0
   43.6672   16.5865   -9.1203 C   0  0  0  0  0  0  0  0  0  0  0  0
   45.9838   17.8638   -8.9687 N   0  0  0  0  0  0  0  0  0  0  0  0
   44.9525   17.2994   -9.0464 C   0  0  0  0  0  0  0  0  0  0  0  0
   43.3520   13.2308  -14.7083 C   0  0  0  0  0  0  0  0  0  0  0  0
   43.0157   12.5897  -15.8801 C   0  0  0  0  0  0  0  0  0  0  0  0
   43.9619   12.2322  -16.8213 C   0  0  0  0  0  0  0  0  0  0  0  0
   45.2966   12.5014  -16.6307 C   0  0  0  0  0  0  0  0  0  0  0  0
   45.6539   13.1474  -15.4610 C   0  0  0  0  0  0  0  0  0  0  0  0
   44.6948   13.4980  -14.5278 C   0  0  0  0  0  0  0  0  0  0  0  0
   40.3181   13.2614  -14.9156 O   0  0  0  0  0  0  0  0  0  0  0  0
   39.0798   13.4439  -14.2486 C   0  0  0  0  0  0  0  0  0  0  0  0
   37.9561   12.7945  -14.8937 C   0  0  0  0  0  0  0  0  0  0  0  0
   38.1584   12.0602  -16.0832 C   0  0  0  0  0  0  0  0  0  0  0  0
   37.1488   11.4223  -16.7367 C   0  0  0  0  0  0  0  0  0  0  0  0
   35.8735   11.4847  -16.2323 C   0  0  0  0  0  0  0  0  0  0  0  0
   35.6583   12.1956  -15.0755 C   0  0  0  0  0  0  0  0  0  0  0  0
   36.6833   12.8549  -14.3930 C   0  0  0  0  0  0  0  0  0  0  0  0
   37.3619   10.6472  -17.9958 C   0  0  0  0  0  0  0  0  0  0  0  0
   36.6710   11.1675  -19.0365 F   0  0  0  0  0  0  0  0  0  0  0  0
   36.9909    9.3416  -17.7060 F   0  0  0  0  0  0  0  0  0  0  0  0
   38.7299   10.6142  -18.2166 F   0  0  0  0  0  0  0  0  0  0  0  0
   34.2510   12.2214  -14.5633 C   0  0  0  0  0  0  0  0  0  0  0  0
   34.2512   12.4668  -13.1838 F   0  0  0  0  0  0  0  0  0  0  0  0
   33.6218   13.2696  -15.1833 F   0  0  0  0  0  0  0  0  0  0  0  0
   33.5794   11.0349  -14.7721 F   0  0  0  0  0  0  0  0  0  0  0  0
 10 11  3  0  0  0
 11  9  1  0  0  0
  9  3  1  0  0  0
  3  4  1  0  0  0
  4  5  1  0  0  0
  5  6  1  0  0  0
  6  2  1  0  0  0
  2  1  1  0  0  0
  1 18  1  0  0  0
 18 19  1  0  0  0
 19 20  1  0  0  0
 20 21  2  0  0  0
 21 22  1  0  0  0
 22 26  1  0  0  0
 26 27  1  0  0  0
 26 28  1  0  0  0
 26 29  1  0  0  0
 22 23  2  0  0  0
 23 24  1  0  0  0
 24 30  1  0  0  0
 30 31  1  0  0  0
 30 32  1  0  0  0
 30 33  1  0  0  0
 24 25  2  0  0  0
  2 12  1  0  0  0
 12 13  2  0  0  0
 13 14  1  0  0  0
 14 15  2  0  0  0
 15 16  1  0  0  0
 16 17  2  0  0  0
  6  7  1  0  0  0
  7  8  1  0  0  0
  8  3  1  0  0  0
 25 20  1  0  0  0
 17 12  1  0  0  0
M  END
> <minimizedAffinity>
-8.01807

> <CNNscore>
0.2796512842

> <CNNaffinity>
6.1074995995

> <CNN_VS>
1.7079701424

> <CNNaffinity_variance>
0.0942382738

$$$$
[H]c1c([H])c([H])c(C([H])(N2C([H])([H])C([H])([H])N(C([H])([H])C#N)C([H])([H])C2([H])[H])C([H])([H])OC([H])([H])c2c([H])c(C(F)(F)F)c([H])c(C(F)(F)F)c2[H])c([H])c1[H]


 33 35  0  0  0  0  0  0  0  0999 V2000
   35.2531   14.8965  -11.8503 C   0  0  0  0  0  0  0  0  0  0  0  0
   35.6491   15.0672  -10.4226 C   0  0  0  0  0  0  0  0  0  0  0  0
   32.3526   16.4518   -8.2027 N   0  0  0  0  0  0  0  0  0  0  0  0
   33.6193   16.3676   -7.5709 C   0  0  0  0  0  0  0  0  0  0  0  0
   34.5327   15.3686   -8.2760 C   0  0  0  0  0  0  0  0  0  0  0  0
   34.6145   15.6417   -9.6625 N   0  0  0  0  0  0  0  0  0  0  0  0
   33.4091   15.9260  -10.3586 C   0  0  0  0  0  0  0  0  0  0  0  0
   32.2452   15.7305   -9.4246 C   0  0  0  0  0  0  0  0  0  0  0  0
   31.2030   16.5235   -7.3809 C   0  0  0  0  0  0  0  0  0  0  0  0
   30.0025   18.8574   -7.7454 N   0  0  0  0  0  0  0  0  0  0  0  0
   30.5416   17.8209   -7.5928 C   0  0  0  0  0  0  0  0  0  0  0  0
   36.9541   15.7714  -10.3561 C   0  0  0  0  0  0  0  0  0  0  0  0
   38.1728   15.1546  -10.5333 C   0  0  0  0  0  0  0  0  0  0  0  0
   39.3675   15.8402  -10.4248 C   0  0  0  0  0  0  0  0  0  0  0  0
   39.3966   17.1831  -10.1315 C   0  0  0  0  0  0  0  0  0  0  0  0
   38.1824   17.8210   -9.9529 C   0  0  0  0  0  0  0  0  0  0  0  0
   36.9946   17.1205  -10.0638 C   0  0  0  0  0  0  0  0  0  0  0  0
   35.5728   13.6644  -12.4152 O   0  0  0  0  0  0  0  0  0  0  0  0
   36.3471   14.0185  -13.5494 C   0  0  0  0  0  0  0  0  0  0  0  0
   36.3102   13.0441  -14.6218 C   0  0  0  0  0  0  0  0  0  0  0  0
   37.4893   12.7472  -15.3407 C   0  0  0  0  0  0  0  0  0  0  0  0
   37.5258   11.8399  -16.3549 C   0  0  0  0  0  0  0  0  0  0  0  0
   36.3770   11.1756  -16.7072 C   0  0  0  0  0  0  0  0  0  0  0  0
   35.2201   11.4526  -16.0183 C   0  0  0  0  0  0  0  0  0  0  0  0
   35.1664   12.3801  -14.9753 C   0  0  0  0  0  0  0  0  0  0  0  0
   38.7719   11.5269  -17.1168 C   0  0  0  0  0  0  0  0  0  0  0  0
   39.4884   10.5369  -16.5358 F   0  0  0  0  0  0  0  0  0  0  0  0
   39.4765   12.7197  -17.2000 F   0  0  0  0  0  0  0  0  0  0  0  0
   38.3815   11.2242  -18.4120 F   0  0  0  0  0  0  0  0  0  0  0  0
   33.9996   10.6915  -16.4360 C   0  0  0  0  0  0  0  0  0  0  0  0
   34.3309    9.3494  -16.6642 F   0  0  0  0  0  0  0  0  0  0  0  0
   33.1212   10.7415  -15.3848 F   0  0  0  0  0  0  0  0  0  0  0  0
   33.4297   11.1794  -17.5934 F   0  0  0  0  0  0  0  0  0  0  0  0
 10 11  3  0  0  0
 11  9  1  0  0  0
  9  3  1  0  0  0
  3  4  1  0  0  0
  4  5  1  0  0  0
  5  6  1  0  0  0
  6  2  1  0  0  0
  2  1  1  0  0  0
  1 18  1  0  0  0
 18 19  1  0  0  0
 19 20  1  0  0  0
 20 21  2  0  0  0
 21 22  1  0  0  0
 22 26  1  0  0  0
 26 27  1  0  0  0
 26 28  1  0  0  0
 26 29  1  0  0  0
 22 23  2  0  0  0
 23 24  1  0  0  0
 24 30  1  0  0  0
 30 31  1  0  0  0
 30 32  1  0  0  0
 30 33  1  0  0  0
 24 25  2  0  0  0
  2 12  1  0  0  0
 12 13  2  0  0  0
 13 14  1  0  0  0
 14 15  2  0  0  0
 15 16  1  0  0  0
 16 17  2  0  0  0
  6  7  1  0  0  0
  7  8  1  0  0  0
  8  3  1  0  0  0
 25 20  1  0  0  0
 17 12  1  0  0  0
M  END
> <minimizedAffinity>
-8.03471

> <CNNscore>
0.2755047381

> <CNNaffinity>
5.8139138222

> <CNN_VS>
1.6017608643

> <CNNaffinity_variance>
0.6492690444

$$$$
[H]c1c([H])c([H])c(C([H])(N2C([H])([H])C([H])([H])N(C([H])([H])C#N)C([H])([H])C2([H])[H])C([H])([H])OC([H])([H])c2c([H])c(C(F)(F)F)c([H])c(C(F)(F)F)c2[H])c([H])c1[H]


 33 35  0  0  0  0  0  0  0  0999 V2000
   35.9326   15.0432  -11.5188 C   0  0  0  0  0  0  0  0  0  0  0  0
   36.7209   14.8248  -10.2717 C   0  0  0  0  0  0  0  0  0  0  0  0
   34.3583   16.0553   -7.0135 N   0  0  0  0  0  0  0  0  0  0  0  0
   35.5188   15.2791   -6.7658 C   0  0  0  0  0  0  0  0  0  0  0  0
   35.9255   14.4700   -7.9943 C   0  0  0  0  0  0  0  0  0  0  0  0
   36.0380   15.2980   -9.1369 N   0  0  0  0  0  0  0  0  0  0  0  0
   35.0094   16.2485   -9.3756 C   0  0  0  0  0  0  0  0  0  0  0  0
   33.9122   16.0487   -8.3648 C   0  0  0  0  0  0  0  0  0  0  0  0
   33.3742   16.1226   -5.9991 C   0  0  0  0  0  0  0  0  0  0  0  0
   32.6178   13.6704   -5.3391 N   0  0  0  0  0  0  0  0  0  0  0  0
   32.9593   14.7568   -5.6413 C   0  0  0  0  0  0  0  0  0  0  0  0
   38.0927   15.3602  -10.4582 C   0  0  0  0  0  0  0  0  0  0  0  0
   38.7001   15.5141  -11.6848 C   0  0  0  0  0  0  0  0  0  0  0  0
   39.9944   15.9805  -11.8119 C   0  0  0  0  0  0  0  0  0  0  0  0
   40.7446   16.3158  -10.7095 C   0  0  0  0  0  0  0  0  0  0  0  0
   40.1508   16.1708   -9.4688 C   0  0  0  0  0  0  0  0  0  0  0  0
   38.8543   15.7015   -9.3579 C   0  0  0  0  0  0  0  0  0  0  0  0
   35.6917   13.9023  -12.2802 O   0  0  0  0  0  0  0  0  0  0  0  0
   35.8068   14.3717  -13.6135 C   0  0  0  0  0  0  0  0  0  0  0  0
   35.9471   13.3220  -14.6030 C   0  0  0  0  0  0  0  0  0  0  0  0
   37.2097   13.0695  -15.1838 C   0  0  0  0  0  0  0  0  0  0  0  0
   37.4121   12.0966  -16.1142 C   0  0  0  0  0  0  0  0  0  0  0  0
   36.3554   11.3180  -16.5167 C   0  0  0  0  0  0  0  0  0  0  0  0
   35.1191   11.5503  -15.9621 C   0  0  0  0  0  0  0  0  0  0  0  0
   34.8952   12.5440  -15.0063 C   0  0  0  0  0  0  0  0  0  0  0  0
   38.7467   11.8304  -16.7301 C   0  0  0  0  0  0  0  0  0  0  0  0
   39.5210   12.9396  -16.7653 F   0  0  0  0  0  0  0  0  0  0  0  0
   38.4872   11.3183  -17.9936 F   0  0  0  0  0  0  0  0  0  0  0  0
   39.3186   10.7937  -16.0092 F   0  0  0  0  0  0  0  0  0  0  0  0
   34.0046   10.6649  -16.4284 C   0  0  0  0  0  0  0  0  0  0  0  0
   32.9672   10.6700  -15.4866 F   0  0  0  0  0  0  0  0  0  0  0  0
   33.5267   11.2077  -17.5928 F   0  0  0  0  0  0  0  0  0  0  0  0
   34.3955    9.3541  -16.6058 F   0  0  0  0  0  0  0  0  0  0  0  0
 10 11  3  0  0  0
 11  9  1  0  0  0
  9  3  1  0  0  0
  3  4  1  0  0  0
  4  5  1  0  0  0
  5  6  1  0  0  0
  6  2  1  0  0  0
  2  1  1  0  0  0
  1 18  1  0  0  0
 18 19  1  0  0  0
 19 20  1  0  0  0
 20 21  2  0  0  0
 21 22  1  0  0  0
 22 26  1  0  0  0
 26 27  1  0  0  0
 26 28  1  0  0  0
 26 29  1  0  0  0
 22 23  2  0  0  0
 23 24  1  0  0  0
 24 30  1  0  0  0
 30 31  1  0  0  0
 30 32  1  0  0  0
 30 33  1  0  0  0
 24 25  2  0  0  0
  2 12  1  0  0  0
 12 13  2  0  0  0
 13 14  1  0  0  0
 14 15  2  0  0  0
 15 16  1  0  0  0
 16 17  2  0  0  0
  6  7  1  0  0  0
  7  8  1  0  0  0
  8  3  1  0  0  0
 25 20  1  0  0  0
 17 12  1  0  0  0
M  END
> <minimizedAffinity>
-8.26330

> <CNNscore>
0.2542093694

> <CNNaffinity>
5.7150640488

> <CNN_VS>
1.4528228045

> <CNNaffinity_variance>
0.7470324636

$$$$
[H]OC(=O)c1c([H])c([H])c([H])c(O[H])c1C(=O)c1c(O[H])c([H])c(C(=O)OC([H])([H])[C@]2([H])C([H])([H])C([H])([H])C([H])([H])[C@@]2([H])N([H])C(=O)c2c([H])c([H])c(O[H])c([H])c2[H])c([H])c1O[H]


 45 48  0  0  0  0  0  0  0  0999 V2000
   38.8964   12.3718  -15.9986 C   0  0  0  0  0  0  0  0  0  0  0  0
   37.6315   11.9755  -16.3148 C   0  0  0  0  0  0  0  0  0  0  0  0
   36.5752   12.1133  -15.4035 C   0  0  0  0  0  0  0  0  0  0  0  0
   35.3421   11.6859  -15.8314 O   0  0  0  0  0  0  0  0  0  0  0  0
   36.7662   12.6524  -14.1506 C   0  0  0  0  0  0  0  0  0  0  0  0
   38.0708   13.0563  -13.8336 C   0  0  0  0  0  0  0  0  0  0  0  0
   38.3919   13.6141  -12.5824 O   0  0  0  0  0  0  0  0  0  0  0  0
   39.0862   12.9099  -14.7486 C   0  0  0  0  0  0  0  0  0  0  0  0
   34.4646   11.6958  -15.4037 H   0  0  0  0  0  0  0  0  0  0  0  0
   39.3195   13.8927  -12.3806 H   0  0  0  0  0  0  0  0  0  0  0  0
   40.0209   12.2350  -16.9523 C   0  0  0  0  0  0  0  0  0  0  0  0
   39.8161   11.5910  -17.9894 O   0  0  0  0  0  0  0  0  0  0  0  0
   41.1953   12.7778  -16.7065 O   0  0  0  0  0  0  0  0  0  0  0  0
   42.0807   13.0405  -15.7295 C   0  0  0  0  0  0  0  0  0  0  0  0
   44.3191   13.3528  -14.8496 C   0  0  0  0  0  0  0  0  0  0  0  0
   45.2557   12.1823  -15.0260 C   0  0  0  0  0  0  0  0  0  0  0  0
   45.2341   11.7731  -16.4589 C   0  0  0  0  0  0  0  0  0  0  0  0
   44.1043   12.5383  -17.1349 C   0  0  0  0  0  0  0  0  0  0  0  0
   43.4695   13.3695  -16.1251 C   0  0  0  0  0  0  0  0  0  0  0  0
   43.6372   15.1790  -12.9396 O   0  0  0  0  0  0  0  0  0  0  0  0
   44.6332   15.4864  -13.6579 C   0  0  0  0  0  0  0  0  0  0  0  0
   45.0397   14.5965  -14.6602 N   0  0  0  0  0  0  0  0  0  0  0  0
   45.8637   14.8317  -15.2725 H   0  0  0  0  0  0  0  0  0  0  0  0
   45.2984   16.7355  -13.4079 C   0  0  0  0  0  0  0  0  0  0  0  0
   44.6555   17.7485  -12.7407 C   0  0  0  0  0  0  0  0  0  0  0  0
   45.2916   18.9677  -12.4939 C   0  0  0  0  0  0  0  0  0  0  0  0
   46.5815   19.1544  -12.9262 C   0  0  0  0  0  0  0  0  0  0  0  0
   47.2354   20.3659  -12.6892 O   0  0  0  0  0  0  0  0  0  0  0  0
   47.2258   18.1352  -13.5964 C   0  0  0  0  0  0  0  0  0  0  0  0
   46.6070   16.9309  -13.8440 C   0  0  0  0  0  0  0  0  0  0  0  0
   47.7749   20.5211  -11.8580 H   0  0  0  0  0  0  0  0  0  0  0  0
   35.8040   12.6896  -13.0982 C   0  0  0  0  0  0  0  0  0  0  0  0
   35.8099   11.5949  -12.3718 O   0  0  0  0  0  0  0  0  0  0  0  0
   34.8562   13.6898  -12.6808 C   0  0  0  0  0  0  0  0  0  0  0  0
   33.5715   13.5258  -13.2604 C   0  0  0  0  0  0  0  0  0  0  0  0
   33.3451   12.4640  -14.1248 O   0  0  0  0  0  0  0  0  0  0  0  0
   32.5430   14.3772  -12.9991 C   0  0  0  0  0  0  0  0  0  0  0  0
   32.7989   15.4174  -12.1400 C   0  0  0  0  0  0  0  0  0  0  0  0
   34.0203   15.6018  -11.5730 C   0  0  0  0  0  0  0  0  0  0  0  0
   35.1086   14.7181  -11.8424 C   0  0  0  0  0  0  0  0  0  0  0  0
   32.4308   12.3586  -14.5283 H   0  0  0  0  0  0  0  0  0  0  0  0
   36.4096   15.1330  -11.3686 C   0  0  0  0  0  0  0  0  0  0  0  0
   37.0011   16.0635  -12.0153 O   0  0  0  0  0  0  0  0  0  0  0  0
   37.0954   14.6435  -10.3143 O   0  0  0  0  0  0  0  0  0  0  0  0
   38.0666   14.7699  -10.1090 H   0  0  0  0  0  0  0  0  0  0  0  0
 20 21  2  0  0  0
 21 22  1  0  0  0
 22 15  1  0  0  0
 15 16  1  0  0  0
 16 17  1  0  0  0
 17 18  1  0  0  0
 18 19  1  0  0  0
 19 14  1  0  0  0
 14 13  1  0  0  0
 13 11  1  0  0  0
 11 12  2  0  0  0
 11  1  1  0  0  0
  1  2  2  0  0  0
  2  3  1  0  0  0
  3  4  1  0  0  0
  3  5  2  0  0  0
  5 32  1  0  0  0
 32 33  2  0  0  0
 32 34  1  0  0  0
 34 35  2  0  0  0
 35 36  1  0  0  0
 35 37  1  0  0  0
 37 38  2  0  0  0
 38 39  1  0  0  0
 39 40  2  0  0  0
 40 42  1  0  0  0
 42 43  2  0  0  0
 42 44  1  0  0  0
  5  6  1  0  0  0
  6  7  1  0  0  0
  6  8  2  0  0  0
 21 24  1  0  0  0
 24 25  2  0  0  0
 25 26  1  0  0  0
 26 27  2  0  0  0
 27 28  1  0  0  0
 27 29  1  0  0  0
 29 30  2  0  0  0
 19 15  1  0  0  0
  8  1  1  0  0  0
 30 24  1  0  0  0
 40 34  1  0  0  0
 22 23  1  0  0  0
  4  9  1  0  0  0
 36 41  1  0  0  0
 44 45  1  0  0  0
  7 10  1  0  0  0
 28 31  1  0  0  0
M  END
> <minimizedAffinity>
-8.93541

> <CNNscore>
0.3696605563

> <CNNaffinity>
6.1093406677

> <CNN_VS>
2.2583823204

> <CNNaffinity_variance>
0.0764803588

$$$$
[H]OC(=O)c1c([H])c([H])c([H])c(O[H])c1C(=O)c1c(O[H])c([H])c(C(=O)OC([H])([H])[C@]2([H])C([H])([H])C([H])([H])C([H])([H])[C@@]2([H])N([H])C(=O)c2c([H])c([H])c(O[H])c([H])c2[H])c([H])c1O[H]


 45 48  0  0  0  0  0  0  0  0999 V2000
   44.0312   13.2763  -13.9342 C   0  0  0  0  0  0  0  0  0  0  0  0
   42.8392   13.7240  -13.4486 C   0  0  0  0  0  0  0  0  0  0  0  0
   41.6743   13.6866  -14.2277 C   0  0  0  0  0  0  0  0  0  0  0  0
   40.5292   14.1583  -13.6339 O   0  0  0  0  0  0  0  0  0  0  0  0
   41.6806   13.1987  -15.5155 C   0  0  0  0  0  0  0  0  0  0  0  0
   42.9113   12.7413  -16.0072 C   0  0  0  0  0  0  0  0  0  0  0  0
   43.0457   12.2276  -17.3103 O   0  0  0  0  0  0  0  0  0  0  0  0
   44.0366   12.7893  -15.2191 C   0  0  0  0  0  0  0  0  0  0  0  0
   39.6075   14.2158  -13.9503 H   0  0  0  0  0  0  0  0  0  0  0  0
   43.9241   11.9099  -17.6361 H   0  0  0  0  0  0  0  0  0  0  0  0
   45.2686   13.3071  -13.1215 C   0  0  0  0  0  0  0  0  0  0  0  0
   46.2145   12.6004  -13.4930 O   0  0  0  0  0  0  0  0  0  0  0  0
   45.3596   14.0579  -12.0435 O   0  0  0  0  0  0  0  0  0  0  0  0
   45.4073   14.0186  -10.7005 C   0  0  0  0  0  0  0  0  0  0  0  0
   44.5058   14.2881   -8.4651 C   0  0  0  0  0  0  0  0  0  0  0  0
   44.2651   15.7131   -8.0290 C   0  0  0  0  0  0  0  0  0  0  0  0
   43.4594   16.3977   -9.0795 C   0  0  0  0  0  0  0  0  0  0  0  0
   43.3954   15.4679  -10.2837 C   0  0  0  0  0  0  0  0  0  0  0  0
   44.1518   14.2704   -9.9563 C   0  0  0  0  0  0  0  0  0  0  0  0
   45.5804   12.5721   -6.6352 O   0  0  0  0  0  0  0  0  0  0  0  0
   44.3252   12.4985   -6.7812 C   0  0  0  0  0  0  0  0  0  0  0  0
   43.7046   13.3488   -7.7051 N   0  0  0  0  0  0  0  0  0  0  0  0
   42.6619   13.3038   -7.8463 H   0  0  0  0  0  0  0  0  0  0  0  0
   43.5985   11.5443   -5.9897 C   0  0  0  0  0  0  0  0  0  0  0  0
   42.5119   11.9349   -5.2471 C   0  0  0  0  0  0  0  0  0  0  0  0
   41.7992   11.0163   -4.4724 C   0  0  0  0  0  0  0  0  0  0  0  0
   42.1930    9.7009   -4.4546 C   0  0  0  0  0  0  0  0  0  0  0  0
   41.4937    8.7667   -3.6868 O   0  0  0  0  0  0  0  0  0  0  0  0
   43.2851    9.3104   -5.2015 C   0  0  0  0  0  0  0  0  0  0  0  0
   43.9932   10.2083   -5.9675 C   0  0  0  0  0  0  0  0  0  0  0  0
   40.7180    8.2514   -4.0594 H   0  0  0  0  0  0  0  0  0  0  0  0
   40.5979   13.2633  -16.4420 C   0  0  0  0  0  0  0  0  0  0  0  0
   40.5973   14.3772  -17.1387 O   0  0  0  0  0  0  0  0  0  0  0  0
   39.5346   12.3469  -16.7620 C   0  0  0  0  0  0  0  0  0  0  0  0
   39.6654   11.7576  -18.0461 C   0  0  0  0  0  0  0  0  0  0  0  0
   40.7563   12.0868  -18.8382 O   0  0  0  0  0  0  0  0  0  0  0  0
   38.7543   10.8737  -18.5356 C   0  0  0  0  0  0  0  0  0  0  0  0
   37.6867   10.5687  -17.7278 C   0  0  0  0  0  0  0  0  0  0  0  0
   37.5330   11.1203  -16.4952 C   0  0  0  0  0  0  0  0  0  0  0  0
   38.4796   12.0520  -15.9719 C   0  0  0  0  0  0  0  0  0  0  0  0
   40.8377   11.6622  -19.7454 H   0  0  0  0  0  0  0  0  0  0  0  0
   38.1043   12.7404  -14.7576 C   0  0  0  0  0  0  0  0  0  0  0  0
   38.3267   12.1419  -13.6502 O   0  0  0  0  0  0  0  0  0  0  0  0
   37.5276   13.9555  -14.6458 O   0  0  0  0  0  0  0  0  0  0  0  0
   37.0764   14.3426  -13.8409 H   0  0  0  0  0  0  0  0  0  0  0  0
 20 21  2  0  0  0
 21 22  1  0  0  0
 22 15  1  0  0  0
 15 16  1  0  0  0
 16 17  1  0  0  0
 17 18  1  0  0  0
 18 19  1  0  0  0
 19 14  1  0  0  0
 14 13  1  0  0  0
 13 11  1  0  0  0
 11 12  2  0  0  0
 11  1  1  0  0  0
  1  2  2  0  0  0
  2  3  1  0  0  0
  3  4  1  0  0  0
  3  5  2  0  0  0
  5 32  1  0  0  0
 32 33  2  0  0  0
 32 34  1  0  0  0
 34 35  2  0  0  0
 35 36  1  0  0  0
 35 37  1  0  0  0
 37 38  2  0  0  0
 38 39  1  0  0  0
 39 40  2  0  0  0
 40 42  1  0  0  0
 42 43  2  0  0  0
 42 44  1  0  0  0
  5  6  1  0  0  0
  6  7  1  0  0  0
  6  8  2  0  0  0
 21 24  1  0  0  0
 24 25  2  0  0  0
 25 26  1  0  0  0
 26 27  2  0  0  0
 27 28  1  0  0  0
 27 29  1  0  0  0
 29 30  2  0  0  0
 19 15  1  0  0  0
  8  1  1  0  0  0
 30 24  1  0  0  0
 40 34  1  0  0  0
 22 23  1  0  0  0
  4  9  1  0  0  0
 36 41  1  0  0  0
 44 45  1  0  0  0
  7 10  1  0  0  0
 28 31  1  0  0  0
M  END
> <minimizedAffinity>
-9.29117

> <CNNscore>
0.3148750067

> <CNNaffinity>
5.6111645699

> <CNN_VS>
1.7668154240

> <CNNaffinity_variance>
0.0788301453

$$$$
[H]OC(=O)c1c([H])c([H])c([H])c(O[H])c1C(=O)c1c(O[H])c([H])c(C(=O)OC([H])([H])[C@]2([H])C([H])([H])C([H])([H])C([H])([H])[C@@]2([H])N([H])C(=O)c2c([H])c([H])c(O[H])c([H])c2[H])c([H])c1O[H]


 45 48  0  0  0  0  0  0  0  0999 V2000
   41.9960   13.0227  -15.6694 C   0  0  0  0  0  0  0  0  0  0  0  0
   43.0390   12.6341  -16.4557 C   0  0  0  0  0  0  0  0  0  0  0  0
   44.3630   12.7133  -16.0018 C   0  0  0  0  0  0  0  0  0  0  0  0
   45.3329   12.2888  -16.8766 O   0  0  0  0  0  0  0  0  0  0  0  0
   44.6701   13.1868  -14.7456 C   0  0  0  0  0  0  0  0  0  0  0  0
   43.5911   13.5853  -13.9441 C   0  0  0  0  0  0  0  0  0  0  0  0
   43.7786   14.0929  -12.6453 O   0  0  0  0  0  0  0  0  0  0  0  0
   42.3031   13.4947  -14.4160 C   0  0  0  0  0  0  0  0  0  0  0  0
   46.3032   12.2229  -16.7917 H   0  0  0  0  0  0  0  0  0  0  0  0
   43.0022   14.3676  -12.0971 H   0  0  0  0  0  0  0  0  0  0  0  0
   40.5925   12.9418  -16.1346 C   0  0  0  0  0  0  0  0  0  0  0  0
   40.3983   12.8559  -17.3540 O   0  0  0  0  0  0  0  0  0  0  0  0
   39.5882   12.9608  -15.2830 O   0  0  0  0  0  0  0  0  0  0  0  0
   39.0846   13.6135  -14.2209 C   0  0  0  0  0  0  0  0  0  0  0  0
   36.7826   14.3284  -13.9524 C   0  0  0  0  0  0  0  0  0  0  0  0
   35.8116   13.7898  -14.9749 C   0  0  0  0  0  0  0  0  0  0  0  0
   35.9685   12.3091  -15.0397 C   0  0  0  0  0  0  0  0  0  0  0  0
   37.2034   11.9452  -14.2266 C   0  0  0  0  0  0  0  0  0  0  0  0
   37.7663   13.1795  -13.7040 C   0  0  0  0  0  0  0  0  0  0  0  0
   37.8838   16.0897  -12.1823 O   0  0  0  0  0  0  0  0  0  0  0  0
   36.7371   15.6509  -11.8740 C   0  0  0  0  0  0  0  0  0  0  0  0
   36.1110   14.7415  -12.7359 N   0  0  0  0  0  0  0  0  0  0  0  0
   35.1583   14.3602  -12.4992 H   0  0  0  0  0  0  0  0  0  0  0  0
   36.1340   16.1093  -10.6528 C   0  0  0  0  0  0  0  0  0  0  0  0
   36.8189   16.9446   -9.8056 C   0  0  0  0  0  0  0  0  0  0  0  0
   36.2433   17.3948   -8.6148 C   0  0  0  0  0  0  0  0  0  0  0  0
   34.9711   16.9947   -8.2878 C   0  0  0  0  0  0  0  0  0  0  0  0
   34.3775   17.4339   -7.1020 O   0  0  0  0  0  0  0  0  0  0  0  0
   34.2846   16.1554   -9.1406 C   0  0  0  0  0  0  0  0  0  0  0  0
   34.8436   15.7068  -10.3156 C   0  0  0  0  0  0  0  0  0  0  0  0
   33.8349   18.2766   -7.0635 H   0  0  0  0  0  0  0  0  0  0  0  0
   45.9795   13.4578  -14.2486 C   0  0  0  0  0  0  0  0  0  0  0  0
   46.3192   12.6585  -13.2628 O   0  0  0  0  0  0  0  0  0  0  0  0
   46.9859   14.4148  -14.6282 C   0  0  0  0  0  0  0  0  0  0  0  0
   48.1161   13.8267  -15.2530 C   0  0  0  0  0  0  0  0  0  0  0  0
   48.1486   12.4529  -15.4470 O   0  0  0  0  0  0  0  0  0  0  0  0
   49.1792   14.5643  -15.6734 C   0  0  0  0  0  0  0  0  0  0  0  0
   49.1165   15.9204  -15.4670 C   0  0  0  0  0  0  0  0  0  0  0  0
   48.0490   16.5111  -14.8679 C   0  0  0  0  0  0  0  0  0  0  0  0
   46.9294   15.7478  -14.4187 C   0  0  0  0  0  0  0  0  0  0  0  0
   48.9545   12.0488  -15.8911 H   0  0  0  0  0  0  0  0  0  0  0  0
   45.9605   16.4427  -13.6015 C   0  0  0  0  0  0  0  0  0  0  0  0
   46.0164   16.2568  -12.3380 O   0  0  0  0  0  0  0  0  0  0  0  0
   44.9786   17.2710  -14.0153 O   0  0  0  0  0  0  0  0  0  0  0  0
   44.1846   17.5820  -13.4918 H   0  0  0  0  0  0  0  0  0  0  0  0
 20 21  2  0  0  0
 21 22  1  0  0  0
 22 15  1  0  0  0
 15 16  1  0  0  0
 16 17  1  0  0  0
 17 18  1  0  0  0
 18 19  1  0  0  0
 19 14  1  0  0  0
 14 13  1  0  0  0
 13 11  1  0  0  0
 11 12  2  0  0  0
 11  1  1  0  0  0
  1  2  2  0  0  0
  2  3  1  0  0  0
  3  4  1  0  0  0
  3  5  2  0  0  0
  5 32  1  0  0  0
 32 33  2  0  0  0
 32 34  1  0  0  0
 34 35  2  0  0  0
 35 36  1  0  0  0
 35 37  1  0  0  0
 37 38  2  0  0  0
 38 39  1  0  0  0
 39 40  2  0  0  0
 40 42  1  0  0  0
 42 43  2  0  0  0
 42 44  1  0  0  0
  5  6  1  0  0  0
  6  7  1  0  0  0
  6  8  2  0  0  0
 21 24  1  0  0  0
 24 25  2  0  0  0
 25 26  1  0  0  0
 26 27  2  0  0  0
 27 28  1  0  0  0
 27 29  1  0  0  0
 29 30  2  0  0  0
 19 15  1  0  0  0
  8  1  1  0  0  0
 30 24  1  0  0  0
 40 34  1  0  0  0
 22 23  1  0  0  0
  4  9  1  0  0  0
 36 41  1  0  0  0
 44 45  1  0  0  0
  7 10  1  0  0  0
 28 31  1  0  0  0
M  END
> <minimizedAffinity>
-8.63545

> <CNNscore>
0.3037224710

> <CNNaffinity>
5.9929342270

> <CNN_VS>
1.8201887608

> <CNNaffinity_variance>
0.1467874497

$$$$
[H]OC(=O)c1c([H])c([H])c([H])c(O[H])c1C(=O)c1c(O[H])c([H])c(C(=O)OC([H])([H])[C@]2([H])C([H])([H])C([H])([H])C([H])([H])[C@@]2([H])N([H])C(=O)c2c([H])c([H])c(O[H])c([H])c2[H])c([H])c1O[H]


 45 48  0  0  0  0  0  0  0  0999 V2000
   41.4560   12.9095  -15.9632 C   0  0  0  0  0  0  0  0  0  0  0  0
   42.6603   12.6450  -16.5436 C   0  0  0  0  0  0  0  0  0  0  0  0
   43.8612   12.8138  -15.8403 C   0  0  0  0  0  0  0  0  0  0  0  0
   45.0141   12.5114  -16.5227 O   0  0  0  0  0  0  0  0  0  0  0  0
   43.8798   13.2542  -14.5355 C   0  0  0  0  0  0  0  0  0  0  0  0
   42.6365   13.5248  -13.9468 C   0  0  0  0  0  0  0  0  0  0  0  0
   42.5270   13.9872  -12.6225 O   0  0  0  0  0  0  0  0  0  0  0  0
   41.4753   13.3485  -14.6612 C   0  0  0  0  0  0  0  0  0  0  0  0
   45.9524   12.5229  -16.2537 H   0  0  0  0  0  0  0  0  0  0  0  0
   41.6389   14.1713  -12.2273 H   0  0  0  0  0  0  0  0  0  0  0  0
   40.1797   12.7329  -16.6930 C   0  0  0  0  0  0  0  0  0  0  0  0
   40.2327   12.6558  -17.9272 O   0  0  0  0  0  0  0  0  0  0  0  0
   39.0310   12.6608  -16.0531 O   0  0  0  0  0  0  0  0  0  0  0  0
   38.0396   11.8225  -15.7041 C   0  0  0  0  0  0  0  0  0  0  0  0
   37.3238   13.7208  -14.3750 C   0  0  0  0  0  0  0  0  0  0  0  0
   35.9663   14.2821  -14.7222 C   0  0  0  0  0  0  0  0  0  0  0  0
   34.9825   13.1627  -14.7345 C   0  0  0  0  0  0  0  0  0  0  0  0
   35.7686   11.8631  -14.6255 C   0  0  0  0  0  0  0  0  0  0  0  0
   37.1799   12.2062  -14.5607 C   0  0  0  0  0  0  0  0  0  0  0  0
   39.1640   15.6608  -13.8291 O   0  0  0  0  0  0  0  0  0  0  0  0
   38.6719   15.0757  -12.8201 C   0  0  0  0  0  0  0  0  0  0  0  0
   37.7215   14.0674  -13.0246 N   0  0  0  0  0  0  0  0  0  0  0  0
   37.3003   13.5642  -12.2010 H   0  0  0  0  0  0  0  0  0  0  0  0
   39.1138   15.4768  -11.5129 C   0  0  0  0  0  0  0  0  0  0  0  0
   38.2781   15.3696  -10.4290 C   0  0  0  0  0  0  0  0  0  0  0  0
   38.6964   15.7583   -9.1539 C   0  0  0  0  0  0  0  0  0  0  0  0
   39.9651   16.2552   -8.9832 C   0  0  0  0  0  0  0  0  0  0  0  0
   40.4027   16.6491   -7.7164 O   0  0  0  0  0  0  0  0  0  0  0  0
   40.8033   16.3620  -10.0736 C   0  0  0  0  0  0  0  0  0  0  0  0
   40.3999   15.9817  -11.3333 C   0  0  0  0  0  0  0  0  0  0  0  0
   40.8576   16.0092   -7.0922 H   0  0  0  0  0  0  0  0  0  0  0  0
   45.0408   13.6107  -13.7874 C   0  0  0  0  0  0  0  0  0  0  0  0
   45.2161   12.8447  -12.7345 O   0  0  0  0  0  0  0  0  0  0  0  0
   46.0466   14.6236  -13.9751 C   0  0  0  0  0  0  0  0  0  0  0  0
   45.6962   15.8776  -13.4110 C   0  0  0  0  0  0  0  0  0  0  0  0
   44.4835   16.0115  -12.7497 O   0  0  0  0  0  0  0  0  0  0  0  0
   46.5107   16.9641  -13.4939 C   0  0  0  0  0  0  0  0  0  0  0  0
   47.7032   16.7992  -14.1544 C   0  0  0  0  0  0  0  0  0  0  0  0
   48.0638   15.6114  -14.7079 C   0  0  0  0  0  0  0  0  0  0  0  0
   47.2163   14.4652  -14.6314 C   0  0  0  0  0  0  0  0  0  0  0  0
   44.2473   16.9046  -12.3542 H   0  0  0  0  0  0  0  0  0  0  0  0
   47.5935   13.3283  -15.4405 C   0  0  0  0  0  0  0  0  0  0  0  0
   47.8066   12.2221  -14.8364 O   0  0  0  0  0  0  0  0  0  0  0  0
   47.7620   13.2912  -16.7790 O   0  0  0  0  0  0  0  0  0  0  0  0
   48.2214   12.5817  -17.3146 H   0  0  0  0  0  0  0  0  0  0  0  0
 20 21  2  0  0  0
 21 22  1  0  0  0
 22 15  1  0  0  0
 15 16  1  0  0  0
 16 17  1  0  0  0
 17 18  1  0  0  0
 18 19  1  0  0  0
 19 14  1  0  0  0
 14 13  1  0  0  0
 13 11  1  0  0  0
 11 12  2  0  0  0
 11  1  1  0  0  0
  1  2  2  0  0  0
  2  3  1  0  0  0
  3  4  1  0  0  0
  3  5  2  0  0  0
  5 32  1  0  0  0
 32 33  2  0  0  0
 32 34  1  0  0  0
 34 35  2  0  0  0
 35 36  1  0  0  0
 35 37  1  0  0  0
 37 38  2  0  0  0
 38 39  1  0  0  0
 39 40  2  0  0  0
 40 42  1  0  0  0
 42 43  2  0  0  0
 42 44  1  0  0  0
  5  6  1  0  0  0
  6  7  1  0  0  0
  6  8  2  0  0  0
 21 24  1  0  0  0
 24 25  2  0  0  0
 25 26  1  0  0  0
 26 27  2  0  0  0
 27 28  1  0  0  0
 27 29  1  0  0  0
 29 30  2  0  0  0
 19 15  1  0  0  0
  8  1  1  0  0  0
 30 24  1  0  0  0
 40 34  1  0  0  0
 22 23  1  0  0  0
  4  9  1  0  0  0
 36 41  1  0  0  0
 44 45  1  0  0  0
  7 10  1  0  0  0
 28 31  1  0  0  0
M  END
> <minimizedAffinity>
-8.99995

> <CNNscore>
0.2642697692

> <CNNaffinity>
6.3146657944

> <CNN_VS>
1.6687753201

> <CNNaffinity_variance>
0.0887288004

$$$$
[H]OC(=O)c1c([H])c([H])c([H])c(O[H])c1C(=O)c1c(O[H])c([H])c(C(=O)OC([H])([H])[C@]2([H])C([H])([H])C([H])([H])C([H])([H])[C@@]2([H])N([H])C(=O)c2c([H])c([H])c(O[H])c([H])c2[H])c([H])c1O[H]


 45 48  0  0  0  0  0  0  0  0999 V2000
   40.5287   12.6717  -15.8739 C   0  0  0  0  0  0  0  0  0  0  0  0
   40.5806   13.3211  -14.6769 C   0  0  0  0  0  0  0  0  0  0  0  0
   41.7904   13.8109  -14.1651 C   0  0  0  0  0  0  0  0  0  0  0  0
   41.7230   14.4539  -12.9534 O   0  0  0  0  0  0  0  0  0  0  0  0
   42.9783   13.6579  -14.8450 C   0  0  0  0  0  0  0  0  0  0  0  0
   42.9157   12.9877  -16.0748 C   0  0  0  0  0  0  0  0  0  0  0  0
   44.0632   12.7638  -16.8576 O   0  0  0  0  0  0  0  0  0  0  0  0
   41.7143   12.5198  -16.5518 C   0  0  0  0  0  0  0  0  0  0  0  0
   42.4048   14.8939  -12.4106 H   0  0  0  0  0  0  0  0  0  0  0  0
   43.9953   12.2888  -17.7228 H   0  0  0  0  0  0  0  0  0  0  0  0
   39.2577   12.1519  -16.4279 C   0  0  0  0  0  0  0  0  0  0  0  0
   39.2999   11.5990  -17.5345 O   0  0  0  0  0  0  0  0  0  0  0  0
   38.1244   12.2736  -15.7682 O   0  0  0  0  0  0  0  0  0  0  0  0
   36.7872   12.2367  -15.9021 C   0  0  0  0  0  0  0  0  0  0  0  0
   35.8233   13.8343  -14.3526 C   0  0  0  0  0  0  0  0  0  0  0  0
   34.3578   14.1336  -14.5559 C   0  0  0  0  0  0  0  0  0  0  0  0
   33.6165   12.8419  -14.6127 C   0  0  0  0  0  0  0  0  0  0  0  0
   34.6498   11.7254  -14.6805 C   0  0  0  0  0  0  0  0  0  0  0  0
   35.9661   12.3425  -14.6741 C   0  0  0  0  0  0  0  0  0  0  0  0
   38.1430   15.1669  -13.8127 O   0  0  0  0  0  0  0  0  0  0  0  0
   37.4579   14.8320  -12.8023 C   0  0  0  0  0  0  0  0  0  0  0  0
   36.2550   14.1434  -13.0036 N   0  0  0  0  0  0  0  0  0  0  0  0
   35.6694   13.8515  -12.1784 H   0  0  0  0  0  0  0  0  0  0  0  0
   37.9498   15.1764  -11.4967 C   0  0  0  0  0  0  0  0  0  0  0  0
   37.2413   14.8372  -10.3708 C   0  0  0  0  0  0  0  0  0  0  0  0
   37.7090   15.1686   -9.0967 C   0  0  0  0  0  0  0  0  0  0  0  0
   38.8975   15.8445   -8.9698 C   0  0  0  0  0  0  0  0  0  0  0  0
   39.3826   16.1849   -7.7048 O   0  0  0  0  0  0  0  0  0  0  0  0
   39.6080   16.1844  -10.1024 C   0  0  0  0  0  0  0  0  0  0  0  0
   39.1550   15.8622  -11.3615 C   0  0  0  0  0  0  0  0  0  0  0  0
   39.9840   15.5713   -7.1871 H   0  0  0  0  0  0  0  0  0  0  0  0
   44.2769   13.9721  -14.3452 C   0  0  0  0  0  0  0  0  0  0  0  0
   44.8156   15.0029  -14.9561 O   0  0  0  0  0  0  0  0  0  0  0  0
   45.0862   13.3920  -13.3053 C   0  0  0  0  0  0  0  0  0  0  0  0
   46.0084   12.4247  -13.7821 C   0  0  0  0  0  0  0  0  0  0  0  0
   46.0589   12.1436  -15.1401 O   0  0  0  0  0  0  0  0  0  0  0  0
   46.8533   11.7558  -12.9516 C   0  0  0  0  0  0  0  0  0  0  0  0
   46.7788   12.0565  -11.6139 C   0  0  0  0  0  0  0  0  0  0  0  0
   45.9031   12.9753  -11.1279 C   0  0  0  0  0  0  0  0  0  0  0  0
   45.0086   13.6807  -11.9883 C   0  0  0  0  0  0  0  0  0  0  0  0
   46.7168   11.4569  -15.4651 H   0  0  0  0  0  0  0  0  0  0  0  0
   43.9761   14.4618  -11.3455 C   0  0  0  0  0  0  0  0  0  0  0  0
   44.0042   15.7281  -11.5178 O   0  0  0  0  0  0  0  0  0  0  0  0
   42.9728   14.0128  -10.5622 O   0  0  0  0  0  0  0  0  0  0  0  0
   42.3920   14.5506   -9.9501 H   0  0  0  0  0  0  0  0  0  0  0  0
 20 21  2  0  0  0
 21 22  1  0  0  0
 22 15  1  0  0  0
 15 16  1  0  0  0
 16 17  1  0  0  0
 17 18  1  0  0  0
 18 19  1  0  0  0
 19 14  1  0  0  0
 14 13  1  0  0  0
 13 11  1  0  0  0
 11 12  2  0  0  0
 11  1  1  0  0  0
  1  2  2  0  0  0
  2  3  1  0  0  0
  3  4  1  0  0  0
  3  5  2  0  0  0
  5 32  1  0  0  0
 32 33  2  0  0  0
 32 34  1  0  0  0
 34 35  2  0  0  0
 35 36  1  0  0  0
 35 37  1  0  0  0
 37 38  2  0  0  0
 38 39  1  0  0  0
 39 40  2  0  0  0
 40 42  1  0  0  0
 42 43  2  0  0  0
 42 44  1  0  0  0
  5  6  1  0  0  0
  6  7  1  0  0  0
  6  8  2  0  0  0
 21 24  1  0  0  0
 24 25  2  0  0  0
 25 26  1  0  0  0
 26 27  2  0  0  0
 27 28  1  0  0  0
 27 29  1  0  0  0
 29 30  2  0  0  0
 19 15  1  0  0  0
  8  1  1  0  0  0
 30 24  1  0  0  0
 40 34  1  0  0  0
 22 23  1  0  0  0
  4  9  1  0  0  0
 36 41  1  0  0  0
 44 45  1  0  0  0
  7 10  1  0  0  0
 28 31  1  0  0  0
M  END
> <minimizedAffinity>
-8.92878

> <CNNscore>
0.2352064848

> <CNNaffinity>
6.2871589661

> <CNN_VS>
1.4787805080

> <CNNaffinity_variance>
0.0659239218

$$$$
[H]OC(=O)c1c([H])c([H])c([H])c(O[H])c1C(=O)c1c(O[H])c([H])c(C(=O)OC([H])([H])[C@]2([H])C([H])([H])C([H])([H])C([H])([H])[C@@]2([H])N([H])C(=O)c2c([H])c([H])c(O[H])c([H])c2[H])c([H])c1O[H]


 45 48  0  0  0  0  0  0  0  0999 V2000
   37.4481   12.9759  -13.4631 C   0  0  0  0  0  0  0  0  0  0  0  0
   37.8052   12.0544  -14.4014 C   0  0  0  0  0  0  0  0  0  0  0  0
   38.9803   12.1965  -15.1525 C   0  0  0  0  0  0  0  0  0  0  0  0
   39.2432   11.2045  -16.0653 O   0  0  0  0  0  0  0  0  0  0  0  0
   39.8247   13.2705  -14.9786 C   0  0  0  0  0  0  0  0  0  0  0  0
   39.4490   14.2140  -14.0121 C   0  0  0  0  0  0  0  0  0  0  0  0
   40.2259   15.3573  -13.7492 O   0  0  0  0  0  0  0  0  0  0  0  0
   38.2912   14.0470  -13.2899 C   0  0  0  0  0  0  0  0  0  0  0  0
   39.9905   11.0641  -16.6777 H   0  0  0  0  0  0  0  0  0  0  0  0
   39.9415   16.0098  -13.0620 H   0  0  0  0  0  0  0  0  0  0  0  0
   36.2115   12.8370  -12.6605 C   0  0  0  0  0  0  0  0  0  0  0  0
   35.6545   11.7316  -12.6550 O   0  0  0  0  0  0  0  0  0  0  0  0
   35.7222   13.8515  -11.9783 O   0  0  0  0  0  0  0  0  0  0  0  0
   34.6888   14.7088  -11.9091 C   0  0  0  0  0  0  0  0  0  0  0  0
   34.6409   15.6463   -9.6728 C   0  0  0  0  0  0  0  0  0  0  0  0
   35.9874   15.8250   -9.0142 C   0  0  0  0  0  0  0  0  0  0  0  0
   36.8748   16.5712   -9.9507 C   0  0  0  0  0  0  0  0  0  0  0  0
   36.1566   16.6544  -11.2909 C   0  0  0  0  0  0  0  0  0  0  0  0
   34.8834   15.9667  -11.1518 C   0  0  0  0  0  0  0  0  0  0  0  0
   33.0169   14.8496   -7.6293 O   0  0  0  0  0  0  0  0  0  0  0  0
   32.8378   16.0339   -8.0390 C   0  0  0  0  0  0  0  0  0  0  0  0
   33.6351   16.5107   -9.0872 N   0  0  0  0  0  0  0  0  0  0  0  0
   33.5025   17.4914   -9.4473 H   0  0  0  0  0  0  0  0  0  0  0  0
   31.8233   16.8313   -7.4065 C   0  0  0  0  0  0  0  0  0  0  0  0
   30.4974   16.6445   -7.7095 C   0  0  0  0  0  0  0  0  0  0  0  0
   29.5028   17.4152   -7.1022 C   0  0  0  0  0  0  0  0  0  0  0  0
   29.8587   18.3749   -6.1869 C   0  0  0  0  0  0  0  0  0  0  0  0
   28.8796   19.1559   -5.5683 O   0  0  0  0  0  0  0  0  0  0  0  0
   31.1916   18.5610   -5.8838 C   0  0  0  0  0  0  0  0  0  0  0  0
   32.1781   17.8065   -6.4770 C   0  0  0  0  0  0  0  0  0  0  0  0
   28.4470   18.8765   -4.7075 H   0  0  0  0  0  0  0  0  0  0  0  0
   40.9505   13.5925  -15.7933 C   0  0  0  0  0  0  0  0  0  0  0  0
   40.6621   14.4724  -16.7254 O   0  0  0  0  0  0  0  0  0  0  0  0
   42.3217   13.1543  -15.7761 C   0  0  0  0  0  0  0  0  0  0  0  0
   42.6478   12.2800  -16.8451 C   0  0  0  0  0  0  0  0  0  0  0  0
   41.6725   11.9489  -17.7752 O   0  0  0  0  0  0  0  0  0  0  0  0
   43.8912   11.7487  -16.9951 C   0  0  0  0  0  0  0  0  0  0  0  0
   44.8335   12.0956  -16.0586 C   0  0  0  0  0  0  0  0  0  0  0  0
   44.5493   12.9275  -15.0220 C   0  0  0  0  0  0  0  0  0  0  0  0
   43.2476   13.4881  -14.8512 C   0  0  0  0  0  0  0  0  0  0  0  0
   41.9163   11.3291  -18.5279 H   0  0  0  0  0  0  0  0  0  0  0  0
   42.9980   14.1720  -13.6024 C   0  0  0  0  0  0  0  0  0  0  0  0
   43.3087   15.4102  -13.5384 O   0  0  0  0  0  0  0  0  0  0  0  0
   42.4775   13.6531  -12.4704 O   0  0  0  0  0  0  0  0  0  0  0  0
   42.4986   14.0520  -11.5530 H   0  0  0  0  0  0  0  0  0  0  0  0
 20 21  2  0  0  0
 21 22  1  0  0  0
 22 15  1  0  0  0
 15 16  1  0  0  0
 16 17  1  0  0  0
 17 18  1  0  0  0
 18 19  1  0  0  0
 19 14  1  0  0  0
 14 13  1  0  0  0
 13 11  1  0  0  0
 11 12  2  0  0  0
 11  1  1  0  0  0
  1  2  2  0  0  0
  2  3  1  0  0  0
  3  4  1  0  0  0
  3  5  2  0  0  0
  5 32  1  0  0  0
 32 33  2  0  0  0
 32 34  1  0  0  0
 34 35  2  0  0  0
 35 36  1  0  0  0
 35 37  1  0  0  0
 37 38  2  0  0  0
 38 39  1  0  0  0
 39 40  2  0  0  0
 40 42  1  0  0  0
 42 43  2  0  0  0
 42 44  1  0  0  0
  5  6  1  0  0  0
  6  7  1  0  0  0
  6  8  2  0  0  0
 21 24  1  0  0  0
 24 25  2  0  0  0
 25 26  1  0  0  0
 26 27  2  0  0  0
 27 28  1  0  0  0
 27 29  1  0  0  0
 29 30  2  0  0  0
 19 15  1  0  0  0
  8  1  1  0  0  0
 30 24  1  0  0  0
 40 34  1  0  0  0
 22 23  1  0  0  0
  4  9  1  0  0  0
 36 41  1  0  0  0
 44 45  1  0  0  0
  7 10  1  0  0  0
 28 31  1  0  0  0
M  END
> <minimizedAffinity>
-9.21381

> <CNNscore>
0.2314470261

> <CNNaffinity>
5.3793892860

> <CNN_VS>
1.2450436354

> <CNNaffinity_variance>
0.1772056669

$$$$
[H]OC(=O)c1c([H])c([H])c([H])c(O[H])c1C(=O)c1c(O[H])c([H])c(C(=O)OC([H])([H])[C@]2([H])C([H])([H])C([H])([H])C([H])([H])[C@@]2([H])N([H])C(=O)c2c([H])c([H])c(O[H])c([H])c2[H])c([H])c1O[H]


 45 48  0  0  0  0  0  0  0  0999 V2000
   41.2449   12.9581  -15.7883 C   0  0  0  0  0  0  0  0  0  0  0  0
   42.4139   13.0000  -16.4875 C   0  0  0  0  0  0  0  0  0  0  0  0
   43.6184   13.3691  -15.8724 C   0  0  0  0  0  0  0  0  0  0  0  0
   44.7350   13.3706  -16.6721 O   0  0  0  0  0  0  0  0  0  0  0  0
   43.6758   13.7065  -14.5384 C   0  0  0  0  0  0  0  0  0  0  0  0
   42.4684   13.6617  -13.8272 C   0  0  0  0  0  0  0  0  0  0  0  0
   42.3986   13.9917  -12.4612 O   0  0  0  0  0  0  0  0  0  0  0  0
   41.3031   13.2945  -14.4573 C   0  0  0  0  0  0  0  0  0  0  0  0
   45.6729   13.5624  -16.4809 H   0  0  0  0  0  0  0  0  0  0  0  0
   41.5355   13.9525  -11.9792 H   0  0  0  0  0  0  0  0  0  0  0  0
   39.9661   12.5672  -16.4243 C   0  0  0  0  0  0  0  0  0  0  0  0
   39.9943   12.2586  -17.6227 O   0  0  0  0  0  0  0  0  0  0  0  0
   38.8406   12.5488  -15.7408 O   0  0  0  0  0  0  0  0  0  0  0  0
   37.7617   11.7989  -15.4562 C   0  0  0  0  0  0  0  0  0  0  0  0
   37.0670   13.7726  -14.2298 C   0  0  0  0  0  0  0  0  0  0  0  0
   35.7531   14.3771  -14.6620 C   0  0  0  0  0  0  0  0  0  0  0  0
   34.7233   13.3000  -14.6838 C   0  0  0  0  0  0  0  0  0  0  0  0
   35.4462   11.9736  -14.4918 C   0  0  0  0  0  0  0  0  0  0  0  0
   36.8664   12.2596  -14.3701 C   0  0  0  0  0  0  0  0  0  0  0  0
   39.0511   15.5571  -13.6579 O   0  0  0  0  0  0  0  0  0  0  0  0
   38.4450   15.0752  -12.6565 C   0  0  0  0  0  0  0  0  0  0  0  0
   37.4150   14.1514  -12.8743 N   0  0  0  0  0  0  0  0  0  0  0  0
   36.8984   13.7344  -12.0569 H   0  0  0  0  0  0  0  0  0  0  0  0
   38.8448   15.5016  -11.3437 C   0  0  0  0  0  0  0  0  0  0  0  0
   38.0112   15.3253  -10.2673 C   0  0  0  0  0  0  0  0  0  0  0  0
   38.3887   15.7377   -8.9870 C   0  0  0  0  0  0  0  0  0  0  0  0
   39.6144   16.3289   -8.8034 C   0  0  0  0  0  0  0  0  0  0  0  0
   40.0108   16.7480   -7.5312 O   0  0  0  0  0  0  0  0  0  0  0  0
   40.4507   16.5051   -9.8863 C   0  0  0  0  0  0  0  0  0  0  0  0
   40.0872   16.1020  -11.1511 C   0  0  0  0  0  0  0  0  0  0  0  0
   40.5082   16.1412   -6.9063 H   0  0  0  0  0  0  0  0  0  0  0  0
   44.8072   14.2467  -13.8581 C   0  0  0  0  0  0  0  0  0  0  0  0
   45.3815   13.3723  -13.0632 O   0  0  0  0  0  0  0  0  0  0  0  0
   45.4357   15.5416  -13.8906 C   0  0  0  0  0  0  0  0  0  0  0  0
   46.6676   15.5530  -14.5945 C   0  0  0  0  0  0  0  0  0  0  0  0
   47.1320   14.3801  -15.1728 O   0  0  0  0  0  0  0  0  0  0  0  0
   47.4184   16.6799  -14.7259 C   0  0  0  0  0  0  0  0  0  0  0  0
   46.9317   17.8237  -14.1426 C   0  0  0  0  0  0  0  0  0  0  0  0
   45.7571   17.8422  -13.4590 C   0  0  0  0  0  0  0  0  0  0  0  0
   44.9623   16.6657  -13.3105 C   0  0  0  0  0  0  0  0  0  0  0  0
   48.0057   14.4015  -15.6691 H   0  0  0  0  0  0  0  0  0  0  0  0
   43.8566   16.7465  -12.3830 C   0  0  0  0  0  0  0  0  0  0  0  0
   42.7312   17.1407  -12.8433 O   0  0  0  0  0  0  0  0  0  0  0  0
   43.8675   16.4620  -11.0637 O   0  0  0  0  0  0  0  0  0  0  0  0
   43.1798   16.7136  -10.3818 H   0  0  0  0  0  0  0  0  0  0  0  0
 20 21  2  0  0  0
 21 22  1  0  0  0
 22 15  1  0  0  0
 15 16  1  0  0  0
 16 17  1  0  0  0
 17 18  1  0  0  0
 18 19  1  0  0  0
 19 14  1  0  0  0
 14 13  1  0  0  0
 13 11  1  0  0  0
 11 12  2  0  0  0
 11  1  1  0  0  0
  1  2  2  0  0  0
  2  3  1  0  0  0
  3  4  1  0  0  0
  3  5  2  0  0  0
  5 32  1  0  0  0
 32 33  2  0  0  0
 32 34  1  0  0  0
 34 35  2  0  0  0
 35 36  1  0  0  0
 35 37  1  0  0  0
 37 38  2  0  0  0
 38 39  1  0  0  0
 39 40  2  0  0  0
 40 42  1  0  0  0
 42 43  2  0  0  0
 42 44  1  0  0  0
  5  6  1  0  0  0
  6  7  1  0  0  0
  6  8  2  0  0  0
 21 24  1  0  0  0
 24 25  2  0  0  0
 25 26  1  0  0  0
 26 27  2  0  0  0
 27 28  1  0  0  0
 27 29  1  0  0  0
 29 30  2  0  0  0
 19 15  1  0  0  0
  8  1  1  0  0  0
 30 24  1  0  0  0
 40 34  1  0  0  0
 22 23  1  0  0  0
  4  9  1  0  0  0
 36 41  1  0  0  0
 44 45  1  0  0  0
  7 10  1  0  0  0
 28 31  1  0  0  0
M  END
> <minimizedAffinity>
-8.68400

> <CNNscore>
0.2190927863

> <CNNaffinity>
6.0451846123

> <CNN_VS>
1.3244563341

> <CNNaffinity_variance>
0.0624823347

$$$$
[H]OC(=O)c1c([H])c([H])c([H])c(O[H])c1C(=O)c1c(O[H])c([H])c(C(=O)OC([H])([H])[C@]2([H])C([H])([H])C([H])([H])C([H])([H])[C@@]2([H])N([H])C(=O)c2c([H])c([H])c(O[H])c([H])c2[H])c([H])c1O[H]


 45 48  0  0  0  0  0  0  0  0999 V2000
   35.6762   15.7277   -9.1285 C   0  0  0  0  0  0  0  0  0  0  0  0
   35.5990   14.9695   -7.9988 C   0  0  0  0  0  0  0  0  0  0  0  0
   34.3647   14.6650   -7.4082 C   0  0  0  0  0  0  0  0  0  0  0  0
   34.4064   13.8887   -6.2760 O   0  0  0  0  0  0  0  0  0  0  0  0
   33.1772   15.1171   -7.9394 C   0  0  0  0  0  0  0  0  0  0  0  0
   33.2661   15.8972   -9.1010 C   0  0  0  0  0  0  0  0  0  0  0  0
   32.1234   16.4225   -9.7318 O   0  0  0  0  0  0  0  0  0  0  0  0
   34.4910   16.1782   -9.6583 C   0  0  0  0  0  0  0  0  0  0  0  0
   33.6999   13.5284   -5.7066 H   0  0  0  0  0  0  0  0  0  0  0  0
   32.2099   16.9701  -10.5512 H   0  0  0  0  0  0  0  0  0  0  0  0
   36.9727   16.0546   -9.7647 C   0  0  0  0  0  0  0  0  0  0  0  0
   37.6091   17.0125   -9.3068 O   0  0  0  0  0  0  0  0  0  0  0  0
   37.4318   15.3529  -10.7802 O   0  0  0  0  0  0  0  0  0  0  0  0
   37.7535   15.4223  -12.0837 C   0  0  0  0  0  0  0  0  0  0  0  0
   37.0634   13.2882  -13.0065 C   0  0  0  0  0  0  0  0  0  0  0  0
   35.7855   12.7182  -12.4402 C   0  0  0  0  0  0  0  0  0  0  0  0
   34.7282   13.7660  -12.5153 C   0  0  0  0  0  0  0  0  0  0  0  0
   35.4060   15.0704  -12.9128 C   0  0  0  0  0  0  0  0  0  0  0  0
   36.8273   14.8017  -13.0586 C   0  0  0  0  0  0  0  0  0  0  0  0
   39.5790   13.2931  -14.0647 O   0  0  0  0  0  0  0  0  0  0  0  0
   38.6816   12.7760  -14.7925 C   0  0  0  0  0  0  0  0  0  0  0  0
   37.3657   12.7399  -14.3141 N   0  0  0  0  0  0  0  0  0  0  0  0
   36.6014   12.3176  -14.9028 H   0  0  0  0  0  0  0  0  0  0  0  0
   39.0591   12.2505  -16.0757 C   0  0  0  0  0  0  0  0  0  0  0  0
   38.1964   11.4529  -16.7857 C   0  0  0  0  0  0  0  0  0  0  0  0
   38.5535   10.9350  -18.0332 C   0  0  0  0  0  0  0  0  0  0  0  0
   39.7882   11.2297  -18.5568 C   0  0  0  0  0  0  0  0  0  0  0  0
   40.1644   10.7221  -19.8027 O   0  0  0  0  0  0  0  0  0  0  0  0
   40.6536   12.0315  -17.8418 C   0  0  0  0  0  0  0  0  0  0  0  0
   40.3104   12.5460  -16.6122 C   0  0  0  0  0  0  0  0  0  0  0  0
   39.9807   11.2205  -20.6535 H   0  0  0  0  0  0  0  0  0  0  0  0
   31.8904   15.0020   -7.3348 C   0  0  0  0  0  0  0  0  0  0  0  0
   31.5480   16.0825   -6.6703 O   0  0  0  0  0  0  0  0  0  0  0  0
   30.9080   13.9496   -7.3293 C   0  0  0  0  0  0  0  0  0  0  0  0
   31.0011   13.0972   -6.1988 C   0  0  0  0  0  0  0  0  0  0  0  0
   31.9714   13.3444   -5.2379 O   0  0  0  0  0  0  0  0  0  0  0  0
   30.1680   12.0368   -6.0183 C   0  0  0  0  0  0  0  0  0  0  0  0
   29.2190   11.8190   -6.9865 C   0  0  0  0  0  0  0  0  0  0  0  0
   29.1086   12.6162   -8.0818 C   0  0  0  0  0  0  0  0  0  0  0  0
   29.9792   13.7292   -8.2848 C   0  0  0  0  0  0  0  0  0  0  0  0
   32.0266   12.7337   -4.4417 H   0  0  0  0  0  0  0  0  0  0  0  0
   29.9201   14.3671   -9.5805 C   0  0  0  0  0  0  0  0  0  0  0  0
   30.7197   13.9409  -10.4822 O   0  0  0  0  0  0  0  0  0  0  0  0
   29.1176   15.3833   -9.9610 O   0  0  0  0  0  0  0  0  0  0  0  0
   29.2140   15.9640  -10.7701 H   0  0  0  0  0  0  0  0  0  0  0  0
 20 21  2  0  0  0
 21 22  1  0  0  0
 22 15  1  0  0  0
 15 16  1  0  0  0
 16 17  1  0  0  0
 17 18  1  0  0  0
 18 19  1  0  0  0
 19 14  1  0  0  0
 14 13  1  0  0  0
 13 11  1  0  0  0
 11 12  2  0  0  0
 11  1  1  0  0  0
  1  2  2  0  0  0
  2  3  1  0  0  0
  3  4  1  0  0  0
  3  5  2  0  0  0
  5 32  1  0  0  0
 32 33  2  0  0  0
 32 34  1  0  0  0
 34 35  2  0  0  0
 35 36  1  0  0  0
 35 37  1  0  0  0
 37 38  2  0  0  0
 38 39  1  0  0  0
 39 40  2  0  0  0
 40 42  1  0  0  0
 42 43  2  0  0  0
 42 44  1  0  0  0
  5  6  1  0  0  0
  6  7  1  0  0  0
  6  8  2  0  0  0
 21 24  1  0  0  0
 24 25  2  0  0  0
 25 26  1  0  0  0
 26 27  2  0  0  0
 27 28  1  0  0  0
 27 29  1  0  0  0
 29 30  2  0  0  0
 19 15  1  0  0  0
  8  1  1  0  0  0
 30 24  1  0  0  0
 40 34  1  0  0  0
 22 23  1  0  0  0
  4  9  1  0  0  0
 36 41  1  0  0  0
 44 45  1  0  0  0
  7 10  1  0  0  0
 28 31  1  0  0  0
M  END
> <minimizedAffinity>
-9.56228

> <CNNscore>
0.2064609528

> <CNNaffinity>
6.0899090767

> <CNN_VS>
1.2573283911

> <CNNaffinity_variance>
0.0693180114

$$$$
[H]OC(=O)c1c([H])c([H])c([H])c(O[H])c1C(=O)c1c(O[H])c([H])c(C(=O)OC([H])([H])[C@]2([H])C([H])([H])C([H])([H])C([H])([H])[C@@]2([H])N([H])C(=O)c2c([H])c([H])c(O[H])c([H])c2[H])c([H])c1O[H]


 45 48  0  0  0  0  0  0  0  0999 V2000
   36.1767   16.7097   -9.4081 C   0  0  0  0  0  0  0  0  0  0  0  0
   35.8437   16.9592   -8.1105 C   0  0  0  0  0  0  0  0  0  0  0  0
   34.5632   16.6711   -7.6181 C   0  0  0  0  0  0  0  0  0  0  0  0
   34.3413   16.9584   -6.2935 O   0  0  0  0  0  0  0  0  0  0  0  0
   33.5854   16.1258   -8.4202 C   0  0  0  0  0  0  0  0  0  0  0  0
   33.9364   15.8734   -9.7539 C   0  0  0  0  0  0  0  0  0  0  0  0
   33.0214   15.3251  -10.6714 O   0  0  0  0  0  0  0  0  0  0  0  0
   35.2008   16.1652  -10.2077 C   0  0  0  0  0  0  0  0  0  0  0  0
   33.5605   16.8317   -5.7214 H   0  0  0  0  0  0  0  0  0  0  0  0
   33.2912   15.1549  -11.6079 H   0  0  0  0  0  0  0  0  0  0  0  0
   37.5261   17.0061   -9.9409 C   0  0  0  0  0  0  0  0  0  0  0  0
   37.6349   17.9568  -10.7259 O   0  0  0  0  0  0  0  0  0  0  0  0
   38.5717   16.2849   -9.5929 O   0  0  0  0  0  0  0  0  0  0  0  0
   39.5598   16.1818   -8.6871 C   0  0  0  0  0  0  0  0  0  0  0  0
   41.4832   15.9670  -10.1488 C   0  0  0  0  0  0  0  0  0  0  0  0
   42.8098   16.3473   -9.5371 C   0  0  0  0  0  0  0  0  0  0  0  0
   42.9610   15.6159   -8.2473 C   0  0  0  0  0  0  0  0  0  0  0  0
   41.6237   14.9573   -7.9368 C   0  0  0  0  0  0  0  0  0  0  0  0
   40.7045   15.2993   -9.0099 C   0  0  0  0  0  0  0  0  0  0  0  0
   40.5175   16.5599  -12.6315 O   0  0  0  0  0  0  0  0  0  0  0  0
   41.1257   15.4542  -12.5321 C   0  0  0  0  0  0  0  0  0  0  0  0
   41.6473   15.0832  -11.2862 N   0  0  0  0  0  0  0  0  0  0  0  0
   42.1544   14.1666  -11.1781 H   0  0  0  0  0  0  0  0  0  0  0  0
   41.2507   14.6335  -13.7051 C   0  0  0  0  0  0  0  0  0  0  0  0
   40.1995   14.4958  -14.5772 C   0  0  0  0  0  0  0  0  0  0  0  0
   40.3091   13.6991  -15.7196 C   0  0  0  0  0  0  0  0  0  0  0  0
   41.4887   13.0436  -15.9734 C   0  0  0  0  0  0  0  0  0  0  0  0
   41.6188   12.2424  -17.1103 O   0  0  0  0  0  0  0  0  0  0  0  0
   42.5439   13.1833  -15.0958 C   0  0  0  0  0  0  0  0  0  0  0  0
   42.4450   13.9660  -13.9680 C   0  0  0  0  0  0  0  0  0  0  0  0
   41.9470   12.6129  -17.9828 H   0  0  0  0  0  0  0  0  0  0  0  0
   32.2153   15.9450   -8.0668 C   0  0  0  0  0  0  0  0  0  0  0  0
   31.5493   17.0772   -8.0380 O   0  0  0  0  0  0  0  0  0  0  0  0
   31.4362   14.7747   -7.7571 C   0  0  0  0  0  0  0  0  0  0  0  0
   30.3793   14.5417   -8.6748 C   0  0  0  0  0  0  0  0  0  0  0  0
   30.2031   15.4083   -9.7443 O   0  0  0  0  0  0  0  0  0  0  0  0
   29.5239   13.4917   -8.5458 C   0  0  0  0  0  0  0  0  0  0  0  0
   29.7247   12.6528   -7.4775 C   0  0  0  0  0  0  0  0  0  0  0  0
   30.7260   12.8529   -6.5804 C   0  0  0  0  0  0  0  0  0  0  0  0
   31.6274   13.9532   -6.7022 C   0  0  0  0  0  0  0  0  0  0  0  0
   29.4512   15.2321  -10.3874 H   0  0  0  0  0  0  0  0  0  0  0  0
   32.5046   14.1964   -5.5794 C   0  0  0  0  0  0  0  0  0  0  0  0
   33.4671   13.3752   -5.3972 O   0  0  0  0  0  0  0  0  0  0  0  0
   32.4261   15.1960   -4.6760 O   0  0  0  0  0  0  0  0  0  0  0  0
   32.8871   15.2521   -3.7896 H   0  0  0  0  0  0  0  0  0  0  0  0
 20 21  2  0  0  0
 21 22  1  0  0  0
 22 15  1  0  0  0
 15 16  1  0  0  0
 16 17  1  0  0  0
 17 18  1  0  0  0
 18 19  1  0  0  0
 19 14  1  0  0  0
 14 13  1  0  0  0
 13 11  1  0  0  0
 11 12  2  0  0  0
 11  1  1  0  0  0
  1  2  2  0  0  0
  2  3  1  0  0  0
  3  4  1  0  0  0
  3  5  2  0  0  0
  5 32  1  0  0  0
 32 33  2  0  0  0
 32 34  1  0  0  0
 34 35  2  0  0  0
 35 36  1  0  0  0
 35 37  1  0  0  0
 37 38  2  0  0  0
 38 39  1  0  0  0
 39 40  2  0  0  0
 40 42  1  0  0  0
 42 43  2  0  0  0
 42 44  1  0  0  0
  5  6  1  0  0  0
  6  7  1  0  0  0
  6  8  2  0  0  0
 21 24  1  0  0  0
 24 25  2  0  0  0
 25 26  1  0  0  0
 26 27  2  0  0  0
 27 28  1  0  0  0
 27 29  1  0  0  0
 29 30  2  0  0  0
 19 15  1  0  0  0
  8  1  1  0  0  0
 30 24  1  0  0  0
 40 34  1  0  0  0
 22 23  1  0  0  0
  4  9  1  0  0  0
 36 41  1  0  0  0
 44 45  1  0  0  0
  7 10  1  0  0  0
 28 31  1  0  0  0
M  END
> <minimizedAffinity>
-8.97348

> <CNNscore>
0.1972162873

> <CNNaffinity>
5.3843894005

> <CNN_VS>
1.0618892908

> <CNNaffinity_variance>
0.1154565811

$$$$
[H]OC(=O)C([H])([H])C([H])([H])c1c2c(n([H])c1C([H])=C1C(=O)N([H])c3c([H])c([H])c(S(=O)(=O)N([H])C([H])([H])[H])c([H])c31)C([H])([H])C([H])([H])C([H])([H])C2=O


 35 38  0  0  0  0  0  0  0  0999 V2000
   35.8900   11.8378  -15.6963 C   0  0  0  0  0  0  0  0  0  0  0  0
   35.4939   11.1642  -16.8318 C   0  0  0  0  0  0  0  0  0  0  0  0
   36.3982   10.8134  -17.8043 C   0  0  0  0  0  0  0  0  0  0  0  0
   37.7593   11.1225  -17.6873 C   0  0  0  0  0  0  0  0  0  0  0  0
   38.1607   11.7950  -16.5558 C   0  0  0  0  0  0  0  0  0  0  0  0
   37.2154   12.1355  -15.5892 C   0  0  0  0  0  0  0  0  0  0  0  0
   39.6181   12.0373  -16.5883 C   0  0  0  0  0  0  0  0  0  0  0  0
   40.3211   12.6273  -15.6561 C   0  0  0  0  0  0  0  0  0  0  0  0
   40.0261   11.4392  -17.8497 C   0  0  0  0  0  0  0  0  0  0  0  0
   41.1897   11.3910  -18.3246 O   0  0  0  0  0  0  0  0  0  0  0  0
   38.8778   10.8819  -18.5153 N   0  0  0  0  0  0  0  0  0  0  0  0
   38.8514   10.3922  -19.4288 H   0  0  0  0  0  0  0  0  0  0  0  0
   41.7481   12.8812  -15.6635 C   0  0  0  0  0  0  0  0  0  0  0  0
   42.7356   12.5258  -16.4828 N   0  0  0  0  0  0  0  0  0  0  0  0
   43.9232   12.9920  -16.0506 C   0  0  0  0  0  0  0  0  0  0  0  0
   43.7119   13.6943  -14.8835 C   0  0  0  0  0  0  0  0  0  0  0  0
   42.3572   13.6235  -14.6458 C   0  0  0  0  0  0  0  0  0  0  0  0
   44.8601   14.2948  -14.2284 C   0  0  0  0  0  0  0  0  0  0  0  0
   44.6629   15.3232  -13.5364 O   0  0  0  0  0  0  0  0  0  0  0  0
   46.2357   13.7360  -14.3520 C   0  0  0  0  0  0  0  0  0  0  0  0
   46.1809   12.5420  -15.3149 C   0  0  0  0  0  0  0  0  0  0  0  0
   45.3344   12.9153  -16.5383 C   0  0  0  0  0  0  0  0  0  0  0  0
   42.6497   11.9848  -17.3481 H   0  0  0  0  0  0  0  0  0  0  0  0
   41.6979   14.2457  -13.4976 C   0  0  0  0  0  0  0  0  0  0  0  0
   40.3919   14.9305  -13.8322 C   0  0  0  0  0  0  0  0  0  0  0  0
   39.9673   15.6723  -12.6258 C   0  0  0  0  0  0  0  0  0  0  0  0
   40.3813   16.8246  -12.3979 O   0  0  0  0  0  0  0  0  0  0  0  0
   39.0961   15.0783  -11.7350 O   0  0  0  0  0  0  0  0  0  0  0  0
   39.2833   14.2055  -11.2595 H   0  0  0  0  0  0  0  0  0  0  0  0
   34.7699   12.2882  -14.4423 S   0  0  0  0  0  0  0  0  0  0  0  0
   33.5397   11.4430  -14.6200 O   0  0  0  0  0  0  0  0  0  0  0  0
   34.3717   13.7160  -14.5608 O   0  0  0  0  0  0  0  0  0  0  0  0
   35.9171   13.1961  -12.2553 C   0  0  0  0  0  0  0  0  0  0  0  0
   35.3767   11.9947  -12.8638 N   0  0  0  0  0  0  0  0  0  0  0  0
   36.0006   11.1879  -12.7952 H   0  0  0  0  0  0  0  0  0  0  0  0
 33 34  1  0  0  0
 34 30  1  0  0  0
 30 31  2  0  0  0
 30 32  2  0  0  0
 30  1  1  0  0  0
  1  2  2  0  0  0
  2  3  1  0  0  0
  3  4  2  0  0  0
  4  5  1  0  0  0
  5  6  2  0  0  0
  5  7  1  0  0  0
  7  8  2  0  0  0
  8 13  1  0  0  0
 13 14  1  0  0  0
 14 15  1  0  0  0
 15 16  2  0  0  0
 16 17  1  0  0  0
 17 24  1  0  0  0
 24 25  1  0  0  0
 25 26  1  0  0  0
 26 27  2  0  0  0
 26 28  1  0  0  0
 16 18  1  0  0  0
 18 19  2  0  0  0
 18 20  1  0  0  0
 20 21  1  0  0  0
 21 22  1  0  0  0
  7  9  1  0  0  0
  9 10  2  0  0  0
  9 11  1  0  0  0
  6  1  1  0  0  0
 17 13  2  0  0  0
 11  4  1  0  0  0
 22 15  1  0  0  0
 34 35  1  0  0  0
 14 23  1  0  0  0
 28 29  1  0  0  0
 11 12  1  0  0  0
M  END
> <minimizedAffinity>
-10.10706

> <CNNscore>
0.8544090986

> <CNNaffinity>
7.2460737228

> <CNN_VS>
6.1911110878

> <CNNaffinity_variance>
0.1014586240

$$$$
[H]OC(=O)C([H])([H])C([H])([H])c1c2c(n([H])c1C([H])=C1C(=O)N([H])c3c([H])c([H])c(S(=O)(=O)N([H])C([H])([H])[H])c([H])c31)C([H])([H])C([H])([H])C([H])([H])C2=O


 35 38  0  0  0  0  0  0  0  0999 V2000
   43.7525   14.4061  -13.9695 C   0  0  0  0  0  0  0  0  0  0  0  0
   44.6606   14.1099  -14.9633 C   0  0  0  0  0  0  0  0  0  0  0  0
   44.2881   13.4056  -16.0822 C   0  0  0  0  0  0  0  0  0  0  0  0
   42.9735   12.9579  -16.2643 C   0  0  0  0  0  0  0  0  0  0  0  0
   42.0624   13.2507  -15.2753 C   0  0  0  0  0  0  0  0  0  0  0  0
   42.4756   13.9673  -14.1530 C   0  0  0  0  0  0  0  0  0  0  0  0
   40.7307   12.7135  -15.6241 C   0  0  0  0  0  0  0  0  0  0  0  0
   39.6396   12.8402  -14.9135 C   0  0  0  0  0  0  0  0  0  0  0  0
   40.9555   12.0797  -16.9137 C   0  0  0  0  0  0  0  0  0  0  0  0
   40.1069   11.4794  -17.6216 O   0  0  0  0  0  0  0  0  0  0  0  0
   42.3347   12.2354  -17.2960 N   0  0  0  0  0  0  0  0  0  0  0  0
   42.7950   11.8917  -18.1590 H   0  0  0  0  0  0  0  0  0  0  0  0
   38.3235   12.3213  -15.2290 C   0  0  0  0  0  0  0  0  0  0  0  0
   37.8522   11.5640  -16.2175 N   0  0  0  0  0  0  0  0  0  0  0  0
   36.5264   11.3622  -16.0915 C   0  0  0  0  0  0  0  0  0  0  0  0
   36.0959   12.0198  -14.9590 C   0  0  0  0  0  0  0  0  0  0  0  0
   37.2170   12.6152  -14.4248 C   0  0  0  0  0  0  0  0  0  0  0  0
   34.6869   11.9434  -14.6169 C   0  0  0  0  0  0  0  0  0  0  0  0
   34.3765   12.0428  -13.4049 O   0  0  0  0  0  0  0  0  0  0  0  0
   33.6228   11.7546  -15.6424 C   0  0  0  0  0  0  0  0  0  0  0  0
   34.3015   11.5849  -17.0087 C   0  0  0  0  0  0  0  0  0  0  0  0
   35.4870   10.6216  -16.8700 C   0  0  0  0  0  0  0  0  0  0  0  0
   38.3912   11.1521  -16.9848 H   0  0  0  0  0  0  0  0  0  0  0  0
   37.2085   13.4185  -13.2021 C   0  0  0  0  0  0  0  0  0  0  0  0
   36.8970   14.8810  -13.4266 C   0  0  0  0  0  0  0  0  0  0  0  0
   36.0849   15.3350  -12.2775 C   0  0  0  0  0  0  0  0  0  0  0  0
   36.2366   16.4705  -11.7888 O   0  0  0  0  0  0  0  0  0  0  0  0
   35.1411   14.4861  -11.7354 O   0  0  0  0  0  0  0  0  0  0  0  0
   35.3546   13.5728  -11.3571 H   0  0  0  0  0  0  0  0  0  0  0  0
   44.1916   15.3042  -12.5445 S   0  0  0  0  0  0  0  0  0  0  0  0
   43.5465   16.6573  -12.6549 O   0  0  0  0  0  0  0  0  0  0  0  0
   45.6634   15.4984  -12.4604 O   0  0  0  0  0  0  0  0  0  0  0  0
   44.1275   13.2255  -10.9324 C   0  0  0  0  0  0  0  0  0  0  0  0
   43.6285   14.5785  -11.0945 N   0  0  0  0  0  0  0  0  0  0  0  0
   42.6207   14.6611  -10.9454 H   0  0  0  0  0  0  0  0  0  0  0  0
 33 34  1  0  0  0
 34 30  1  0  0  0
 30 31  2  0  0  0
 30 32  2  0  0  0
 30  1  1  0  0  0
  1  2  2  0  0  0
  2  3  1  0  0  0
  3  4  2  0  0  0
  4  5  1  0  0  0
  5  6  2  0  0  0
  5  7  1  0  0  0
  7  8  2  0  0  0
  8 13  1  0  0  0
 13 14  1  0  0  0
 14 15  1  0  0  0
 15 16  2  0  0  0
 16 17  1  0  0  0
 17 24  1  0  0  0
 24 25  1  0  0  0
 25 26  1  0  0  0
 26 27  2  0  0  0
 26 28  1  0  0  0
 16 18  1  0  0  0
 18 19  2  0  0  0
 18 20  1  0  0  0
 20 21  1  0  0  0
 21 22  1  0  0  0
  7  9  1  0  0  0
  9 10  2  0  0  0
  9 11  1  0  0  0
  6  1  1  0  0  0
 17 13  2  0  0  0
 11  4  1  0  0  0
 22 15  1  0  0  0
 34 35  1  0  0  0
 14 23  1  0  0  0
 28 29  1  0  0  0
 11 12  1  0  0  0
M  END
> <minimizedAffinity>
-8.61084

> <CNNscore>
0.6275746822

> <CNNaffinity>
6.9930319786

> <CNN_VS>
4.3886499405

> <CNNaffinity_variance>
0.0689338446

$$$$
[H]OC(=O)C([H])([H])C([H])([H])c1c2c(n([H])c1C([H])=C1C(=O)N([H])c3c([H])c([H])c(S(=O)(=O)N([H])C([H])([H])[H])c([H])c31)C([H])([H])C([H])([H])C([H])([H])C2=O


 35 38  0  0  0  0  0  0  0  0999 V2000
   35.8406   11.9653  -15.5199 C   0  0  0  0  0  0  0  0  0  0  0  0
   35.8042   11.3362  -16.7459 C   0  0  0  0  0  0  0  0  0  0  0  0
   36.9416   11.1778  -17.4997 C   0  0  0  0  0  0  0  0  0  0  0  0
   38.1858   11.6461  -17.0589 C   0  0  0  0  0  0  0  0  0  0  0  0
   38.2283   12.2751  -15.8356 C   0  0  0  0  0  0  0  0  0  0  0  0
   37.0542   12.4185  -15.0975 C   0  0  0  0  0  0  0  0  0  0  0  0
   39.6080   12.7008  -15.5212 C   0  0  0  0  0  0  0  0  0  0  0  0
   39.9972   13.3016  -14.4261 C   0  0  0  0  0  0  0  0  0  0  0  0
   40.3650   12.2575  -16.6812 C   0  0  0  0  0  0  0  0  0  0  0  0
   41.5998   12.3930  -16.8777 O   0  0  0  0  0  0  0  0  0  0  0  0
   39.4823   11.6126  -17.6179 N   0  0  0  0  0  0  0  0  0  0  0  0
   39.7278   11.1951  -18.5346 H   0  0  0  0  0  0  0  0  0  0  0  0
   41.3404   13.7331  -14.0937 C   0  0  0  0  0  0  0  0  0  0  0  0
   42.5458   13.2030  -14.2902 N   0  0  0  0  0  0  0  0  0  0  0  0
   43.5145   13.9808  -13.7695 C   0  0  0  0  0  0  0  0  0  0  0  0
   42.9200   15.0855  -13.1982 C   0  0  0  0  0  0  0  0  0  0  0  0
   41.5671   14.9280  -13.4021 C   0  0  0  0  0  0  0  0  0  0  0  0
   43.7760   16.0746  -12.5681 C   0  0  0  0  0  0  0  0  0  0  0  0
   43.3679   17.2611  -12.5361 O   0  0  0  0  0  0  0  0  0  0  0  0
   45.0963   15.7276  -11.9714 C   0  0  0  0  0  0  0  0  0  0  0  0
   45.3606   14.2380  -12.2311 C   0  0  0  0  0  0  0  0  0  0  0  0
   45.0053   13.9058  -13.6857 C   0  0  0  0  0  0  0  0  0  0  0  0
   42.7592   12.3303  -14.7819 H   0  0  0  0  0  0  0  0  0  0  0  0
   40.5584   15.8876  -12.9525 C   0  0  0  0  0  0  0  0  0  0  0  0
   40.2437   15.8059  -11.4758 C   0  0  0  0  0  0  0  0  0  0  0  0
   38.7785   15.6532  -11.3502 C   0  0  0  0  0  0  0  0  0  0  0  0
   38.0519   16.6208  -11.0555 O   0  0  0  0  0  0  0  0  0  0  0  0
   38.2040   14.4163  -11.5632 O   0  0  0  0  0  0  0  0  0  0  0  0
   38.4403   13.5860  -11.0362 H   0  0  0  0  0  0  0  0  0  0  0  0
   34.4188   12.1733  -14.5376 S   0  0  0  0  0  0  0  0  0  0  0  0
   34.8109   11.8730  -13.1180 O   0  0  0  0  0  0  0  0  0  0  0  0
   33.3454   11.2231  -14.9324 O   0  0  0  0  0  0  0  0  0  0  0  0
   33.4910   14.2726  -13.2507 C   0  0  0  0  0  0  0  0  0  0  0  0
   33.8047   13.7757  -14.5776 N   0  0  0  0  0  0  0  0  0  0  0  0
   33.0536   13.9226  -15.2551 H   0  0  0  0  0  0  0  0  0  0  0  0
 33 34  1  0  0  0
 34 30  1  0  0  0
 30 31  2  0  0  0
 30 32  2  0  0  0
 30  1  1  0  0  0
  1  2  2  0  0  0
  2  3  1  0  0  0
  3  4  2  0  0  0
  4  5  1  0  0  0
  5  6  2  0  0  0
  5  7  1  0  0  0
  7  8  2  0  0  0
  8 13  1  0  0  0
 13 14  1  0  0  0
 14 15  1  0  0  0
 15 16  2  0  0  0
 16 17  1  0  0  0
 17 24  1  0  0  0
 24 25  1  0  0  0
 25 26  1  0  0  0
 26 27  2  0  0  0
 26 28  1  0  0  0
 16 18  1  0  0  0
 18 19  2  0  0  0
 18 20  1  0  0  0
 20 21  1  0  0  0
 21 22  1  0  0  0
  7  9  1  0  0  0
  9 10  2  0  0  0
  9 11  1  0  0  0
  6  1  1  0  0  0
 17 13  2  0  0  0
 11  4  1  0  0  0
 22 15  1  0  0  0
 34 35  1  0  0  0
 14 23  1  0  0  0
 28 29  1  0  0  0
 11 12  1  0  0  0
M  END
> <minimizedAffinity>
-8.90982

> <CNNscore>
0.5086302161

> <CNNaffinity>
6.9014329910

> <CNN_VS>
3.5102772713

> <CNNaffinity_variance>
0.1602936089

$$$$
[H]OC(=O)C([H])([H])C([H])([H])c1c2c(n([H])c1C([H])=C1C(=O)N([H])c3c([H])c([H])c(S(=O)(=O)N([H])C([H])([H])[H])c([H])c31)C([H])([H])C([H])([H])C([H])([H])C2=O


 35 38  0  0  0  0  0  0  0  0999 V2000
   37.0930   12.7823  -14.3824 C   0  0  0  0  0  0  0  0  0  0  0  0
   36.5734   12.1581  -15.4962 C   0  0  0  0  0  0  0  0  0  0  0  0
   37.3795   11.7792  -16.5419 C   0  0  0  0  0  0  0  0  0  0  0  0
   38.7611   12.0083  -16.5246 C   0  0  0  0  0  0  0  0  0  0  0  0
   39.2855   12.6312  -15.4151 C   0  0  0  0  0  0  0  0  0  0  0  0
   38.4377   13.0023  -14.3724 C   0  0  0  0  0  0  0  0  0  0  0  0
   40.7478   12.7916  -15.5554 C   0  0  0  0  0  0  0  0  0  0  0  0
   41.5525   13.3197  -14.6694 C   0  0  0  0  0  0  0  0  0  0  0  0
   41.0236   12.2004  -16.8554 C   0  0  0  0  0  0  0  0  0  0  0  0
   42.1430   12.0977  -17.4194 O   0  0  0  0  0  0  0  0  0  0  0  0
   39.7977   11.7240  -17.4406 N   0  0  0  0  0  0  0  0  0  0  0  0
   39.6737   11.2577  -18.3582 H   0  0  0  0  0  0  0  0  0  0  0  0
   42.9872   13.4928  -14.7822 C   0  0  0  0  0  0  0  0  0  0  0  0
   43.9213   12.9158  -15.5354 N   0  0  0  0  0  0  0  0  0  0  0  0
   45.1455   13.4049  -15.2588 C   0  0  0  0  0  0  0  0  0  0  0  0
   45.0163   14.3571  -14.2706 C   0  0  0  0  0  0  0  0  0  0  0  0
   43.6718   14.4093  -13.9767 C   0  0  0  0  0  0  0  0  0  0  0  0
   46.2169   15.0281  -13.8052 C   0  0  0  0  0  0  0  0  0  0  0  0
   46.0942   16.1924  -13.3529 O   0  0  0  0  0  0  0  0  0  0  0  0
   47.5609   14.3867  -13.8487 C   0  0  0  0  0  0  0  0  0  0  0  0
   47.4130   13.0140  -14.5195 C   0  0  0  0  0  0  0  0  0  0  0  0
   46.5290   13.1509  -15.7654 C   0  0  0  0  0  0  0  0  0  0  0  0
   43.7741   12.2024  -16.2552 H   0  0  0  0  0  0  0  0  0  0  0  0
   43.0913   15.3021  -12.9736 C   0  0  0  0  0  0  0  0  0  0  0  0
   43.0518   14.7203  -11.5784 C   0  0  0  0  0  0  0  0  0  0  0  0
   44.0835   15.4212  -10.7846 C   0  0  0  0  0  0  0  0  0  0  0  0
   44.7704   14.8151   -9.9408 O   0  0  0  0  0  0  0  0  0  0  0  0
   44.2905   16.7716  -10.9811 O   0  0  0  0  0  0  0  0  0  0  0  0
   43.5736   17.4754  -10.8637 H   0  0  0  0  0  0  0  0  0  0  0  0
   36.0992   13.2663  -13.0378 S   0  0  0  0  0  0  0  0  0  0  0  0
   36.9943   13.9616  -12.0506 O   0  0  0  0  0  0  0  0  0  0  0  0
   35.4923   12.0886  -12.3629 O   0  0  0  0  0  0  0  0  0  0  0  0
   33.5625   13.7279  -13.5628 C   0  0  0  0  0  0  0  0  0  0  0  0
   34.8615   14.3696  -13.4816 N   0  0  0  0  0  0  0  0  0  0  0  0
   35.0824   14.9457  -14.2965 H   0  0  0  0  0  0  0  0  0  0  0  0
 33 34  1  0  0  0
 34 30  1  0  0  0
 30 31  2  0  0  0
 30 32  2  0  0  0
 30  1  1  0  0  0
  1  2  2  0  0  0
  2  3  1  0  0  0
  3  4  2  0  0  0
  4  5  1  0  0  0
  5  6  2  0  0  0
  5  7  1  0  0  0
  7  8  2  0  0  0
  8 13  1  0  0  0
 13 14  1  0  0  0
 14 15  1  0  0  0
 15 16  2  0  0  0
 16 17  1  0  0  0
 17 24  1  0  0  0
 24 25  1  0  0  0
 25 26  1  0  0  0
 26 27  2  0  0  0
 26 28  1  0  0  0
 16 18  1  0  0  0
 18 19  2  0  0  0
 18 20  1  0  0  0
 20 21  1  0  0  0
 21 22  1  0  0  0
  7  9  1  0  0  0
  9 10  2  0  0  0
  9 11  1  0  0  0
  6  1  1  0  0  0
 17 13  2  0  0  0
 11  4  1  0  0  0
 22 15  1  0  0  0
 34 35  1  0  0  0
 14 23  1  0  0  0
 28 29  1  0  0  0
 11 12  1  0  0  0
M  END
> <minimizedAffinity>
-7.72530

> <CNNscore>
0.4500361085

> <CNNaffinity>
6.6183433533

> <CNN_VS>
2.9784934521

> <CNNaffinity_variance>
0.3330669999

$$$$
[H]OC(=O)C([H])([H])C([H])([H])c1c2c(n([H])c1C([H])=C1C(=O)N([H])c3c([H])c([H])c(S(=O)(=O)N([H])C([H])([H])[H])c([H])c31)C([H])([H])C([H])([H])C([H])([H])C2=O


 35 38  0  0  0  0  0  0  0  0999 V2000
   35.8608   10.9302  -16.8321 C   0  0  0  0  0  0  0  0  0  0  0  0
   36.5300   10.3619  -17.8947 C   0  0  0  0  0  0  0  0  0  0  0  0
   37.8661   10.6012  -18.1058 C   0  0  0  0  0  0  0  0  0  0  0  0
   38.6071   11.4302  -17.2541 C   0  0  0  0  0  0  0  0  0  0  0  0
   37.9442   12.0004  -16.1914 C   0  0  0  0  0  0  0  0  0  0  0  0
   36.5878   11.7357  -16.0078 C   0  0  0  0  0  0  0  0  0  0  0  0
   38.8668   12.8366  -15.3955 C   0  0  0  0  0  0  0  0  0  0  0  0
   38.5630   13.4955  -14.3069 C   0  0  0  0  0  0  0  0  0  0  0  0
   40.1322   12.6969  -16.0988 C   0  0  0  0  0  0  0  0  0  0  0  0
   41.2310   13.2280  -15.7950 O   0  0  0  0  0  0  0  0  0  0  0  0
   39.9607   11.8327  -17.2372 N   0  0  0  0  0  0  0  0  0  0  0  0
   40.6787   11.5454  -17.9277 H   0  0  0  0  0  0  0  0  0  0  0  0
   39.4450   14.3249  -13.5100 C   0  0  0  0  0  0  0  0  0  0  0  0
   40.7130   14.7070  -13.6482 N   0  0  0  0  0  0  0  0  0  0  0  0
   41.1095   15.4743  -12.6146 C   0  0  0  0  0  0  0  0  0  0  0  0
   40.0481   15.6088  -11.7454 C   0  0  0  0  0  0  0  0  0  0  0  0
   39.0140   14.8925  -12.3060 C   0  0  0  0  0  0  0  0  0  0  0  0
   40.2425   16.4024  -10.5451 C   0  0  0  0  0  0  0  0  0  0  0  0
   39.2364   16.9691  -10.0533 O   0  0  0  0  0  0  0  0  0  0  0  0
   41.5740   16.5588   -9.8953 C   0  0  0  0  0  0  0  0  0  0  0  0
   42.6141   15.8294  -10.7569 C   0  0  0  0  0  0  0  0  0  0  0  0
   42.3774   16.1690  -12.2338 C   0  0  0  0  0  0  0  0  0  0  0  0
   41.3384   14.4860  -14.4285 H   0  0  0  0  0  0  0  0  0  0  0  0
   37.6857   14.7731  -11.7046 C   0  0  0  0  0  0  0  0  0  0  0  0
   36.6325   15.6398  -12.3573 C   0  0  0  0  0  0  0  0  0  0  0  0
   36.0787   16.5191  -11.3057 C   0  0  0  0  0  0  0  0  0  0  0  0
   35.0967   16.1700  -10.6239 O   0  0  0  0  0  0  0  0  0  0  0  0
   36.6595   17.7497  -11.0741 O   0  0  0  0  0  0  0  0  0  0  0  0
   36.7501   18.4721  -11.7761 H   0  0  0  0  0  0  0  0  0  0  0  0
   34.1709   10.6393  -16.5330 S   0  0  0  0  0  0  0  0  0  0  0  0
   33.9612    9.1515  -16.5748 O   0  0  0  0  0  0  0  0  0  0  0  0
   33.3217   11.2564  -17.5861 O   0  0  0  0  0  0  0  0  0  0  0  0
   33.6347   12.6404  -14.9107 C   0  0  0  0  0  0  0  0  0  0  0  0
   33.6580   11.1916  -14.9908 N   0  0  0  0  0  0  0  0  0  0  0  0
   34.1360   10.7483  -14.2037 H   0  0  0  0  0  0  0  0  0  0  0  0
 33 34  1  0  0  0
 34 30  1  0  0  0
 30 31  2  0  0  0
 30 32  2  0  0  0
 30  1  1  0  0  0
  1  2  2  0  0  0
  2  3  1  0  0  0
  3  4  2  0  0  0
  4  5  1  0  0  0
  5  6  2  0  0  0
  5  7  1  0  0  0
  7  8  2  0  0  0
  8 13  1  0  0  0
 13 14  1  0  0  0
 14 15  1  0  0  0
 15 16  2  0  0  0
 16 17  1  0  0  0
 17 24  1  0  0  0
 24 25  1  0  0  0
 25 26  1  0  0  0
 26 27  2  0  0  0
 26 28  1  0  0  0
 16 18  1  0  0  0
 18 19  2  0  0  0
 18 20  1  0  0  0
 20 21  1  0  0  0
 21 22  1  0  0  0
  7  9  1  0  0  0
  9 10  2  0  0  0
  9 11  1  0  0  0
  6  1  1  0  0  0
 17 13  2  0  0  0
 11  4  1  0  0  0
 22 15  1  0  0  0
 34 35  1  0  0  0
 14 23  1  0  0  0
 28 29  1  0  0  0
 11 12  1  0  0  0
M  END
> <minimizedAffinity>
-8.98467

> <CNNscore>
0.3297499120

> <CNNaffinity>
6.7962465286

> <CNN_VS>
2.2410616875

> <CNNaffinity_variance>
0.1379035711

$$$$
[H]OC(=O)C([H])([H])C([H])([H])c1c2c(n([H])c1C([H])=C1C(=O)N([H])c3c([H])c([H])c(S(=O)(=O)N([H])C([H])([H])[H])c([H])c31)C([H])([H])C([H])([H])C([H])([H])C2=O


 35 38  0  0  0  0  0  0  0  0999 V2000
   36.1964   13.2765  -14.1579 C   0  0  0  0  0  0  0  0  0  0  0  0
   34.9803   13.0551  -14.7679 C   0  0  0  0  0  0  0  0  0  0  0  0
   33.8105   13.5128  -14.2122 C   0  0  0  0  0  0  0  0  0  0  0  0
   33.7995   14.2231  -13.0050 C   0  0  0  0  0  0  0  0  0  0  0  0
   35.0108   14.4471  -12.3914 C   0  0  0  0  0  0  0  0  0  0  0  0
   36.1783   13.9678  -12.9838 C   0  0  0  0  0  0  0  0  0  0  0  0
   34.8226   15.2089  -11.1393 C   0  0  0  0  0  0  0  0  0  0  0  0
   35.7711   15.6086  -10.3317 C   0  0  0  0  0  0  0  0  0  0  0  0
   33.3828   15.4071  -11.0842 C   0  0  0  0  0  0  0  0  0  0  0  0
   32.7344   16.0118  -10.1923 O   0  0  0  0  0  0  0  0  0  0  0  0
   32.7658   14.7977  -12.2332 N   0  0  0  0  0  0  0  0  0  0  0  0
   31.7570   14.7723  -12.4710 H   0  0  0  0  0  0  0  0  0  0  0  0
   35.6153   16.3524   -9.0974 C   0  0  0  0  0  0  0  0  0  0  0  0
   35.1373   17.5621   -8.8133 N   0  0  0  0  0  0  0  0  0  0  0  0
   35.2243   17.8268   -7.4954 C   0  0  0  0  0  0  0  0  0  0  0  0
   35.7892   16.7344   -6.8727 C   0  0  0  0  0  0  0  0  0  0  0  0
   36.0309   15.8188   -7.8727 C   0  0  0  0  0  0  0  0  0  0  0  0
   35.9841   16.7909   -5.4349 C   0  0  0  0  0  0  0  0  0  0  0  0
   35.9727   15.7063   -4.8034 O   0  0  0  0  0  0  0  0  0  0  0  0
   36.1931   18.0727   -4.7048 C   0  0  0  0  0  0  0  0  0  0  0  0
   36.0761   19.2221   -5.7154 C   0  0  0  0  0  0  0  0  0  0  0  0
   34.8601   18.9816   -6.6186 C   0  0  0  0  0  0  0  0  0  0  0  0
   34.7310   18.2315   -9.4734 H   0  0  0  0  0  0  0  0  0  0  0  0
   36.6274   14.5025   -7.6452 C   0  0  0  0  0  0  0  0  0  0  0  0
   38.1212   14.5336   -7.4134 C   0  0  0  0  0  0  0  0  0  0  0  0
   38.4216   13.5283   -6.3716 C   0  0  0  0  0  0  0  0  0  0  0  0
   38.9543   12.4400   -6.6597 O   0  0  0  0  0  0  0  0  0  0  0  0
   38.1064   13.7994   -5.0554 O   0  0  0  0  0  0  0  0  0  0  0  0
   37.1719   14.0093   -4.7306 H   0  0  0  0  0  0  0  0  0  0  0  0
   37.6964   12.7171  -14.8414 S   0  0  0  0  0  0  0  0  0  0  0  0
   38.1819   11.5839  -13.9816 O   0  0  0  0  0  0  0  0  0  0  0  0
   38.7296   13.7863  -14.8251 O   0  0  0  0  0  0  0  0  0  0  0  0
   38.7084   11.4121  -16.8899 C   0  0  0  0  0  0  0  0  0  0  0  0
   37.5224   12.1169  -16.4401 N   0  0  0  0  0  0  0  0  0  0  0  0
   37.1777   12.8043  -17.1134 H   0  0  0  0  0  0  0  0  0  0  0  0
 33 34  1  0  0  0
 34 30  1  0  0  0
 30 31  2  0  0  0
 30 32  2  0  0  0
 30  1  1  0  0  0
  1  2  2  0  0  0
  2  3  1  0  0  0
  3  4  2  0  0  0
  4  5  1  0  0  0
  5  6  2  0  0  0
  5  7  1  0  0  0
  7  8  2  0  0  0
  8 13  1  0  0  0
 13 14  1  0  0  0
 14 15  1  0  0  0
 15 16  2  0  0  0
 16 17  1  0  0  0
 17 24  1  0  0  0
 24 25  1  0  0  0
 25 26  1  0  0  0
 26 27  2  0  0  0
 26 28  1  0  0  0
 16 18  1  0  0  0
 18 19  2  0  0  0
 18 20  1  0  0  0
 20 21  1  0  0  0
 21 22  1  0  0  0
  7  9  1  0  0  0
  9 10  2  0  0  0
  9 11  1  0  0  0
  6  1  1  0  0  0
 17 13  2  0  0  0
 11  4  1  0  0  0
 22 15  1  0  0  0
 34 35  1  0  0  0
 14 23  1  0  0  0
 28 29  1  0  0  0
 11 12  1  0  0  0
M  END
> <minimizedAffinity>
-7.19054

> <CNNscore>
0.3161225021

> <CNNaffinity>
6.1659073830

> <CNN_VS>
1.9491820335

> <CNNaffinity_variance>
0.0291722063

$$$$
[H]OC(=O)C([H])([H])C([H])([H])c1c2c(n([H])c1C([H])=C1C(=O)N([H])c3c([H])c([H])c(S(=O)(=O)N([H])C([H])([H])[H])c([H])c31)C([H])([H])C([H])([H])C([H])([H])C2=O


 35 38  0  0  0  0  0  0  0  0999 V2000
   45.6317   14.9653  -11.2816 C   0  0  0  0  0  0  0  0  0  0  0  0
   45.2787   16.0696  -10.5359 C   0  0  0  0  0  0  0  0  0  0  0  0
   44.0351   16.6410  -10.6532 C   0  0  0  0  0  0  0  0  0  0  0  0
   43.0721   16.1297  -11.5324 C   0  0  0  0  0  0  0  0  0  0  0  0
   43.4188   15.0273  -12.2796 C   0  0  0  0  0  0  0  0  0  0  0  0
   44.6901   14.4734  -12.1349 C   0  0  0  0  0  0  0  0  0  0  0  0
   42.2947   14.6160  -13.1462 C   0  0  0  0  0  0  0  0  0  0  0  0
   42.2851   13.5915  -13.9597 C   0  0  0  0  0  0  0  0  0  0  0  0
   41.2590   15.5869  -12.8298 C   0  0  0  0  0  0  0  0  0  0  0  0
   40.1019   15.6475  -13.3188 O   0  0  0  0  0  0  0  0  0  0  0  0
   41.7472   16.5105  -11.8395 N   0  0  0  0  0  0  0  0  0  0  0  0
   41.2417   17.3108  -11.4165 H   0  0  0  0  0  0  0  0  0  0  0  0
   41.2000   13.1681  -14.8225 C   0  0  0  0  0  0  0  0  0  0  0  0
   39.8820   13.0791  -14.6569 N   0  0  0  0  0  0  0  0  0  0  0  0
   39.2803   12.5974  -15.7616 C   0  0  0  0  0  0  0  0  0  0  0  0
   40.2506   12.3552  -16.7102 C   0  0  0  0  0  0  0  0  0  0  0  0
   41.4440   12.7117  -16.1223 C   0  0  0  0  0  0  0  0  0  0  0  0
   39.8336   11.8269  -17.9968 C   0  0  0  0  0  0  0  0  0  0  0  0
   40.5451   12.0973  -18.9948 O   0  0  0  0  0  0  0  0  0  0  0  0
   38.6114   10.9909  -18.1613 C   0  0  0  0  0  0  0  0  0  0  0  0
   37.9092   10.8992  -16.7994 C   0  0  0  0  0  0  0  0  0  0  0  0
   37.8708   12.2899  -16.1538 C   0  0  0  0  0  0  0  0  0  0  0  0
   39.3492   13.3458  -13.8239 H   0  0  0  0  0  0  0  0  0  0  0  0
   42.7419   12.6161  -16.7905 C   0  0  0  0  0  0  0  0  0  0  0  0
   43.8510   12.0837  -15.9114 C   0  0  0  0  0  0  0  0  0  0  0  0
   45.0480   12.9120  -16.1703 C   0  0  0  0  0  0  0  0  0  0  0  0
   46.0354   12.4486  -16.7715 O   0  0  0  0  0  0  0  0  0  0  0  0
   45.0732   14.2227  -15.7385 O   0  0  0  0  0  0  0  0  0  0  0  0
   44.9616   14.5010  -14.7725 H   0  0  0  0  0  0  0  0  0  0  0  0
   47.1960   14.2135  -11.1489 S   0  0  0  0  0  0  0  0  0  0  0  0
   47.5951   14.2692   -9.7009 O   0  0  0  0  0  0  0  0  0  0  0  0
   48.2179   14.9493  -11.9395 O   0  0  0  0  0  0  0  0  0  0  0  0
   46.7113   11.6948  -10.5615 C   0  0  0  0  0  0  0  0  0  0  0  0
   47.1891   12.5633  -11.6213 N   0  0  0  0  0  0  0  0  0  0  0  0
   48.0611   12.2431  -12.0476 H   0  0  0  0  0  0  0  0  0  0  0  0
 33 34  1  0  0  0
 34 30  1  0  0  0
 30 31  2  0  0  0
 30 32  2  0  0  0
 30  1  1  0  0  0
  1  2  2  0  0  0
  2  3  1  0  0  0
  3  4  2  0  0  0
  4  5  1  0  0  0
  5  6  2  0  0  0
  5  7  1  0  0  0
  7  8  2  0  0  0
  8 13  1  0  0  0
 13 14  1  0  0  0
 14 15  1  0  0  0
 15 16  2  0  0  0
 16 17  1  0  0  0
 17 24  1  0  0  0
 24 25  1  0  0  0
 25 26  1  0  0  0
 26 27  2  0  0  0
 26 28  1  0  0  0
 16 18  1  0  0  0
 18 19  2  0  0  0
 18 20  1  0  0  0
 20 21  1  0  0  0
 21 22  1  0  0  0
  7  9  1  0  0  0
  9 10  2  0  0  0
  9 11  1  0  0  0
  6  1  1  0  0  0
 17 13  2  0  0  0
 11  4  1  0  0  0
 22 15  1  0  0  0
 34 35  1  0  0  0
 14 23  1  0  0  0
 28 29  1  0  0  0
 11 12  1  0  0  0
M  END
> <minimizedAffinity>
-7.55837

> <CNNscore>
0.2198781222

> <CNNaffinity>
5.7570390701

> <CNN_VS>
1.2658469677

> <CNNaffinity_variance>
0.2140357792

$$$$
[H]OC(=O)C([H])([H])C([H])([H])c1c2c(n([H])c1C([H])=C1C(=O)N([H])c3c([H])c([H])c(S(=O)(=O)N([H])C([H])([H])[H])c([H])c31)C([H])([H])C([H])([H])C([H])([H])C2=O


 35 38  0  0  0  0  0  0  0  0999 V2000
   38.5547   13.3713  -14.9610 C   0  0  0  0  0  0  0  0  0  0  0  0
   37.3845   12.8775  -15.4967 C   0  0  0  0  0  0  0  0  0  0  0  0
   36.1650   13.1693  -14.9358 C   0  0  0  0  0  0  0  0  0  0  0  0
   36.0548   13.9790  -13.7984 C   0  0  0  0  0  0  0  0  0  0  0  0
   37.2198   14.4749  -13.2590 C   0  0  0  0  0  0  0  0  0  0  0  0
   38.4400   14.1581  -13.8544 C   0  0  0  0  0  0  0  0  0  0  0  0
   36.9270   15.3077  -12.0739 C   0  0  0  0  0  0  0  0  0  0  0  0
   37.8065   15.9470  -11.3464 C   0  0  0  0  0  0  0  0  0  0  0  0
   35.4771   15.2486  -11.9764 C   0  0  0  0  0  0  0  0  0  0  0  0
   34.7516   15.8102  -11.1162 O   0  0  0  0  0  0  0  0  0  0  0  0
   34.9532   14.4305  -13.0387 N   0  0  0  0  0  0  0  0  0  0  0  0
   33.9603   14.2016  -13.2306 H   0  0  0  0  0  0  0  0  0  0  0  0
   37.5483   16.7662  -10.1789 C   0  0  0  0  0  0  0  0  0  0  0  0
   37.3755   18.0742   -9.9999 N   0  0  0  0  0  0  0  0  0  0  0  0
   37.1836   18.3703   -8.6999 C   0  0  0  0  0  0  0  0  0  0  0  0
   37.2307   17.1964   -7.9789 C   0  0  0  0  0  0  0  0  0  0  0  0
   37.4576   16.2003   -8.9026 C   0  0  0  0  0  0  0  0  0  0  0  0
   37.0476   17.2688   -6.5403 C   0  0  0  0  0  0  0  0  0  0  0  0
   36.5633   16.2643   -5.9644 O   0  0  0  0  0  0  0  0  0  0  0  0
   37.4111   18.4759   -5.7464 C   0  0  0  0  0  0  0  0  0  0  0  0
   37.8954   19.5593   -6.7199 C   0  0  0  0  0  0  0  0  0  0  0  0
   36.9439   19.6238   -7.9212 C   0  0  0  0  0  0  0  0  0  0  0  0
   37.3646   18.7963  -10.7261 H   0  0  0  0  0  0  0  0  0  0  0  0
   37.5746   14.7829   -8.5599 C   0  0  0  0  0  0  0  0  0  0  0  0
   38.7841   14.4498   -7.7158 C   0  0  0  0  0  0  0  0  0  0  0  0
   38.4485   13.2430   -6.9304 C   0  0  0  0  0  0  0  0  0  0  0  0
   37.2686   12.9696   -6.6402 O   0  0  0  0  0  0  0  0  0  0  0  0
   39.4600   12.4030   -6.5104 O   0  0  0  0  0  0  0  0  0  0  0  0
   40.2308   12.6965   -5.9251 H   0  0  0  0  0  0  0  0  0  0  0  0
   40.1140   13.0270  -15.6538 S   0  0  0  0  0  0  0  0  0  0  0  0
   40.3896   14.0902  -16.6798 O   0  0  0  0  0  0  0  0  0  0  0  0
   40.1209   11.7081  -16.3403 O   0  0  0  0  0  0  0  0  0  0  0  0
   42.6799   13.2753  -15.1266 C   0  0  0  0  0  0  0  0  0  0  0  0
   41.3854   13.0767  -14.5017 N   0  0  0  0  0  0  0  0  0  0  0  0
   41.3729   12.3094  -13.8266 H   0  0  0  0  0  0  0  0  0  0  0  0
 33 34  1  0  0  0
 34 30  1  0  0  0
 30 31  2  0  0  0
 30 32  2  0  0  0
 30  1  1  0  0  0
  1  2  2  0  0  0
  2  3  1  0  0  0
  3  4  2  0  0  0
  4  5  1  0  0  0
  5  6  2  0  0  0
  5  7  1  0  0  0
  7  8  2  0  0  0
  8 13  1  0  0  0
 13 14  1  0  0  0
 14 15  1  0  0  0
 15 16  2  0  0  0
 16 17  1  0  0  0
 17 24  1  0  0  0
 24 25  1  0  0  0
 25 26  1  0  0  0
 26 27  2  0  0  0
 26 28  1  0  0  0
 16 18  1  0  0  0
 18 19  2  0  0  0
 18 20  1  0  0  0
 20 21  1  0  0  0
 21 22  1  0  0  0
  7  9  1  0  0  0
  9 10  2  0  0  0
  9 11  1  0  0  0
  6  1  1  0  0  0
 17 13  2  0  0  0
 11  4  1  0  0  0
 22 15  1  0  0  0
 34 35  1  0  0  0
 14 23  1  0  0  0
 28 29  1  0  0  0
 11 12  1  0  0  0
M  END
> <minimizedAffinity>
-7.36376

> <CNNscore>
0.1863951683

> <CNNaffinity>
5.8177671432

> <CNN_VS>
1.0844036341

> <CNNaffinity_variance>
0.1621837616

$$$$
[H]OC(=O)C([H])([H])C([H])([H])c1c2c(n([H])c1C([H])=C1C(=O)N([H])c3c([H])c([H])c(S(=O)(=O)N([H])C([H])([H])[H])c([H])c31)C([H])([H])C([H])([H])C([H])([H])C2=O


 35 38  0  0  0  0  0  0  0  0999 V2000
   42.4127   12.7166  -16.2957 C   0  0  0  0  0  0  0  0  0  0  0  0
   43.4707   12.1285  -16.9552 C   0  0  0  0  0  0  0  0  0  0  0  0
   44.7247   12.0868  -16.3961 C   0  0  0  0  0  0  0  0  0  0  0  0
   44.9850   12.6376  -15.1349 C   0  0  0  0  0  0  0  0  0  0  0  0
   43.9326   13.2262  -14.4717 C   0  0  0  0  0  0  0  0  0  0  0  0
   42.6733   13.2506  -15.0694 C   0  0  0  0  0  0  0  0  0  0  0  0
   44.3747   13.7497  -13.1624 C   0  0  0  0  0  0  0  0  0  0  0  0
   43.6176   14.3421  -12.2751 C   0  0  0  0  0  0  0  0  0  0  0  0
   45.7879   13.4076  -13.1280 C   0  0  0  0  0  0  0  0  0  0  0  0
   46.6037   13.6477  -12.2013 O   0  0  0  0  0  0  0  0  0  0  0  0
   46.1511   12.7265  -14.3431 N   0  0  0  0  0  0  0  0  0  0  0  0
   47.0841   12.3611  -14.6094 H   0  0  0  0  0  0  0  0  0  0  0  0
   44.0247   14.8678  -10.9871 C   0  0  0  0  0  0  0  0  0  0  0  0
   44.0968   14.3415   -9.7663 N   0  0  0  0  0  0  0  0  0  0  0  0
   44.5196   15.2490   -8.8651 C   0  0  0  0  0  0  0  0  0  0  0  0
   44.7404   16.4398   -9.5234 C   0  0  0  0  0  0  0  0  0  0  0  0
   44.4316   16.1987  -10.8437 C   0  0  0  0  0  0  0  0  0  0  0  0
   45.2056   17.5752   -8.7470 C   0  0  0  0  0  0  0  0  0  0  0  0
   45.8969   18.4399   -9.3383 O   0  0  0  0  0  0  0  0  0  0  0  0
   44.8916   17.7386   -7.2998 C   0  0  0  0  0  0  0  0  0  0  0  0
   44.1110   16.5002   -6.8381 C   0  0  0  0  0  0  0  0  0  0  0  0
   44.7850   15.2394   -7.3938 C   0  0  0  0  0  0  0  0  0  0  0  0
   43.8856   13.3749   -9.5018 H   0  0  0  0  0  0  0  0  0  0  0  0
   44.5317   17.2053  -11.9006 C   0  0  0  0  0  0  0  0  0  0  0  0
   45.8659   17.2228  -12.6120 C   0  0  0  0  0  0  0  0  0  0  0  0
   46.1902   18.6372  -12.8954 C   0  0  0  0  0  0  0  0  0  0  0  0
   47.2531   18.9544  -13.4616 O   0  0  0  0  0  0  0  0  0  0  0  0
   45.2997   19.6252  -12.5263 O   0  0  0  0  0  0  0  0  0  0  0  0
   44.9888   19.7785  -11.5762 H   0  0  0  0  0  0  0  0  0  0  0  0
   40.8107   12.7773  -16.9737 S   0  0  0  0  0  0  0  0  0  0  0  0
   40.3592   14.2100  -16.9208 O   0  0  0  0  0  0  0  0  0  0  0  0
   39.8559   11.9613  -16.1779 O   0  0  0  0  0  0  0  0  0  0  0  0
   40.0163   11.0417  -18.7849 C   0  0  0  0  0  0  0  0  0  0  0  0
   40.7577   12.2776  -18.6149 N   0  0  0  0  0  0  0  0  0  0  0  0
   41.6655   12.2753  -19.0846 H   0  0  0  0  0  0  0  0  0  0  0  0
 33 34  1  0  0  0
 34 30  1  0  0  0
 30 31  2  0  0  0
 30 32  2  0  0  0
 30  1  1  0  0  0
  1  2  2  0  0  0
  2  3  1  0  0  0
  3  4  2  0  0  0
  4  5  1  0  0  0
  5  6  2  0  0  0
  5  7  1  0  0  0
  7  8  2  0  0  0
  8 13  1  0  0  0
 13 14  1  0  0  0
 14 15  1  0  0  0
 15 16  2  0  0  0
 16 17  1  0  0  0
 17 24  1  0  0  0
 24 25  1  0  0  0
 25 26  1  0  0  0
 26 27  2  0  0  0
 26 28  1  0  0  0
 16 18  1  0  0  0
 18 19  2  0  0  0
 18 20  1  0  0  0
 20 21  1  0  0  0
 21 22  1  0  0  0
  7  9  1  0  0  0
  9 10  2  0  0  0
  9 11  1  0  0  0
  6  1  1  0  0  0
 17 13  2  0  0  0
 11  4  1  0  0  0
 22 15  1  0  0  0
 34 35  1  0  0  0
 14 23  1  0  0  0
 28 29  1  0  0  0
 11 12  1  0  0  0
M  END
> <minimizedAffinity>
-6.56027

> <CNNscore>
0.1798489243

> <CNNaffinity>
5.2649927139

> <CNN_VS>
0.9469032884

> <CNNaffinity_variance>
0.1001380533

$$$$
[H]c1nc(OC([H])([H])[H])c(N([H])S(=O)(=O)c2c([H])c([H])c(F)c([H])c2F)c([H])c1-c1nc([H])c2nc(N([H])[H])c(-c3c([H])c([H])c([H])c([H])c3[H])c([H])c2c1[H]


 40 44  0  0  0  0  0  0  0  0999 V2000
   37.8694   12.3326  -16.2925 C   0  0  0  0  0  0  0  0  0  0  0  0
   38.6418   11.5637  -17.0731 N   0  0  0  0  0  0  0  0  0  0  0  0
   40.0107   11.5995  -17.0346 C   0  0  0  0  0  0  0  0  0  0  0  0
   40.6679   12.4437  -16.1754 C   0  0  0  0  0  0  0  0  0  0  0  0
   39.8767   13.2414  -15.3657 C   0  0  0  0  0  0  0  0  0  0  0  0
   38.4850   13.1948  -15.4149 C   0  0  0  0  0  0  0  0  0  0  0  0
   42.1299   12.5280  -16.0877 C   0  0  0  0  0  0  0  0  0  0  0  0
   42.7472   13.2385  -15.1139 C   0  0  0  0  0  0  0  0  0  0  0  0
   44.1446   13.3122  -15.0393 C   0  0  0  0  0  0  0  0  0  0  0  0
   44.7508   14.0423  -14.0382 C   0  0  0  0  0  0  0  0  0  0  0  0
   46.1474   14.0822  -14.0106 C   0  0  0  0  0  0  0  0  0  0  0  0
   46.8751   13.3985  -14.9735 C   0  0  0  0  0  0  0  0  0  0  0  0
   48.2901   13.4669  -14.8925 N   0  0  0  0  0  0  0  0  0  0  0  0
   46.2517   12.6891  -15.9460 N   0  0  0  0  0  0  0  0  0  0  0  0
   44.9089   12.6486  -15.9758 C   0  0  0  0  0  0  0  0  0  0  0  0
   44.2435   11.9270  -16.9641 C   0  0  0  0  0  0  0  0  0  0  0  0
   42.9079   11.8825  -16.9992 N   0  0  0  0  0  0  0  0  0  0  0  0
   48.7302   13.3449  -13.9602 H   0  0  0  0  0  0  0  0  0  0  0  0
   48.8708   13.6312  -15.7220 H   0  0  0  0  0  0  0  0  0  0  0  0
   46.7673   14.8503  -12.9715 C   0  0  0  0  0  0  0  0  0  0  0  0
   47.0566   14.2864  -11.7514 C   0  0  0  0  0  0  0  0  0  0  0  0
   47.6404   14.9949  -10.7370 C   0  0  0  0  0  0  0  0  0  0  0  0
   47.9556   16.3176  -10.9254 C   0  0  0  0  0  0  0  0  0  0  0  0
   47.6818   16.9202  -12.1334 C   0  0  0  0  0  0  0  0  0  0  0  0
   47.0883   16.1747  -13.1446 C   0  0  0  0  0  0  0  0  0  0  0  0
   35.8168   11.3308  -17.2005 C   0  0  0  0  0  0  0  0  0  0  0  0
   36.4679   12.2479  -16.3807 O   0  0  0  0  0  0  0  0  0  0  0  0
   37.6750   14.0139  -14.5914 N   0  0  0  0  0  0  0  0  0  0  0  0
   37.3773   14.9484  -14.9938 H   0  0  0  0  0  0  0  0  0  0  0  0
   37.1638   13.5726  -12.9989 S   0  0  0  0  0  0  0  0  0  0  0  0
   37.2010   12.0671  -12.8598 O   0  0  0  0  0  0  0  0  0  0  0  0
   38.1585   14.1055  -12.0105 O   0  0  0  0  0  0  0  0  0  0  0  0
   35.5921   14.1749  -12.6033 C   0  0  0  0  0  0  0  0  0  0  0  0
   35.4237   15.1805  -11.6809 C   0  0  0  0  0  0  0  0  0  0  0  0
   34.1505   15.6357  -11.3991 C   0  0  0  0  0  0  0  0  0  0  0  0
   33.0523   15.0977  -12.0274 C   0  0  0  0  0  0  0  0  0  0  0  0
   31.7831   15.5362  -11.7609 F   0  0  0  0  0  0  0  0  0  0  0  0
   33.2002   14.0817  -12.9619 C   0  0  0  0  0  0  0  0  0  0  0  0
   34.4842   13.6494  -13.2210 C   0  0  0  0  0  0  0  0  0  0  0  0
   34.6680   12.6598  -14.1267 F   0  0  0  0  0  0  0  0  0  0  0  0
 26 27  1  0  0  0
 27  1  1  0  0  0
  1  2  2  0  0  0
  2  3  1  0  0  0
  3  4  2  0  0  0
  4  7  1  0  0  0
  7  8  2  0  0  0
  8  9  1  0  0  0
  9 10  2  0  0  0
 10 11  1  0  0  0
 11 20  1  0  0  0
 20 21  2  0  0  0
 21 22  1  0  0  0
 22 23  2  0  0  0
 23 24  1  0  0  0
 24 25  2  0  0  0
 11 12  2  0  0  0
 12 13  1  0  0  0
 12 14  1  0  0  0
 14 15  2  0  0  0
 15 16  1  0  0  0
 16 17  2  0  0  0
  4  5  1  0  0  0
  5  6  2  0  0  0
  6 28  1  0  0  0
 28 30  1  0  0  0
 30 31  2  0  0  0
 30 32  2  0  0  0
 30 33  1  0  0  0
 33 34  2  0  0  0
 34 35  1  0  0  0
 35 36  2  0  0  0
 36 37  1  0  0  0
 36 38  1  0  0  0
 38 39  2  0  0  0
 39 40  1  0  0  0
  6  1  1  0  0  0
 39 33  1  0  0  0
 17  7  1  0  0  0
 15  9  1  0  0  0
 25 20  1  0  0  0
 13 18  1  0  0  0
 13 19  1  0  0  0
 28 29  1  0  0  0
M  END
> <minimizedAffinity>
-8.83502

> <CNNscore>
0.2059605271

> <CNNaffinity>
7.0104970932

> <CNN_VS>
1.4438856840

> <CNNaffinity_variance>
0.1276232898

$$$$
[H]c1nc(OC([H])([H])[H])c(N([H])S(=O)(=O)c2c([H])c([H])c(F)c([H])c2F)c([H])c1-c1nc([H])c2nc(N([H])[H])c(-c3c([H])c([H])c([H])c([H])c3[H])c([H])c2c1[H]


 40 44  0  0  0  0  0  0  0  0999 V2000
   35.3064   11.5935  -16.3070 C   0  0  0  0  0  0  0  0  0  0  0  0
   36.1193   10.7804  -16.9965 N   0  0  0  0  0  0  0  0  0  0  0  0
   37.4785   10.9460  -17.0390 C   0  0  0  0  0  0  0  0  0  0  0  0
   38.0828   11.9753  -16.3622 C   0  0  0  0  0  0  0  0  0  0  0  0
   37.2495   12.8197  -15.6477 C   0  0  0  0  0  0  0  0  0  0  0  0
   35.8682   12.6398  -15.6127 C   0  0  0  0  0  0  0  0  0  0  0  0
   39.5318   12.2050  -16.3690 C   0  0  0  0  0  0  0  0  0  0  0  0
   40.1646   12.8060  -15.3335 C   0  0  0  0  0  0  0  0  0  0  0  0
   41.5492   13.0204  -15.3503 C   0  0  0  0  0  0  0  0  0  0  0  0
   42.1717   13.6348  -14.2836 C   0  0  0  0  0  0  0  0  0  0  0  0
   43.5546   13.8238  -14.3525 C   0  0  0  0  0  0  0  0  0  0  0  0
   44.2533   13.3960  -15.4719 C   0  0  0  0  0  0  0  0  0  0  0  0
   45.6565   13.6060  -15.4846 N   0  0  0  0  0  0  0  0  0  0  0  0
   43.6145   12.7951  -16.5055 N   0  0  0  0  0  0  0  0  0  0  0  0
   42.2848   12.6118  -16.4429 C   0  0  0  0  0  0  0  0  0  0  0  0
   41.6040   11.9970  -17.4911 C   0  0  0  0  0  0  0  0  0  0  0  0
   40.2814   11.8115  -17.4349 N   0  0  0  0  0  0  0  0  0  0  0  0
   46.1900   13.3790  -14.6235 H   0  0  0  0  0  0  0  0  0  0  0  0
   46.1401   13.9703  -16.3127 H   0  0  0  0  0  0  0  0  0  0  0  0
   44.1903   14.4706  -13.2428 C   0  0  0  0  0  0  0  0  0  0  0  0
   44.6004   13.7518  -12.1449 C   0  0  0  0  0  0  0  0  0  0  0  0
   45.2025   14.3408  -11.0668 C   0  0  0  0  0  0  0  0  0  0  0  0
   45.4132   15.6973  -11.0630 C   0  0  0  0  0  0  0  0  0  0  0  0
   45.0168   16.4537  -12.1438 C   0  0  0  0  0  0  0  0  0  0  0  0
   44.4077   15.8269  -13.2239 C   0  0  0  0  0  0  0  0  0  0  0  0
   33.2746   10.6010  -17.2703 C   0  0  0  0  0  0  0  0  0  0  0  0
   33.9175   11.3689  -16.3039 O   0  0  0  0  0  0  0  0  0  0  0  0
   35.0146   13.5057  -14.8870 N   0  0  0  0  0  0  0  0  0  0  0  0
   34.5004   14.2461  -15.4447 H   0  0  0  0  0  0  0  0  0  0  0  0
   34.7799   13.4151  -13.1756 S   0  0  0  0  0  0  0  0  0  0  0  0
   33.3228   13.6641  -12.8556 O   0  0  0  0  0  0  0  0  0  0  0  0
   35.0703   12.0141  -12.7247 O   0  0  0  0  0  0  0  0  0  0  0  0
   35.7852   14.5140  -12.2973 C   0  0  0  0  0  0  0  0  0  0  0  0
   35.2740   15.6652  -11.7462 C   0  0  0  0  0  0  0  0  0  0  0  0
   36.1117   16.5123  -11.0473 C   0  0  0  0  0  0  0  0  0  0  0  0
   37.4466   16.2198  -10.8959 C   0  0  0  0  0  0  0  0  0  0  0  0
   38.2917   17.0473  -10.2066 F   0  0  0  0  0  0  0  0  0  0  0  0
   37.9828   15.0626  -11.4443 C   0  0  0  0  0  0  0  0  0  0  0  0
   37.1204   14.2378  -12.1362 C   0  0  0  0  0  0  0  0  0  0  0  0
   37.6073   13.1000  -12.6853 F   0  0  0  0  0  0  0  0  0  0  0  0
 26 27  1  0  0  0
 27  1  1  0  0  0
  1  2  2  0  0  0
  2  3  1  0  0  0
  3  4  2  0  0  0
  4  7  1  0  0  0
  7  8  2  0  0  0
  8  9  1  0  0  0
  9 10  2  0  0  0
 10 11  1  0  0  0
 11 20  1  0  0  0
 20 21  2  0  0  0
 21 22  1  0  0  0
 22 23  2  0  0  0
 23 24  1  0  0  0
 24 25  2  0  0  0
 11 12  2  0  0  0
 12 13  1  0  0  0
 12 14  1  0  0  0
 14 15  2  0  0  0
 15 16  1  0  0  0
 16 17  2  0  0  0
  4  5  1  0  0  0
  5  6  2  0  0  0
  6 28  1  0  0  0
 28 30  1  0  0  0
 30 31  2  0  0  0
 30 32  2  0  0  0
 30 33  1  0  0  0
 33 34  2  0  0  0
 34 35  1  0  0  0
 35 36  2  0  0  0
 36 37  1  0  0  0
 36 38  1  0  0  0
 38 39  2  0  0  0
 39 40  1  0  0  0
  6  1  1  0  0  0
 39 33  1  0  0  0
 17  7  1  0  0  0
 15  9  1  0  0  0
 25 20  1  0  0  0
 13 18  1  0  0  0
 13 19  1  0  0  0
 28 29  1  0  0  0
M  END
> <minimizedAffinity>
-10.11751

> <CNNscore>
0.1916043311

> <CNNaffinity>
7.4121866226

> <CNN_VS>
1.4202070236

> <CNNaffinity_variance>
0.2373222113

$$$$
[H]c1nc(OC([H])([H])[H])c(N([H])S(=O)(=O)c2c([H])c([H])c(F)c([H])c2F)c([H])c1-c1nc([H])c2nc(N([H])[H])c(-c3c([H])c([H])c([H])c([H])c3[H])c([H])c2c1[H]


 40 44  0  0  0  0  0  0  0  0999 V2000
   37.3643   11.0043  -17.4539 C   0  0  0  0  0  0  0  0  0  0  0  0
   36.0471   11.2477  -17.3984 N   0  0  0  0  0  0  0  0  0  0  0  0
   35.4626   11.9606  -16.3851 C   0  0  0  0  0  0  0  0  0  0  0  0
   36.2166   12.4692  -15.3577 C   0  0  0  0  0  0  0  0  0  0  0  0
   37.5783   12.2218  -15.4079 C   0  0  0  0  0  0  0  0  0  0  0  0
   38.1600   11.4951  -16.4448 C   0  0  0  0  0  0  0  0  0  0  0  0
   35.6498   13.2398  -14.2453 C   0  0  0  0  0  0  0  0  0  0  0  0
   36.4042   13.6342  -13.1921 C   0  0  0  0  0  0  0  0  0  0  0  0
   35.8527   14.3701  -12.1349 C   0  0  0  0  0  0  0  0  0  0  0  0
   36.6411   14.7607  -11.0725 C   0  0  0  0  0  0  0  0  0  0  0  0
   36.0399   15.4928  -10.0451 C   0  0  0  0  0  0  0  0  0  0  0  0
   34.6898   15.8024  -10.1189 C   0  0  0  0  0  0  0  0  0  0  0  0
   34.1338   16.5547   -9.0520 N   0  0  0  0  0  0  0  0  0  0  0  0
   33.9396   15.4048  -11.1756 N   0  0  0  0  0  0  0  0  0  0  0  0
   34.5142   14.7006  -12.1653 C   0  0  0  0  0  0  0  0  0  0  0  0
   33.7661   14.2799  -13.2625 C   0  0  0  0  0  0  0  0  0  0  0  0
   34.3317   13.5792  -14.2504 N   0  0  0  0  0  0  0  0  0  0  0  0
   34.6685   17.3736   -8.7040 H   0  0  0  0  0  0  0  0  0  0  0  0
   33.2325   16.3069   -8.6294 H   0  0  0  0  0  0  0  0  0  0  0  0
   36.8660   15.8865   -8.9421 C   0  0  0  0  0  0  0  0  0  0  0  0
   37.4274   17.1404   -8.8907 C   0  0  0  0  0  0  0  0  0  0  0  0
   38.2265   17.5434   -7.8559 C   0  0  0  0  0  0  0  0  0  0  0  0
   38.4887   16.6783   -6.8229 C   0  0  0  0  0  0  0  0  0  0  0  0
   37.9455   15.4126   -6.8365 C   0  0  0  0  0  0  0  0  0  0  0  0
   37.1378   15.0323   -7.9012 C   0  0  0  0  0  0  0  0  0  0  0  0
   38.0243   10.7779  -19.8107 C   0  0  0  0  0  0  0  0  0  0  0  0
   37.9027   10.2647  -18.5227 O   0  0  0  0  0  0  0  0  0  0  0  0
   39.5514   11.2367  -16.4944 N   0  0  0  0  0  0  0  0  0  0  0  0
   39.8852   10.3351  -16.0480 H   0  0  0  0  0  0  0  0  0  0  0  0
   40.7027   12.2985  -17.2288 S   0  0  0  0  0  0  0  0  0  0  0  0
   41.1988   11.6847  -18.5190 O   0  0  0  0  0  0  0  0  0  0  0  0
   40.0055   13.5694  -17.6150 O   0  0  0  0  0  0  0  0  0  0  0  0
   42.0332   12.6740  -16.1904 C   0  0  0  0  0  0  0  0  0  0  0  0
   43.3290   12.4074  -16.5648 C   0  0  0  0  0  0  0  0  0  0  0  0
   44.3624   12.7291  -15.7067 C   0  0  0  0  0  0  0  0  0  0  0  0
   44.1127   13.3109  -14.4862 C   0  0  0  0  0  0  0  0  0  0  0  0
   45.1239   13.6366  -13.6230 F   0  0  0  0  0  0  0  0  0  0  0  0
   42.8117   13.5884  -14.0890 C   0  0  0  0  0  0  0  0  0  0  0  0
   41.8023   13.2553  -14.9682 C   0  0  0  0  0  0  0  0  0  0  0  0
   40.5204   13.5109  -14.6152 F   0  0  0  0  0  0  0  0  0  0  0  0
 26 27  1  0  0  0
 27  1  1  0  0  0
  1  2  2  0  0  0
  2  3  1  0  0  0
  3  4  2  0  0  0
  4  7  1  0  0  0
  7  8  2  0  0  0
  8  9  1  0  0  0
  9 10  2  0  0  0
 10 11  1  0  0  0
 11 20  1  0  0  0
 20 21  2  0  0  0
 21 22  1  0  0  0
 22 23  2  0  0  0
 23 24  1  0  0  0
 24 25  2  0  0  0
 11 12  2  0  0  0
 12 13  1  0  0  0
 12 14  1  0  0  0
 14 15  2  0  0  0
 15 16  1  0  0  0
 16 17  2  0  0  0
  4  5  1  0  0  0
  5  6  2  0  0  0
  6 28  1  0  0  0
 28 30  1  0  0  0
 30 31  2  0  0  0
 30 32  2  0  0  0
 30 33  1  0  0  0
 33 34  2  0  0  0
 34 35  1  0  0  0
 35 36  2  0  0  0
 36 37  1  0  0  0
 36 38  1  0  0  0
 38 39  2  0  0  0
 39 40  1  0  0  0
  6  1  1  0  0  0
 39 33  1  0  0  0
 17  7  1  0  0  0
 15  9  1  0  0  0
 25 20  1  0  0  0
 13 18  1  0  0  0
 13 19  1  0  0  0
 28 29  1  0  0  0
M  END
> <minimizedAffinity>
-9.44341

> <CNNscore>
0.1735566109

> <CNNaffinity>
7.1632256508

> <CNN_VS>
1.2432252169

> <CNNaffinity_variance>
0.2308036089

$$$$
[H]c1nc(OC([H])([H])[H])c(N([H])S(=O)(=O)c2c([H])c([H])c(F)c([H])c2F)c([H])c1-c1nc([H])c2nc(N([H])[H])c(-c3c([H])c([H])c([H])c([H])c3[H])c([H])c2c1[H]


 40 44  0  0  0  0  0  0  0  0999 V2000
   36.9195   15.6131  -12.0778 C   0  0  0  0  0  0  0  0  0  0  0  0
   38.1490   15.8912  -11.6216 N   0  0  0  0  0  0  0  0  0  0  0  0
   39.2909   15.4944  -12.2661 C   0  0  0  0  0  0  0  0  0  0  0  0
   39.2258   14.7778  -13.4344 C   0  0  0  0  0  0  0  0  0  0  0  0
   37.9589   14.4864  -13.9120 C   0  0  0  0  0  0  0  0  0  0  0  0
   36.8054   14.8964  -13.2465 C   0  0  0  0  0  0  0  0  0  0  0  0
   40.4112   14.3246  -14.1704 C   0  0  0  0  0  0  0  0  0  0  0  0
   41.6457   14.3373  -13.6136 C   0  0  0  0  0  0  0  0  0  0  0  0
   42.7714   13.9020  -14.3256 C   0  0  0  0  0  0  0  0  0  0  0  0
   44.0188   13.9243  -13.7373 C   0  0  0  0  0  0  0  0  0  0  0  0
   45.1071   13.4790  -14.4925 C   0  0  0  0  0  0  0  0  0  0  0  0
   44.9082   13.0338  -15.7911 C   0  0  0  0  0  0  0  0  0  0  0  0
   46.0473   12.5855  -16.5087 N   0  0  0  0  0  0  0  0  0  0  0  0
   43.6703   13.0236  -16.3433 N   0  0  0  0  0  0  0  0  0  0  0  0
   42.6214   13.4511  -15.6202 C   0  0  0  0  0  0  0  0  0  0  0  0
   41.3388   13.4509  -16.1636 C   0  0  0  0  0  0  0  0  0  0  0  0
   40.2913   13.8748  -15.4495 N   0  0  0  0  0  0  0  0  0  0  0  0
   46.7175   11.9631  -16.0175 H   0  0  0  0  0  0  0  0  0  0  0  0
   46.2144   12.8609  -17.4826 H   0  0  0  0  0  0  0  0  0  0  0  0
   46.3999   13.5140  -13.8749 C   0  0  0  0  0  0  0  0  0  0  0  0
   47.2015   14.6265  -13.9740 C   0  0  0  0  0  0  0  0  0  0  0  0
   48.4432   14.6880  -13.4028 C   0  0  0  0  0  0  0  0  0  0  0  0
   48.9229   13.6097  -12.7017 C   0  0  0  0  0  0  0  0  0  0  0  0
   48.1509   12.4756  -12.5792 C   0  0  0  0  0  0  0  0  0  0  0  0
   46.8940   12.4431  -13.1705 C   0  0  0  0  0  0  0  0  0  0  0  0
   35.8359   16.4456  -10.0347 C   0  0  0  0  0  0  0  0  0  0  0  0
   35.7859   16.0499  -11.3681 O   0  0  0  0  0  0  0  0  0  0  0  0
   35.5095   14.5944  -13.7308 N   0  0  0  0  0  0  0  0  0  0  0  0
   34.8883   15.4176  -13.9761 H   0  0  0  0  0  0  0  0  0  0  0  0
   34.9076   12.9854  -13.9332 S   0  0  0  0  0  0  0  0  0  0  0  0
   35.1399   12.1998  -12.6619 O   0  0  0  0  0  0  0  0  0  0  0  0
   33.4199   13.0488  -14.1159 O   0  0  0  0  0  0  0  0  0  0  0  0
   35.6109   12.1664  -15.2837 C   0  0  0  0  0  0  0  0  0  0  0  0
   36.9590   12.2431  -15.5427 C   0  0  0  0  0  0  0  0  0  0  0  0
   37.4801   11.5682  -16.6293 C   0  0  0  0  0  0  0  0  0  0  0  0
   36.6702   10.8226  -17.4531 C   0  0  0  0  0  0  0  0  0  0  0  0
   37.1689   10.1472  -18.5343 F   0  0  0  0  0  0  0  0  0  0  0  0
   35.3065   10.7320  -17.2093 C   0  0  0  0  0  0  0  0  0  0  0  0
   34.8172   11.4174  -16.1168 C   0  0  0  0  0  0  0  0  0  0  0  0
   33.4919   11.3527  -15.8473 F   0  0  0  0  0  0  0  0  0  0  0  0
 26 27  1  0  0  0
 27  1  1  0  0  0
  1  2  2  0  0  0
  2  3  1  0  0  0
  3  4  2  0  0  0
  4  7  1  0  0  0
  7  8  2  0  0  0
  8  9  1  0  0  0
  9 10  2  0  0  0
 10 11  1  0  0  0
 11 20  1  0  0  0
 20 21  2  0  0  0
 21 22  1  0  0  0
 22 23  2  0  0  0
 23 24  1  0  0  0
 24 25  2  0  0  0
 11 12  2  0  0  0
 12 13  1  0  0  0
 12 14  1  0  0  0
 14 15  2  0  0  0
 15 16  1  0  0  0
 16 17  2  0  0  0
  4  5  1  0  0  0
  5  6  2  0  0  0
  6 28  1  0  0  0
 28 30  1  0  0  0
 30 31  2  0  0  0
 30 32  2  0  0  0
 30 33  1  0  0  0
 33 34  2  0  0  0
 34 35  1  0  0  0
 35 36  2  0  0  0
 36 37  1  0  0  0
 36 38  1  0  0  0
 38 39  2  0  0  0
 39 40  1  0  0  0
  6  1  1  0  0  0
 39 33  1  0  0  0
 17  7  1  0  0  0
 15  9  1  0  0  0
 25 20  1  0  0  0
 13 18  1  0  0  0
 13 19  1  0  0  0
 28 29  1  0  0  0
M  END
> <minimizedAffinity>
-10.31764

> <CNNscore>
0.1524336338

> <CNNaffinity>
7.0770006180

> <CNN_VS>
1.0787729025

> <CNNaffinity_variance>
0.2113403976

$$$$
[H]c1nc(OC([H])([H])[H])c(N([H])S(=O)(=O)c2c([H])c([H])c(F)c([H])c2F)c([H])c1-c1nc([H])c2nc(N([H])[H])c(-c3c([H])c([H])c([H])c([H])c3[H])c([H])c2c1[H]


 40 44  0  0  0  0  0  0  0  0999 V2000
   35.3013   11.7607  -15.9874 C   0  0  0  0  0  0  0  0  0  0  0  0
   36.1063   11.0636  -16.8018 N   0  0  0  0  0  0  0  0  0  0  0  0
   37.4625   11.2514  -16.8495 C   0  0  0  0  0  0  0  0  0  0  0  0
   38.0717   12.1832  -16.0473 C   0  0  0  0  0  0  0  0  0  0  0  0
   37.2465   12.9074  -15.2032 C   0  0  0  0  0  0  0  0  0  0  0  0
   35.8683   12.7061  -15.1646 C   0  0  0  0  0  0  0  0  0  0  0  0
   39.5177   12.4306  -16.0524 C   0  0  0  0  0  0  0  0  0  0  0  0
   40.1387   13.0582  -15.0255 C   0  0  0  0  0  0  0  0  0  0  0  0
   41.5206   13.2893  -15.0406 C   0  0  0  0  0  0  0  0  0  0  0  0
   42.1309   13.9307  -13.9828 C   0  0  0  0  0  0  0  0  0  0  0  0
   43.5117   14.1355  -14.0496 C   0  0  0  0  0  0  0  0  0  0  0  0
   44.2203   13.6962  -15.1581 C   0  0  0  0  0  0  0  0  0  0  0  0
   45.6209   13.9233  -15.1690 N   0  0  0  0  0  0  0  0  0  0  0  0
   43.5934   13.0687  -16.1832 N   0  0  0  0  0  0  0  0  0  0  0  0
   42.2658   12.8701  -16.1226 C   0  0  0  0  0  0  0  0  0  0  0  0
   41.5971   12.2280  -17.1622 C   0  0  0  0  0  0  0  0  0  0  0  0
   40.2766   12.0272  -17.1079 N   0  0  0  0  0  0  0  0  0  0  0  0
   46.1535   13.7185  -14.3018 H   0  0  0  0  0  0  0  0  0  0  0  0
   46.1035   14.2784  -16.0017 H   0  0  0  0  0  0  0  0  0  0  0  0
   44.1347   14.8102  -12.9493 C   0  0  0  0  0  0  0  0  0  0  0  0
   44.7854   14.1058  -11.9641 C   0  0  0  0  0  0  0  0  0  0  0  0
   45.3827   14.7199  -10.8974 C   0  0  0  0  0  0  0  0  0  0  0  0
   45.3411   16.0877  -10.7896 C   0  0  0  0  0  0  0  0  0  0  0  0
   44.6987   16.8303  -11.7557 C   0  0  0  0  0  0  0  0  0  0  0  0
   44.1013   16.1781  -12.8273 C   0  0  0  0  0  0  0  0  0  0  0  0
   33.2774   10.7756  -16.9748 C   0  0  0  0  0  0  0  0  0  0  0  0
   33.9152   11.5196  -15.9865 O   0  0  0  0  0  0  0  0  0  0  0  0
   35.0228   13.4499  -14.3060 N   0  0  0  0  0  0  0  0  0  0  0  0
   34.0163   13.5712  -14.6157 H   0  0  0  0  0  0  0  0  0  0  0  0
   35.5438   14.1539  -12.8142 S   0  0  0  0  0  0  0  0  0  0  0  0
   36.2903   13.1173  -12.0046 O   0  0  0  0  0  0  0  0  0  0  0  0
   36.5356   15.2382  -13.1157 O   0  0  0  0  0  0  0  0  0  0  0  0
   34.2418   14.8166  -11.8895 C   0  0  0  0  0  0  0  0  0  0  0  0
   32.9448   14.7647  -12.3428 C   0  0  0  0  0  0  0  0  0  0  0  0
   31.9343   15.3013  -11.5691 C   0  0  0  0  0  0  0  0  0  0  0  0
   32.2079   15.8851  -10.3547 C   0  0  0  0  0  0  0  0  0  0  0  0
   31.2195   16.4219   -9.5744 F   0  0  0  0  0  0  0  0  0  0  0  0
   33.5105   15.9478   -9.8786 C   0  0  0  0  0  0  0  0  0  0  0  0
   34.4967   15.4032  -10.6746 C   0  0  0  0  0  0  0  0  0  0  0  0
   35.7795   15.4458  -10.2434 F   0  0  0  0  0  0  0  0  0  0  0  0
 26 27  1  0  0  0
 27  1  1  0  0  0
  1  2  2  0  0  0
  2  3  1  0  0  0
  3  4  2  0  0  0
  4  7  1  0  0  0
  7  8  2  0  0  0
  8  9  1  0  0  0
  9 10  2  0  0  0
 10 11  1  0  0  0
 11 20  1  0  0  0
 20 21  2  0  0  0
 21 22  1  0  0  0
 22 23  2  0  0  0
 23 24  1  0  0  0
 24 25  2  0  0  0
 11 12  2  0  0  0
 12 13  1  0  0  0
 12 14  1  0  0  0
 14 15  2  0  0  0
 15 16  1  0  0  0
 16 17  2  0  0  0
  4  5  1  0  0  0
  5  6  2  0  0  0
  6 28  1  0  0  0
 28 30  1  0  0  0
 30 31  2  0  0  0
 30 32  2  0  0  0
 30 33  1  0  0  0
 33 34  2  0  0  0
 34 35  1  0  0  0
 35 36  2  0  0  0
 36 37  1  0  0  0
 36 38  1  0  0  0
 38 39  2  0  0  0
 39 40  1  0  0  0
  6  1  1  0  0  0
 39 33  1  0  0  0
 17  7  1  0  0  0
 15  9  1  0  0  0
 25 20  1  0  0  0
 13 18  1  0  0  0
 13 19  1  0  0  0
 28 29  1  0  0  0
M  END
> <minimizedAffinity>
-9.69540

> <CNNscore>
0.1342195570

> <CNNaffinity>
7.0664839745

> <CNN_VS>
0.9484603405

> <CNNaffinity_variance>
0.1614539623

$$$$
[H]c1nc(OC([H])([H])[H])c(N([H])S(=O)(=O)c2c([H])c([H])c(F)c([H])c2F)c([H])c1-c1nc([H])c2nc(N([H])[H])c(-c3c([H])c([H])c([H])c([H])c3[H])c([H])c2c1[H]


 40 44  0  0  0  0  0  0  0  0999 V2000
   37.5314   11.8501  -16.2534 C   0  0  0  0  0  0  0  0  0  0  0  0
   36.1975   11.9457  -16.1586 N   0  0  0  0  0  0  0  0  0  0  0  0
   35.5678   12.5968  -15.1310 C   0  0  0  0  0  0  0  0  0  0  0  0
   36.2908   13.1941  -14.1293 C   0  0  0  0  0  0  0  0  0  0  0  0
   37.6695   13.0994  -14.2202 C   0  0  0  0  0  0  0  0  0  0  0  0
   38.2973   12.4342  -15.2713 C   0  0  0  0  0  0  0  0  0  0  0  0
   35.6752   13.9052  -13.0034 C   0  0  0  0  0  0  0  0  0  0  0  0
   36.3150   14.0586  -11.8197 C   0  0  0  0  0  0  0  0  0  0  0  0
   35.7178   14.7398  -10.7507 C   0  0  0  0  0  0  0  0  0  0  0  0
   36.3892   14.8833   -9.5543 C   0  0  0  0  0  0  0  0  0  0  0  0
   35.7470   15.5716   -8.5214 C   0  0  0  0  0  0  0  0  0  0  0  0
   34.4737   16.0837   -8.7225 C   0  0  0  0  0  0  0  0  0  0  0  0
   33.8728   16.7805   -7.6423 N   0  0  0  0  0  0  0  0  0  0  0  0
   33.8380   15.9270   -9.9094 N   0  0  0  0  0  0  0  0  0  0  0  0
   34.4523   15.2656  -10.9049 C   0  0  0  0  0  0  0  0  0  0  0  0
   33.8215   15.0906  -12.1344 C   0  0  0  0  0  0  0  0  0  0  0  0
   34.4272   14.4339  -13.1288 N   0  0  0  0  0  0  0  0  0  0  0  0
   34.4541   17.4654   -7.1220 H   0  0  0  0  0  0  0  0  0  0  0  0
   32.8955   16.6212   -7.3743 H   0  0  0  0  0  0  0  0  0  0  0  0
   36.4499   15.7079   -7.2798 C   0  0  0  0  0  0  0  0  0  0  0  0
   36.3473   14.7493   -6.2997 C   0  0  0  0  0  0  0  0  0  0  0  0
   36.9989   14.8542   -5.1013 C   0  0  0  0  0  0  0  0  0  0  0  0
   37.7880   15.9490   -4.8504 C   0  0  0  0  0  0  0  0  0  0  0  0
   37.9172   16.9322   -5.8063 C   0  0  0  0  0  0  0  0  0  0  0  0
   37.2429   16.7976   -7.0137 C   0  0  0  0  0  0  0  0  0  0  0  0
   37.3793   10.3978  -18.2306 C   0  0  0  0  0  0  0  0  0  0  0  0
   38.1166   11.1669  -17.3351 O   0  0  0  0  0  0  0  0  0  0  0  0
   39.7067   12.3319  -15.3624 N   0  0  0  0  0  0  0  0  0  0  0  0
   40.1262   11.3709  -15.2067 H   0  0  0  0  0  0  0  0  0  0  0  0
   40.7493   13.6691  -15.7048 S   0  0  0  0  0  0  0  0  0  0  0  0
   40.4828   14.1659  -17.1082 O   0  0  0  0  0  0  0  0  0  0  0  0
   40.3932   14.8023  -14.7887 O   0  0  0  0  0  0  0  0  0  0  0  0
   42.4241   13.2864  -15.5098 C   0  0  0  0  0  0  0  0  0  0  0  0
   43.1687   13.8357  -14.4928 C   0  0  0  0  0  0  0  0  0  0  0  0
   44.5023   13.4979  -14.3702 C   0  0  0  0  0  0  0  0  0  0  0  0
   45.0933   12.6217  -15.2497 C   0  0  0  0  0  0  0  0  0  0  0  0
   46.4134   12.2754  -15.1438 F   0  0  0  0  0  0  0  0  0  0  0  0
   44.3594   12.0559  -16.2834 C   0  0  0  0  0  0  0  0  0  0  0  0
   43.0306   12.4133  -16.3787 C   0  0  0  0  0  0  0  0  0  0  0  0
   42.2828   11.8817  -17.3744 F   0  0  0  0  0  0  0  0  0  0  0  0
 26 27  1  0  0  0
 27  1  1  0  0  0
  1  2  2  0  0  0
  2  3  1  0  0  0
  3  4  2  0  0  0
  4  7  1  0  0  0
  7  8  2  0  0  0
  8  9  1  0  0  0
  9 10  2  0  0  0
 10 11  1  0  0  0
 11 20  1  0  0  0
 20 21  2  0  0  0
 21 22  1  0  0  0
 22 23  2  0  0  0
 23 24  1  0  0  0
 24 25  2  0  0  0
 11 12  2  0  0  0
 12 13  1  0  0  0
 12 14  1  0  0  0
 14 15  2  0  0  0
 15 16  1  0  0  0
 16 17  2  0  0  0
  4  5  1  0  0  0
  5  6  2  0  0  0
  6 28  1  0  0  0
 28 30  1  0  0  0
 30 31  2  0  0  0
 30 32  2  0  0  0
 30 33  1  0  0  0
 33 34  2  0  0  0
 34 35  1  0  0  0
 35 36  2  0  0  0
 36 37  1  0  0  0
 36 38  1  0  0  0
 38 39  2  0  0  0
 39 40  1  0  0  0
  6  1  1  0  0  0
 39 33  1  0  0  0
 17  7  1  0  0  0
 15  9  1  0  0  0
 25 20  1  0  0  0
 13 18  1  0  0  0
 13 19  1  0  0  0
 28 29  1  0  0  0
M  END
> <minimizedAffinity>
-8.80454

> <CNNscore>
0.1080320701

> <CNNaffinity>
6.6667337418

> <CNN_VS>
0.7202210426

> <CNNaffinity_variance>
0.2572121024

$$$$
[H]c1nc(OC([H])([H])[H])c(N([H])S(=O)(=O)c2c([H])c([H])c(F)c([H])c2F)c([H])c1-c1nc([H])c2nc(N([H])[H])c(-c3c([H])c([H])c([H])c([H])c3[H])c([H])c2c1[H]


 40 44  0  0  0  0  0  0  0  0999 V2000
   37.4185   12.2749  -15.9961 C   0  0  0  0  0  0  0  0  0  0  0  0
   36.3274   12.8485  -15.4690 N   0  0  0  0  0  0  0  0  0  0  0  0
   36.3466   13.5428  -14.2882 C   0  0  0  0  0  0  0  0  0  0  0  0
   37.5104   13.6854  -13.5755 C   0  0  0  0  0  0  0  0  0  0  0  0
   38.6419   13.0954  -14.1135 C   0  0  0  0  0  0  0  0  0  0  0  0
   38.6085   12.3921  -15.3159 C   0  0  0  0  0  0  0  0  0  0  0  0
   37.5950   14.4162  -12.3062 C   0  0  0  0  0  0  0  0  0  0  0  0
   36.6761   14.2523  -11.3250 C   0  0  0  0  0  0  0  0  0  0  0  0
   36.7665   14.9553  -10.1162 C   0  0  0  0  0  0  0  0  0  0  0  0
   35.8184   14.7718   -9.1314 C   0  0  0  0  0  0  0  0  0  0  0  0
   35.9567   15.4982   -7.9456 C   0  0  0  0  0  0  0  0  0  0  0  0
   37.0251   16.3695   -7.7923 C   0  0  0  0  0  0  0  0  0  0  0  0
   37.1206   17.0749   -6.5648 N   0  0  0  0  0  0  0  0  0  0  0  0
   37.9418   16.5296   -8.7779 N   0  0  0  0  0  0  0  0  0  0  0  0
   37.8120   15.8329   -9.9196 C   0  0  0  0  0  0  0  0  0  0  0  0
   38.7399   15.9787  -10.9482 C   0  0  0  0  0  0  0  0  0  0  0  0
   38.6166   15.2884  -12.0863 N   0  0  0  0  0  0  0  0  0  0  0  0
   36.9642   16.5449   -5.6859 H   0  0  0  0  0  0  0  0  0  0  0  0
   37.3367   18.0773   -6.5339 H   0  0  0  0  0  0  0  0  0  0  0  0
   34.9617   15.3064   -6.9320 C   0  0  0  0  0  0  0  0  0  0  0  0
   35.0964   14.3178   -5.9862 C   0  0  0  0  0  0  0  0  0  0  0  0
   34.1607   14.1043   -5.0112 C   0  0  0  0  0  0  0  0  0  0  0  0
   33.0403   14.8956   -4.9596 C   0  0  0  0  0  0  0  0  0  0  0  0
   32.8673   15.8973   -5.8891 C   0  0  0  0  0  0  0  0  0  0  0  0
   33.8350   16.0897   -6.8674 C   0  0  0  0  0  0  0  0  0  0  0  0
   36.2128   10.8334  -17.5803 C   0  0  0  0  0  0  0  0  0  0  0  0
   37.3319   11.5751  -17.2136 O   0  0  0  0  0  0  0  0  0  0  0  0
   39.7636   11.7837  -15.8643 N   0  0  0  0  0  0  0  0  0  0  0  0
   39.9392   10.7715  -15.6029 H   0  0  0  0  0  0  0  0  0  0  0  0
   40.8746   12.5958  -16.9124 S   0  0  0  0  0  0  0  0  0  0  0  0
   40.8508   11.9384  -18.2742 O   0  0  0  0  0  0  0  0  0  0  0  0
   40.3962   14.0021  -17.1220 O   0  0  0  0  0  0  0  0  0  0  0  0
   42.4871   12.6316  -16.2895 C   0  0  0  0  0  0  0  0  0  0  0  0
   43.5222   12.0139  -16.9508 C   0  0  0  0  0  0  0  0  0  0  0  0
   44.7962   12.0722  -16.4205 C   0  0  0  0  0  0  0  0  0  0  0  0
   45.0420   12.7384  -15.2431 C   0  0  0  0  0  0  0  0  0  0  0  0
   46.2979   12.8068  -14.7027 F   0  0  0  0  0  0  0  0  0  0  0  0
   44.0111   13.3689  -14.5597 C   0  0  0  0  0  0  0  0  0  0  0  0
   42.7508   13.2923  -15.1152 C   0  0  0  0  0  0  0  0  0  0  0  0
   41.7200   13.8951  -14.4770 F   0  0  0  0  0  0  0  0  0  0  0  0
 26 27  1  0  0  0
 27  1  1  0  0  0
  1  2  2  0  0  0
  2  3  1  0  0  0
  3  4  2  0  0  0
  4  7  1  0  0  0
  7  8  2  0  0  0
  8  9  1  0  0  0
  9 10  2  0  0  0
 10 11  1  0  0  0
 11 20  1  0  0  0
 20 21  2  0  0  0
 21 22  1  0  0  0
 22 23  2  0  0  0
 23 24  1  0  0  0
 24 25  2  0  0  0
 11 12  2  0  0  0
 12 13  1  0  0  0
 12 14  1  0  0  0
 14 15  2  0  0  0
 15 16  1  0  0  0
 16 17  2  0  0  0
  4  5  1  0  0  0
  5  6  2  0  0  0
  6 28  1  0  0  0
 28 30  1  0  0  0
 30 31  2  0  0  0
 30 32  2  0  0  0
 30 33  1  0  0  0
 33 34  2  0  0  0
 34 35  1  0  0  0
 35 36  2  0  0  0
 36 37  1  0  0  0
 36 38  1  0  0  0
 38 39  2  0  0  0
 39 40  1  0  0  0
  6  1  1  0  0  0
 39 33  1  0  0  0
 17  7  1  0  0  0
 15  9  1  0  0  0
 25 20  1  0  0  0
 13 18  1  0  0  0
 13 19  1  0  0  0
 28 29  1  0  0  0
M  END
> <minimizedAffinity>
-9.00750

> <CNNscore>
0.0925864056

> <CNNaffinity>
6.5727782249

> <CNN_VS>
0.6085498929

> <CNNaffinity_variance>
0.1287829280

$$$$
[H]c1nc(OC([H])([H])[H])c(N([H])S(=O)(=O)c2c([H])c([H])c(F)c([H])c2F)c([H])c1-c1nc([H])c2nc(N([H])[H])c(-c3c([H])c([H])c([H])c([H])c3[H])c([H])c2c1[H]


 40 44  0  0  0  0  0  0  0  0999 V2000
   37.5145   12.2279  -15.9283 C   0  0  0  0  0  0  0  0  0  0  0  0
   36.3279   12.7461  -15.5806 N   0  0  0  0  0  0  0  0  0  0  0  0
   36.1629   13.5734  -14.5013 C   0  0  0  0  0  0  0  0  0  0  0  0
   37.2295   13.9168  -13.7093 C   0  0  0  0  0  0  0  0  0  0  0  0
   38.4587   13.3853  -14.0620 C   0  0  0  0  0  0  0  0  0  0  0  0
   38.6126   12.5450  -15.1628 C   0  0  0  0  0  0  0  0  0  0  0  0
   37.1169   14.7974  -12.5413 C   0  0  0  0  0  0  0  0  0  0  0  0
   37.9017   14.6390  -11.4491 C   0  0  0  0  0  0  0  0  0  0  0  0
   37.7860   15.4859  -10.3388 C   0  0  0  0  0  0  0  0  0  0  0  0
   38.5965   15.3049   -9.2374 C   0  0  0  0  0  0  0  0  0  0  0  0
   38.4390   16.1781   -8.1577 C   0  0  0  0  0  0  0  0  0  0  0  0
   37.4886   17.1865   -8.2204 C   0  0  0  0  0  0  0  0  0  0  0  0
   37.3775   18.0489   -7.0991 N   0  0  0  0  0  0  0  0  0  0  0  0
   36.7057   17.3402   -9.3163 N   0  0  0  0  0  0  0  0  0  0  0  0
   36.8542   16.5024  -10.3564 C   0  0  0  0  0  0  0  0  0  0  0  0
   36.0626   16.6383  -11.4945 C   0  0  0  0  0  0  0  0  0  0  0  0
   36.2055   15.8084  -12.5326 N   0  0  0  0  0  0  0  0  0  0  0  0
   38.2534   18.4108   -6.6754 H   0  0  0  0  0  0  0  0  0  0  0  0
   36.4659   18.3136   -6.7102 H   0  0  0  0  0  0  0  0  0  0  0  0
   39.2803   15.9763   -7.0151 C   0  0  0  0  0  0  0  0  0  0  0  0
   40.5210   16.5635   -6.9374 C   0  0  0  0  0  0  0  0  0  0  0  0
   41.3505   16.3838   -5.8643 C   0  0  0  0  0  0  0  0  0  0  0  0
   40.9467   15.5921   -4.8182 C   0  0  0  0  0  0  0  0  0  0  0  0
   39.7107   14.9854   -4.8573 C   0  0  0  0  0  0  0  0  0  0  0  0
   38.8907   15.1867   -5.9607 C   0  0  0  0  0  0  0  0  0  0  0  0
   36.5065   10.8497  -17.6963 C   0  0  0  0  0  0  0  0  0  0  0  0
   37.6169   11.3839  -17.0492 O   0  0  0  0  0  0  0  0  0  0  0  0
   39.8679   11.9965  -15.5212 N   0  0  0  0  0  0  0  0  0  0  0  0
   40.1404   11.0842  -15.0550 H   0  0  0  0  0  0  0  0  0  0  0  0
   40.9511   12.7288  -16.6538 S   0  0  0  0  0  0  0  0  0  0  0  0
   40.8266   12.0307  -17.9896 O   0  0  0  0  0  0  0  0  0  0  0  0
   40.5180   14.1464  -16.8844 O   0  0  0  0  0  0  0  0  0  0  0  0
   42.5955   12.7173  -16.1196 C   0  0  0  0  0  0  0  0  0  0  0  0
   43.5790   12.0914  -16.8485 C   0  0  0  0  0  0  0  0  0  0  0  0
   44.8809   12.1117  -16.3879 C   0  0  0  0  0  0  0  0  0  0  0  0
   45.2053   12.7480  -15.2130 C   0  0  0  0  0  0  0  0  0  0  0  0
   46.4899   12.7784  -14.7410 F   0  0  0  0  0  0  0  0  0  0  0  0
   44.2274   13.3860  -14.4619 C   0  0  0  0  0  0  0  0  0  0  0  0
   42.9373   13.3478  -14.9489 C   0  0  0  0  0  0  0  0  0  0  0  0
   41.9565   13.9591  -14.2435 F   0  0  0  0  0  0  0  0  0  0  0  0
 26 27  1  0  0  0
 27  1  1  0  0  0
  1  2  2  0  0  0
  2  3  1  0  0  0
  3  4  2  0  0  0
  4  7  1  0  0  0
  7  8  2  0  0  0
  8  9  1  0  0  0
  9 10  2  0  0  0
 10 11  1  0  0  0
 11 20  1  0  0  0
 20 21  2  0  0  0
 21 22  1  0  0  0
 22 23  2  0  0  0
 23 24  1  0  0  0
 24 25  2  0  0  0
 11 12  2  0  0  0
 12 13  1  0  0  0
 12 14  1  0  0  0
 14 15  2  0  0  0
 15 16  1  0  0  0
 16 17  2  0  0  0
  4  5  1  0  0  0
  5  6  2  0  0  0
  6 28  1  0  0  0
 28 30  1  0  0  0
 30 31  2  0  0  0
 30 32  2  0  0  0
 30 33  1  0  0  0
 33 34  2  0  0  0
 34 35  1  0  0  0
 35 36  2  0  0  0
 36 37  1  0  0  0
 36 38  1  0  0  0
 38 39  2  0  0  0
 39 40  1  0  0  0
  6  1  1  0  0  0
 39 33  1  0  0  0
 17  7  1  0  0  0
 15  9  1  0  0  0
 25 20  1  0  0  0
 13 18  1  0  0  0
 13 19  1  0  0  0
 28 29  1  0  0  0
M  END
> <minimizedAffinity>
-8.71111

> <CNNscore>
0.0909982920

> <CNNaffinity>
6.5426659584

> <CNN_VS>
0.5953714252

> <CNNaffinity_variance>
0.1618953794

$$$$
[H]c1nc(OC([H])([H])[H])c(N([H])S(=O)(=O)c2c([H])c([H])c(F)c([H])c2F)c([H])c1-c1nc([H])c2nc(N([H])[H])c(-c3c([H])c([H])c([H])c([H])c3[H])c([H])c2c1[H]


 40 44  0  0  0  0  0  0  0  0999 V2000
   35.7032   12.6456  -14.2969 C   0  0  0  0  0  0  0  0  0  0  0  0
   36.0744   12.2869  -15.5342 N   0  0  0  0  0  0  0  0  0  0  0  0
   37.3805   12.2771  -15.9474 C   0  0  0  0  0  0  0  0  0  0  0  0
   38.3906   12.6426  -15.0937 C   0  0  0  0  0  0  0  0  0  0  0  0
   38.0150   13.0146  -13.8137 C   0  0  0  0  0  0  0  0  0  0  0  0
   36.6825   13.0199  -13.4063 C   0  0  0  0  0  0  0  0  0  0  0  0
   39.8068   12.6528  -15.4767 C   0  0  0  0  0  0  0  0  0  0  0  0
   40.7618   13.1695  -14.6674 C   0  0  0  0  0  0  0  0  0  0  0  0
   42.1118   13.1740  -15.0430 C   0  0  0  0  0  0  0  0  0  0  0  0
   43.0668   13.7061  -14.2018 C   0  0  0  0  0  0  0  0  0  0  0  0
   44.3982   13.6849  -14.6260 C   0  0  0  0  0  0  0  0  0  0  0  0
   44.7193   13.1389  -15.8600 C   0  0  0  0  0  0  0  0  0  0  0  0
   46.0875   13.1364  -16.2361 N   0  0  0  0  0  0  0  0  0  0  0  0
   43.7590   12.6232  -16.6659 N   0  0  0  0  0  0  0  0  0  0  0  0
   42.4777   12.6420  -16.2615 C   0  0  0  0  0  0  0  0  0  0  0  0
   41.4716   12.1186  -17.0703 C   0  0  0  0  0  0  0  0  0  0  0  0
   40.1951   12.1340  -16.6737 N   0  0  0  0  0  0  0  0  0  0  0  0
   46.7866   12.8465  -15.5256 H   0  0  0  0  0  0  0  0  0  0  0  0
   46.3888   13.4105  -17.1777 H   0  0  0  0  0  0  0  0  0  0  0  0
   45.3815   14.2477  -13.7482 C   0  0  0  0  0  0  0  0  0  0  0  0
   45.7020   15.5833  -13.8082 C   0  0  0  0  0  0  0  0  0  0  0  0
   46.6414   16.1487  -12.9900 C   0  0  0  0  0  0  0  0  0  0  0  0
   47.2983   15.3702  -12.0698 C   0  0  0  0  0  0  0  0  0  0  0  0
   47.0064   14.0272  -11.9778 C   0  0  0  0  0  0  0  0  0  0  0  0
   46.0475   13.4818  -12.8226 C   0  0  0  0  0  0  0  0  0  0  0  0
   33.4207   13.5467  -14.4373 C   0  0  0  0  0  0  0  0  0  0  0  0
   34.3437   12.6342  -13.9349 O   0  0  0  0  0  0  0  0  0  0  0  0
   36.2966   13.4054  -12.0995 N   0  0  0  0  0  0  0  0  0  0  0  0
   35.7420   12.6978  -11.5378 H   0  0  0  0  0  0  0  0  0  0  0  0
   36.6765   14.9394  -11.3960 S   0  0  0  0  0  0  0  0  0  0  0  0
   38.1019   14.9199  -10.8909 O   0  0  0  0  0  0  0  0  0  0  0  0
   36.6314   15.9848  -12.4710 O   0  0  0  0  0  0  0  0  0  0  0  0
   35.5933   15.3857  -10.1244 C   0  0  0  0  0  0  0  0  0  0  0  0
   36.0298   15.5162   -8.8272 C   0  0  0  0  0  0  0  0  0  0  0  0
   35.1316   15.8804   -7.8431 C   0  0  0  0  0  0  0  0  0  0  0  0
   33.8103   16.1136   -8.1433 C   0  0  0  0  0  0  0  0  0  0  0  0
   32.9060   16.4753   -7.1813 F   0  0  0  0  0  0  0  0  0  0  0  0
   33.3491   15.9873   -9.4466 C   0  0  0  0  0  0  0  0  0  0  0  0
   34.2706   15.6224  -10.4060 C   0  0  0  0  0  0  0  0  0  0  0  0
   33.8576   15.4893  -11.6886 F   0  0  0  0  0  0  0  0  0  0  0  0
 26 27  1  0  0  0
 27  1  1  0  0  0
  1  2  2  0  0  0
  2  3  1  0  0  0
  3  4  2  0  0  0
  4  7  1  0  0  0
  7  8  2  0  0  0
  8  9  1  0  0  0
  9 10  2  0  0  0
 10 11  1  0  0  0
 11 20  1  0  0  0
 20 21  2  0  0  0
 21 22  1  0  0  0
 22 23  2  0  0  0
 23 24  1  0  0  0
 24 25  2  0  0  0
 11 12  2  0  0  0
 12 13  1  0  0  0
 12 14  1  0  0  0
 14 15  2  0  0  0
 15 16  1  0  0  0
 16 17  2  0  0  0
  4  5  1  0  0  0
  5  6  2  0  0  0
  6 28  1  0  0  0
 28 30  1  0  0  0
 30 31  2  0  0  0
 30 32  2  0  0  0
 30 33  1  0  0  0
 33 34  2  0  0  0
 34 35  1  0  0  0
 35 36  2  0  0  0
 36 37  1  0  0  0
 36 38  1  0  0  0
 38 39  2  0  0  0
 39 40  1  0  0  0
  6  1  1  0  0  0
 39 33  1  0  0  0
 17  7  1  0  0  0
 15  9  1  0  0  0
 25 20  1  0  0  0
 13 18  1  0  0  0
 13 19  1  0  0  0
 28 29  1  0  0  0
M  END
> <minimizedAffinity>
-8.83749

> <CNNscore>
0.0884221867

> <CNNaffinity>
6.4555559158

> <CNN_VS>
0.5708143711

> <CNNaffinity_variance>
0.2961989641

$$$$
[H]c1c([H])c(S(=O)(=O)C([H])([H])C([H])([H])C([H])([H])C([H])([H])C([H])([H])C([H])([H])[H])c(Cl)c(Cl)c1C(=O)C([H])([H])C([H])([H])N1C([H])([H])C1([H])C([H])([H])[H]


 25 26  0  0  0  0  0  0  0  0999 V2000
   36.6164   12.8759  -14.6452 C   0  0  0  0  0  0  0  0  0  0  0  0
   37.9073   13.2925  -14.3686 C   0  0  0  0  0  0  0  0  0  0  0  0
   38.9573   12.9091  -15.1593 C   0  0  0  0  0  0  0  0  0  0  0  0
   38.7818   12.1085  -16.2492 C   0  0  0  0  0  0  0  0  0  0  0  0
   37.4842   11.6717  -16.5471 C   0  0  0  0  0  0  0  0  0  0  0  0
   37.2498   10.6309  -17.9509 Cl  0  0  0  0  0  0  0  0  0  0  0  0
   36.4386   12.0618  -15.7415 C   0  0  0  0  0  0  0  0  0  0  0  0
   34.8241   11.5051  -16.1077 Cl  0  0  0  0  0  0  0  0  0  0  0  0
   35.2839   13.4503  -13.6677 S   0  0  0  0  0  0  0  0  0  0  0  0
   34.8278   12.2574  -12.8251 O   0  0  0  0  0  0  0  0  0  0  0  0
   34.1783   13.9783  -14.4905 O   0  0  0  0  0  0  0  0  0  0  0  0
   35.9683   14.6789  -12.5796 C   0  0  0  0  0  0  0  0  0  0  0  0
   36.5020   14.0989  -11.3173 C   0  0  0  0  0  0  0  0  0  0  0  0
   35.8001   14.8366  -10.1656 C   0  0  0  0  0  0  0  0  0  0  0  0
   34.7368   15.7377  -10.7279 C   0  0  0  0  0  0  0  0  0  0  0  0
   33.9684   16.0357   -8.4531 C   0  0  0  0  0  0  0  0  0  0  0  0
   33.5135   15.8979   -9.9007 C   0  0  0  0  0  0  0  0  0  0  0  0
   39.8829   11.7872  -17.1968 C   0  0  0  0  0  0  0  0  0  0  0  0
   39.8426   10.7865  -17.8529 O   0  0  0  0  0  0  0  0  0  0  0  0
   40.9625   12.7708  -17.2292 C   0  0  0  0  0  0  0  0  0  0  0  0
   42.1102   12.5843  -16.3175 C   0  0  0  0  0  0  0  0  0  0  0  0
   43.4246   12.6729  -16.7547 N   0  0  0  0  0  0  0  0  0  0  0  0
   44.6160   12.0437  -16.4427 C   0  0  0  0  0  0  0  0  0  0  0  0
   44.3315   13.4346  -15.8725 C   0  0  0  0  0  0  0  0  0  0  0  0
   43.9961   13.4709  -14.4130 C   0  0  0  0  0  0  0  0  0  0  0  0
 16 17  1  0  0  0
 17 15  1  0  0  0
 15 14  1  0  0  0
 14 13  1  0  0  0
 13 12  1  0  0  0
 12  9  1  0  0  0
  9 10  2  0  0  0
  9 11  2  0  0  0
  9  1  1  0  0  0
  1  2  2  0  0  0
  2  3  1  0  0  0
  3  4  2  0  0  0
  4 18  1  0  0  0
 18 19  2  0  0  0
 18 20  1  0  0  0
 20 21  1  0  0  0
 21 22  1  0  0  0
 22 23  1  0  0  0
 23 24  1  0  0  0
 24 25  1  0  0  0
  4  5  1  0  0  0
  5  6  1  0  0  0
  5  7  2  0  0  0
  7  8  1  0  0  0
  7  1  1  0  0  0
 24 22  1  0  0  0
M  END
> <minimizedAffinity>
-6.48217

> <CNNscore>
0.6362787485

> <CNNaffinity>
7.1150512695

> <CNN_VS>
4.5271558762

> <CNNaffinity_variance>
0.2475747168

$$$$
[H]c1c([H])c(S(=O)(=O)C([H])([H])C([H])([H])C([H])([H])C([H])([H])C([H])([H])C([H])([H])[H])c(Cl)c(Cl)c1C(=O)C([H])([H])C([H])([H])N1C([H])([H])C1([H])C([H])([H])[H]


 25 26  0  0  0  0  0  0  0  0999 V2000
   39.1507   12.8314  -15.7670 C   0  0  0  0  0  0  0  0  0  0  0  0
   39.4696   13.6267  -14.6798 C   0  0  0  0  0  0  0  0  0  0  0  0
   38.5320   13.9325  -13.7300 C   0  0  0  0  0  0  0  0  0  0  0  0
   37.2519   13.4690  -13.8079 C   0  0  0  0  0  0  0  0  0  0  0  0
   36.9050   12.6646  -14.9015 C   0  0  0  0  0  0  0  0  0  0  0  0
   35.2500   12.0667  -15.0130 Cl  0  0  0  0  0  0  0  0  0  0  0  0
   37.8566   12.3683  -15.8507 C   0  0  0  0  0  0  0  0  0  0  0  0
   37.4180   11.3762  -17.2196 Cl  0  0  0  0  0  0  0  0  0  0  0  0
   40.3903   12.3878  -16.9193 S   0  0  0  0  0  0  0  0  0  0  0  0
   40.1998   13.3085  -18.1263 O   0  0  0  0  0  0  0  0  0  0  0  0
   40.3027   10.9674  -17.3105 O   0  0  0  0  0  0  0  0  0  0  0  0
   41.9419   12.7858  -16.1474 C   0  0  0  0  0  0  0  0  0  0  0  0
   43.0969   12.0960  -16.7837 C   0  0  0  0  0  0  0  0  0  0  0  0
   44.3590   12.6057  -16.0692 C   0  0  0  0  0  0  0  0  0  0  0  0
   43.9677   13.6261  -15.0375 C   0  0  0  0  0  0  0  0  0  0  0  0
   43.3258   13.5640  -12.7056 C   0  0  0  0  0  0  0  0  0  0  0  0
   44.4965   13.4038  -13.6673 C   0  0  0  0  0  0  0  0  0  0  0  0
   36.2538   13.6771  -12.7243 C   0  0  0  0  0  0  0  0  0  0  0  0
   36.0906   12.8396  -11.8843 O   0  0  0  0  0  0  0  0  0  0  0  0
   35.5298   14.9436  -12.8006 C   0  0  0  0  0  0  0  0  0  0  0  0
   35.7985   15.9694  -11.7717 C   0  0  0  0  0  0  0  0  0  0  0  0
   37.0862   16.3767  -11.4515 N   0  0  0  0  0  0  0  0  0  0  0  0
   38.0616   15.9659  -10.5612 C   0  0  0  0  0  0  0  0  0  0  0  0
   37.2030   17.1858  -10.2216 C   0  0  0  0  0  0  0  0  0  0  0  0
   36.1725   16.9659   -9.1570 C   0  0  0  0  0  0  0  0  0  0  0  0
 16 17  1  0  0  0
 17 15  1  0  0  0
 15 14  1  0  0  0
 14 13  1  0  0  0
 13 12  1  0  0  0
 12  9  1  0  0  0
  9 10  2  0  0  0
  9 11  2  0  0  0
  9  1  1  0  0  0
  1  2  2  0  0  0
  2  3  1  0  0  0
  3  4  2  0  0  0
  4 18  1  0  0  0
 18 19  2  0  0  0
 18 20  1  0  0  0
 20 21  1  0  0  0
 21 22  1  0  0  0
 22 23  1  0  0  0
 23 24  1  0  0  0
 24 25  1  0  0  0
  4  5  1  0  0  0
  5  6  1  0  0  0
  5  7  2  0  0  0
  7  8  1  0  0  0
  7  1  1  0  0  0
 24 22  1  0  0  0
M  END
> <minimizedAffinity>
-5.99350

> <CNNscore>
0.5878142118

> <CNNaffinity>
6.7928223610

> <CNN_VS>
3.9929175377

> <CNNaffinity_variance>
0.0349144228

$$$$
[H]c1c([H])c(S(=O)(=O)C([H])([H])C([H])([H])C([H])([H])C([H])([H])C([H])([H])C([H])([H])[H])c(Cl)c(Cl)c1C(=O)C([H])([H])C([H])([H])N1C([H])([H])C1([H])C([H])([H])[H]


 25 26  0  0  0  0  0  0  0  0999 V2000
   37.2413   13.7093  -13.8695 C   0  0  0  0  0  0  0  0  0  0  0  0
   38.2836   14.5556  -13.5323 C   0  0  0  0  0  0  0  0  0  0  0  0
   39.4918   14.4768  -14.1717 C   0  0  0  0  0  0  0  0  0  0  0  0
   39.7220   13.5709  -15.1648 C   0  0  0  0  0  0  0  0  0  0  0  0
   38.6825   12.7015  -15.5211 C   0  0  0  0  0  0  0  0  0  0  0  0
   38.9743   11.5229  -16.7997 Cl  0  0  0  0  0  0  0  0  0  0  0  0
   37.4745   12.7894  -14.8674 C   0  0  0  0  0  0  0  0  0  0  0  0
   36.1848   11.6957  -15.3046 Cl  0  0  0  0  0  0  0  0  0  0  0  0
   35.6831   13.8894  -13.0946 S   0  0  0  0  0  0  0  0  0  0  0  0
   35.5019   12.6549  -12.2091 O   0  0  0  0  0  0  0  0  0  0  0  0
   34.5860   14.0110  -14.0743 O   0  0  0  0  0  0  0  0  0  0  0  0
   35.8197   15.3189  -12.0460 C   0  0  0  0  0  0  0  0  0  0  0  0
   35.9974   14.9672  -10.6109 C   0  0  0  0  0  0  0  0  0  0  0  0
   35.6211   16.2199   -9.8033 C   0  0  0  0  0  0  0  0  0  0  0  0
   34.7439   15.8220   -8.6496 C   0  0  0  0  0  0  0  0  0  0  0  0
   34.8263   16.6166   -6.3659 C   0  0  0  0  0  0  0  0  0  0  0  0
   34.2959   16.9244   -7.7606 C   0  0  0  0  0  0  0  0  0  0  0  0
   40.9778   13.5537  -15.9624 C   0  0  0  0  0  0  0  0  0  0  0  0
   40.9779   13.9349  -17.0974 O   0  0  0  0  0  0  0  0  0  0  0  0
   42.1440   13.0405  -15.2479 C   0  0  0  0  0  0  0  0  0  0  0  0
   43.4700   13.6084  -15.5681 C   0  0  0  0  0  0  0  0  0  0  0  0
   44.3152   13.0315  -16.5059 N   0  0  0  0  0  0  0  0  0  0  0  0
   44.8000   11.7596  -16.7515 C   0  0  0  0  0  0  0  0  0  0  0  0
   45.6932   12.7777  -16.0396 C   0  0  0  0  0  0  0  0  0  0  0  0
   45.8874   12.5426  -14.5730 C   0  0  0  0  0  0  0  0  0  0  0  0
 16 17  1  0  0  0
 17 15  1  0  0  0
 15 14  1  0  0  0
 14 13  1  0  0  0
 13 12  1  0  0  0
 12  9  1  0  0  0
  9 10  2  0  0  0
  9 11  2  0  0  0
  9  1  1  0  0  0
  1  2  2  0  0  0
  2  3  1  0  0  0
  3  4  2  0  0  0
  4 18  1  0  0  0
 18 19  2  0  0  0
 18 20  1  0  0  0
 20 21  1  0  0  0
 21 22  1  0  0  0
 22 23  1  0  0  0
 23 24  1  0  0  0
 24 25  1  0  0  0
  4  5  1  0  0  0
  5  6  1  0  0  0
  5  7  2  0  0  0
  7  8  1  0  0  0
  7  1  1  0  0  0
 24 22  1  0  0  0
M  END
> <minimizedAffinity>
-5.81907

> <CNNscore>
0.3648318648

> <CNNaffinity>
6.2074441910

> <CNN_VS>
2.2646734715

> <CNNaffinity_variance>
0.2641936541

$$$$
[H]c1c([H])c(S(=O)(=O)C([H])([H])C([H])([H])C([H])([H])C([H])([H])C([H])([H])C([H])([H])[H])c(Cl)c(Cl)c1C(=O)C([H])([H])C([H])([H])N1C([H])([H])C1([H])C([H])([H])[H]


 25 26  0  0  0  0  0  0  0  0999 V2000
   37.1885   13.2079  -13.9500 C   0  0  0  0  0  0  0  0  0  0  0  0
   38.2551   14.0004  -13.5616 C   0  0  0  0  0  0  0  0  0  0  0  0
   39.4083   14.0424  -14.2984 C   0  0  0  0  0  0  0  0  0  0  0  0
   39.5578   13.3143  -15.4418 C   0  0  0  0  0  0  0  0  0  0  0  0
   38.4926   12.5022  -15.8531 C   0  0  0  0  0  0  0  0  0  0  0  0
   38.6805   11.5528  -17.3268 Cl  0  0  0  0  0  0  0  0  0  0  0  0
   37.3407   12.4670  -15.1007 C   0  0  0  0  0  0  0  0  0  0  0  0
   36.0194   11.4438  -15.6086 Cl  0  0  0  0  0  0  0  0  0  0  0  0
   35.6972   13.2394  -13.0357 S   0  0  0  0  0  0  0  0  0  0  0  0
   35.4480   11.8014  -12.5765 O   0  0  0  0  0  0  0  0  0  0  0  0
   34.5662   13.7498  -13.8347 O   0  0  0  0  0  0  0  0  0  0  0  0
   36.0226   14.2394  -11.6018 C   0  0  0  0  0  0  0  0  0  0  0  0
   35.3513   15.5664  -11.6591 C   0  0  0  0  0  0  0  0  0  0  0  0
   36.4063   16.6085  -11.2542 C   0  0  0  0  0  0  0  0  0  0  0  0
   37.4906   15.9352  -10.4606 C   0  0  0  0  0  0  0  0  0  0  0  0
   39.8041   16.2909  -11.0726 C   0  0  0  0  0  0  0  0  0  0  0  0
   38.6845   16.7638  -10.1538 C   0  0  0  0  0  0  0  0  0  0  0  0
   40.7460   13.4435  -16.3279 C   0  0  0  0  0  0  0  0  0  0  0  0
   40.7067   14.1530  -17.2915 O   0  0  0  0  0  0  0  0  0  0  0  0
   41.8990   12.6457  -15.9179 C   0  0  0  0  0  0  0  0  0  0  0  0
   42.9726   13.3069  -15.1475 C   0  0  0  0  0  0  0  0  0  0  0  0
   44.2259   13.5564  -15.6892 N   0  0  0  0  0  0  0  0  0  0  0  0
   45.4953   13.0308  -15.5304 C   0  0  0  0  0  0  0  0  0  0  0  0
   45.1358   14.3448  -14.8338 C   0  0  0  0  0  0  0  0  0  0  0  0
   44.9368   14.2494  -13.3523 C   0  0  0  0  0  0  0  0  0  0  0  0
 16 17  1  0  0  0
 17 15  1  0  0  0
 15 14  1  0  0  0
 14 13  1  0  0  0
 13 12  1  0  0  0
 12  9  1  0  0  0
  9 10  2  0  0  0
  9 11  2  0  0  0
  9  1  1  0  0  0
  1  2  2  0  0  0
  2  3  1  0  0  0
  3  4  2  0  0  0
  4 18  1  0  0  0
 18 19  2  0  0  0
 18 20  1  0  0  0
 20 21  1  0  0  0
 21 22  1  0  0  0
 22 23  1  0  0  0
 23 24  1  0  0  0
 24 25  1  0  0  0
  4  5  1  0  0  0
  5  6  1  0  0  0
  5  7  2  0  0  0
  7  8  1  0  0  0
  7  1  1  0  0  0
 24 22  1  0  0  0
M  END
> <minimizedAffinity>
-6.15145

> <CNNscore>
0.2612954676

> <CNNaffinity>
6.2054071426

> <CNN_VS>
1.6214447021

> <CNNaffinity_variance>
0.1474000812

$$$$
[H]c1c([H])c(S(=O)(=O)C([H])([H])C([H])([H])C([H])([H])C([H])([H])C([H])([H])C([H])([H])[H])c(Cl)c(Cl)c1C(=O)C([H])([H])C([H])([H])N1C([H])([H])C1([H])C([H])([H])[H]


 25 26  0  0  0  0  0  0  0  0999 V2000
   36.2966   11.8326  -15.7705 C   0  0  0  0  0  0  0  0  0  0  0  0
   37.5468   12.1791  -15.2875 C   0  0  0  0  0  0  0  0  0  0  0  0
   37.6805   12.9461  -14.1613 C   0  0  0  0  0  0  0  0  0  0  0  0
   36.5977   13.3981  -13.4664 C   0  0  0  0  0  0  0  0  0  0  0  0
   35.3217   13.0626  -13.9383 C   0  0  0  0  0  0  0  0  0  0  0  0
   33.9164   13.6486  -13.0492 Cl  0  0  0  0  0  0  0  0  0  0  0  0
   35.2021   12.2940  -15.0738 C   0  0  0  0  0  0  0  0  0  0  0  0
   33.6102   11.8884  -15.6672 Cl  0  0  0  0  0  0  0  0  0  0  0  0
   36.1574   10.7815  -17.1622 S   0  0  0  0  0  0  0  0  0  0  0  0
   35.5028   11.6171  -18.2641 O   0  0  0  0  0  0  0  0  0  0  0  0
   35.3665    9.5708  -16.8673 O   0  0  0  0  0  0  0  0  0  0  0  0
   37.8223   10.4019  -17.6580 C   0  0  0  0  0  0  0  0  0  0  0  0
   38.0768   10.6915  -19.0954 C   0  0  0  0  0  0  0  0  0  0  0  0
   39.5225   11.2056  -19.1891 C   0  0  0  0  0  0  0  0  0  0  0  0
   40.0531   11.4508  -17.8045 C   0  0  0  0  0  0  0  0  0  0  0  0
   41.2727   12.8082  -16.2159 C   0  0  0  0  0  0  0  0  0  0  0  0
   40.4457   12.8495  -17.4948 C   0  0  0  0  0  0  0  0  0  0  0  0
   36.7174   14.1191  -12.1705 C   0  0  0  0  0  0  0  0  0  0  0  0
   36.3060   13.6216  -11.1621 O   0  0  0  0  0  0  0  0  0  0  0  0
   37.3504   15.4324  -12.2624 C   0  0  0  0  0  0  0  0  0  0  0  0
   38.7684   15.5580  -11.8666 C   0  0  0  0  0  0  0  0  0  0  0  0
   39.7712   15.8364  -12.7850 N   0  0  0  0  0  0  0  0  0  0  0  0
   40.9410   15.2199  -13.1905 C   0  0  0  0  0  0  0  0  0  0  0  0
   41.0128   16.3937  -12.2117 C   0  0  0  0  0  0  0  0  0  0  0  0
   41.3383   16.0269  -10.7963 C   0  0  0  0  0  0  0  0  0  0  0  0
 16 17  1  0  0  0
 17 15  1  0  0  0
 15 14  1  0  0  0
 14 13  1  0  0  0
 13 12  1  0  0  0
 12  9  1  0  0  0
  9 10  2  0  0  0
  9 11  2  0  0  0
  9  1  1  0  0  0
  1  2  2  0  0  0
  2  3  1  0  0  0
  3  4  2  0  0  0
  4 18  1  0  0  0
 18 19  2  0  0  0
 18 20  1  0  0  0
 20 21  1  0  0  0
 21 22  1  0  0  0
 22 23  1  0  0  0
 23 24  1  0  0  0
 24 25  1  0  0  0
  4  5  1  0  0  0
  5  6  1  0  0  0
  5  7  2  0  0  0
  7  8  1  0  0  0
  7  1  1  0  0  0
 24 22  1  0  0  0
M  END
> <minimizedAffinity>
-6.63403

> <CNNscore>
0.2506781816

> <CNNaffinity>
6.5914697647

> <CNN_VS>
1.6523376703

> <CNNaffinity_variance>
0.1164442524

$$$$
[H]c1c([H])c(S(=O)(=O)C([H])([H])C([H])([H])C([H])([H])C([H])([H])C([H])([H])C([H])([H])[H])c(Cl)c(Cl)c1C(=O)C([H])([H])C([H])([H])N1C([H])([H])C1([H])C([H])([H])[H]


 25 26  0  0  0  0  0  0  0  0999 V2000
   41.5857   13.2162  -15.2853 C   0  0  0  0  0  0  0  0  0  0  0  0
   41.4366   13.9025  -14.0923 C   0  0  0  0  0  0  0  0  0  0  0  0
   42.5224   14.2247  -13.3230 C   0  0  0  0  0  0  0  0  0  0  0  0
   43.7914   13.8906  -13.6944 C   0  0  0  0  0  0  0  0  0  0  0  0
   43.9666   13.1927  -14.8967 C   0  0  0  0  0  0  0  0  0  0  0  0
   45.6036   12.7512  -15.3808 Cl  0  0  0  0  0  0  0  0  0  0  0  0
   42.8659   12.8721  -15.6582 C   0  0  0  0  0  0  0  0  0  0  0  0
   43.0862   11.9907  -17.1500 Cl  0  0  0  0  0  0  0  0  0  0  0  0
   40.1892   12.8929  -16.2884 S   0  0  0  0  0  0  0  0  0  0  0  0
   40.1563   11.3777  -16.4982 O   0  0  0  0  0  0  0  0  0  0  0  0
   40.2523   13.6103  -17.5767 O   0  0  0  0  0  0  0  0  0  0  0  0
   38.7722   13.3578  -15.3202 C   0  0  0  0  0  0  0  0  0  0  0  0
   37.8338   12.2258  -15.0901 C   0  0  0  0  0  0  0  0  0  0  0  0
   37.5929   12.1583  -13.5733 C   0  0  0  0  0  0  0  0  0  0  0  0
   36.1142   12.1618  -13.3047 C   0  0  0  0  0  0  0  0  0  0  0  0
   34.1154   11.9670  -14.6540 C   0  0  0  0  0  0  0  0  0  0  0  0
   35.2740   12.8877  -14.2914 C   0  0  0  0  0  0  0  0  0  0  0  0
   44.9943   14.3431  -12.9449 C   0  0  0  0  0  0  0  0  0  0  0  0
   45.6343   13.5623  -12.3013 O   0  0  0  0  0  0  0  0  0  0  0  0
   45.2860   15.7692  -13.0687 C   0  0  0  0  0  0  0  0  0  0  0  0
   45.8053   16.2707  -14.3579 C   0  0  0  0  0  0  0  0  0  0  0  0
   46.8669   17.1619  -14.4317 N   0  0  0  0  0  0  0  0  0  0  0  0
   47.7332   17.5894  -15.4213 C   0  0  0  0  0  0  0  0  0  0  0  0
   48.2088   16.5457  -14.4087 C   0  0  0  0  0  0  0  0  0  0  0  0
   48.3304   15.1499  -14.9385 C   0  0  0  0  0  0  0  0  0  0  0  0
 16 17  1  0  0  0
 17 15  1  0  0  0
 15 14  1  0  0  0
 14 13  1  0  0  0
 13 12  1  0  0  0
 12  9  1  0  0  0
  9 10  2  0  0  0
  9 11  2  0  0  0
  9  1  1  0  0  0
  1  2  2  0  0  0
  2  3  1  0  0  0
  3  4  2  0  0  0
  4 18  1  0  0  0
 18 19  2  0  0  0
 18 20  1  0  0  0
 20 21  1  0  0  0
 21 22  1  0  0  0
 22 23  1  0  0  0
 23 24  1  0  0  0
 24 25  1  0  0  0
  4  5  1  0  0  0
  5  6  1  0  0  0
  5  7  2  0  0  0
  7  8  1  0  0  0
  7  1  1  0  0  0
 24 22  1  0  0  0
M  END
> <minimizedAffinity>
-5.21754

> <CNNscore>
0.2484213412

> <CNNaffinity>
6.0501947403

> <CNN_VS>
1.5029975176

> <CNNaffinity_variance>
0.0225138161

$$$$
[H]c1c([H])c(S(=O)(=O)C([H])([H])C([H])([H])C([H])([H])C([H])([H])C([H])([H])C([H])([H])[H])c(Cl)c(Cl)c1C(=O)C([H])([H])C([H])([H])N1C([H])([H])C1([H])C([H])([H])[H]


 25 26  0  0  0  0  0  0  0  0999 V2000
   42.0334   13.1666  -15.3445 C   0  0  0  0  0  0  0  0  0  0  0  0
   41.7617   13.6637  -14.0813 C   0  0  0  0  0  0  0  0  0  0  0  0
   42.7647   13.8652  -13.1714 C   0  0  0  0  0  0  0  0  0  0  0  0
   44.0679   13.5912  -13.4654 C   0  0  0  0  0  0  0  0  0  0  0  0
   44.3667   13.0841  -14.7369 C   0  0  0  0  0  0  0  0  0  0  0  0
   46.0485   12.7211  -15.1225 Cl  0  0  0  0  0  0  0  0  0  0  0  0
   43.3481   12.8830  -15.6403 C   0  0  0  0  0  0  0  0  0  0  0  0
   43.7219   12.2384  -17.2200 Cl  0  0  0  0  0  0  0  0  0  0  0  0
   40.7434   12.9995  -16.5145 S   0  0  0  0  0  0  0  0  0  0  0  0
   40.9238   11.6215  -17.1544 O   0  0  0  0  0  0  0  0  0  0  0  0
   40.7728   14.0695  -17.5306 O   0  0  0  0  0  0  0  0  0  0  0  0
   39.2313   12.9918  -15.5789 C   0  0  0  0  0  0  0  0  0  0  0  0
   38.2693   11.9566  -16.0454 C   0  0  0  0  0  0  0  0  0  0  0  0
   37.1755   11.8590  -14.9696 C   0  0  0  0  0  0  0  0  0  0  0  0
   35.8890   12.4093  -15.5180 C   0  0  0  0  0  0  0  0  0  0  0  0
   36.1513   13.7750  -13.5382 C   0  0  0  0  0  0  0  0  0  0  0  0
   35.3249   13.5832  -14.8037 C   0  0  0  0  0  0  0  0  0  0  0  0
   45.1875   13.9246  -12.5439 C   0  0  0  0  0  0  0  0  0  0  0  0
   45.7812   13.0544  -11.9750 O   0  0  0  0  0  0  0  0  0  0  0  0
   45.4605   15.3537  -12.4121 C   0  0  0  0  0  0  0  0  0  0  0  0
   44.6883   16.1275  -11.4180 C   0  0  0  0  0  0  0  0  0  0  0  0
   44.5494   15.7106  -10.1014 N   0  0  0  0  0  0  0  0  0  0  0  0
   43.9226   14.6596   -9.4570 C   0  0  0  0  0  0  0  0  0  0  0  0
   43.2539   16.0356   -9.4715 C   0  0  0  0  0  0  0  0  0  0  0  0
   42.0653   16.1593  -10.3747 C   0  0  0  0  0  0  0  0  0  0  0  0
 16 17  1  0  0  0
 17 15  1  0  0  0
 15 14  1  0  0  0
 14 13  1  0  0  0
 13 12  1  0  0  0
 12  9  1  0  0  0
  9 10  2  0  0  0
  9 11  2  0  0  0
  9  1  1  0  0  0
  1  2  2  0  0  0
  2  3  1  0  0  0
  3  4  2  0  0  0
  4 18  1  0  0  0
 18 19  2  0  0  0
 18 20  1  0  0  0
 20 21  1  0  0  0
 21 22  1  0  0  0
 22 23  1  0  0  0
 23 24  1  0  0  0
 24 25  1  0  0  0
  4  5  1  0  0  0
  5  6  1  0  0  0
  5  7  2  0  0  0
  7  8  1  0  0  0
  7  1  1  0  0  0
 24 22  1  0  0  0
M  END
> <minimizedAffinity>
-5.21470

> <CNNscore>
0.2219203115

> <CNNaffinity>
6.0175399780

> <CNN_VS>
1.3354142904

> <CNNaffinity_variance>
0.0350661501

$$$$
[H]c1c([H])c(S(=O)(=O)C([H])([H])C([H])([H])C([H])([H])C([H])([H])C([H])([H])C([H])([H])[H])c(Cl)c(Cl)c1C(=O)C([H])([H])C([H])([H])N1C([H])([H])C1([H])C([H])([H])[H]


 25 26  0  0  0  0  0  0  0  0999 V2000
   37.0517   13.8726  -12.8340 C   0  0  0  0  0  0  0  0  0  0  0  0
   36.9940   14.9681  -11.9896 C   0  0  0  0  0  0  0  0  0  0  0  0
   38.1124   15.7100  -11.7187 C   0  0  0  0  0  0  0  0  0  0  0  0
   39.3247   15.4093  -12.2660 C   0  0  0  0  0  0  0  0  0  0  0  0
   39.4082   14.3027  -13.1215 C   0  0  0  0  0  0  0  0  0  0  0  0
   40.9734   13.9034  -13.8281 Cl  0  0  0  0  0  0  0  0  0  0  0  0
   38.2767   13.5637  -13.3821 C   0  0  0  0  0  0  0  0  0  0  0  0
   38.3863   12.1771  -14.4385 Cl  0  0  0  0  0  0  0  0  0  0  0  0
   35.5906   12.9949  -13.2286 S   0  0  0  0  0  0  0  0  0  0  0  0
   34.4265   13.9164  -12.8591 O   0  0  0  0  0  0  0  0  0  0  0  0
   35.5039   11.7086  -12.5101 O   0  0  0  0  0  0  0  0  0  0  0  0
   35.6054   12.7875  -14.9945 C   0  0  0  0  0  0  0  0  0  0  0  0
   34.5397   11.8673  -15.4766 C   0  0  0  0  0  0  0  0  0  0  0  0
   35.0497   11.2581  -16.7926 C   0  0  0  0  0  0  0  0  0  0  0  0
   36.5495   11.3451  -16.8318 C   0  0  0  0  0  0  0  0  0  0  0  0
   38.6955   10.9574  -17.8798 C   0  0  0  0  0  0  0  0  0  0  0  0
   37.2187   10.5849  -17.9183 C   0  0  0  0  0  0  0  0  0  0  0  0
   40.5224   16.2749  -12.0927 C   0  0  0  0  0  0  0  0  0  0  0  0
   40.8172   17.0738  -12.9343 O   0  0  0  0  0  0  0  0  0  0  0  0
   41.2618   16.0475  -10.8535 C   0  0  0  0  0  0  0  0  0  0  0  0
   40.4978   15.8877   -9.5989 C   0  0  0  0  0  0  0  0  0  0  0  0
   41.0930   15.4632   -8.4190 N   0  0  0  0  0  0  0  0  0  0  0  0
   40.9321   14.3922   -7.5588 C   0  0  0  0  0  0  0  0  0  0  0  0
   40.3263   15.7477   -7.1893 C   0  0  0  0  0  0  0  0  0  0  0  0
   38.8366   15.8384   -7.3168 C   0  0  0  0  0  0  0  0  0  0  0  0
 16 17  1  0  0  0
 17 15  1  0  0  0
 15 14  1  0  0  0
 14 13  1  0  0  0
 13 12  1  0  0  0
 12  9  1  0  0  0
  9 10  2  0  0  0
  9 11  2  0  0  0
  9  1  1  0  0  0
  1  2  2  0  0  0
  2  3  1  0  0  0
  3  4  2  0  0  0
  4 18  1  0  0  0
 18 19  2  0  0  0
 18 20  1  0  0  0
 20 21  1  0  0  0
 21 22  1  0  0  0
 22 23  1  0  0  0
 23 24  1  0  0  0
 24 25  1  0  0  0
  4  5  1  0  0  0
  5  6  1  0  0  0
  5  7  2  0  0  0
  7  8  1  0  0  0
  7  1  1  0  0  0
 24 22  1  0  0  0
M  END
> <minimizedAffinity>
-6.00894

> <CNNscore>
0.2012026459

> <CNNaffinity>
6.2386341095

> <CNN_VS>
1.2552297115

> <CNNaffinity_variance>
0.0490534753

$$$$
[H]c1c([H])c(S(=O)(=O)C([H])([H])C([H])([H])C([H])([H])C([H])([H])C([H])([H])C([H])([H])[H])c(Cl)c(Cl)c1C(=O)C([H])([H])C([H])([H])N1C([H])([H])C1([H])C([H])([H])[H]


 25 26  0  0  0  0  0  0  0  0999 V2000
   42.8242   13.6595  -14.6050 C   0  0  0  0  0  0  0  0  0  0  0  0
   41.6770   13.9852  -13.9019 C   0  0  0  0  0  0  0  0  0  0  0  0
   40.4416   13.6015  -14.3503 C   0  0  0  0  0  0  0  0  0  0  0  0
   40.2847   12.8836  -15.4991 C   0  0  0  0  0  0  0  0  0  0  0  0
   41.4316   12.5451  -16.2295 C   0  0  0  0  0  0  0  0  0  0  0  0
   41.2367   11.6226  -17.7194 Cl  0  0  0  0  0  0  0  0  0  0  0  0
   42.6668   12.9405  -15.7688 C   0  0  0  0  0  0  0  0  0  0  0  0
   44.0936   12.5284  -16.6881 Cl  0  0  0  0  0  0  0  0  0  0  0  0
   44.3943   14.0897  -13.9641 S   0  0  0  0  0  0  0  0  0  0  0  0
   44.9576   15.1616  -14.8992 O   0  0  0  0  0  0  0  0  0  0  0  0
   45.2975   12.9256  -13.8786 O   0  0  0  0  0  0  0  0  0  0  0  0
   44.0893   14.8314  -12.3771 C   0  0  0  0  0  0  0  0  0  0  0  0
   43.9132   16.3072  -12.4540 C   0  0  0  0  0  0  0  0  0  0  0  0
   44.9131   16.9197  -11.4599 C   0  0  0  0  0  0  0  0  0  0  0  0
   45.7580   17.9396  -12.1702 C   0  0  0  0  0  0  0  0  0  0  0  0
   44.6416   19.8141  -13.2160 C   0  0  0  0  0  0  0  0  0  0  0  0
   45.2315   18.4323  -13.4688 C   0  0  0  0  0  0  0  0  0  0  0  0
   38.9694   12.3431  -15.9365 C   0  0  0  0  0  0  0  0  0  0  0  0
   38.5767   12.5373  -17.0507 O   0  0  0  0  0  0  0  0  0  0  0  0
   38.2471   11.5975  -14.9086 C   0  0  0  0  0  0  0  0  0  0  0  0
   37.0751   12.2336  -14.2723 C   0  0  0  0  0  0  0  0  0  0  0  0
   36.8720   13.6064  -14.3004 N   0  0  0  0  0  0  0  0  0  0  0  0
   36.2130   14.5259  -13.5048 C   0  0  0  0  0  0  0  0  0  0  0  0
   35.5481   14.0369  -14.7932 C   0  0  0  0  0  0  0  0  0  0  0  0
   34.4048   13.0882  -14.6023 C   0  0  0  0  0  0  0  0  0  0  0  0
 16 17  1  0  0  0
 17 15  1  0  0  0
 15 14  1  0  0  0
 14 13  1  0  0  0
 13 12  1  0  0  0
 12  9  1  0  0  0
  9 10  2  0  0  0
  9 11  2  0  0  0
  9  1  1  0  0  0
  1  2  2  0  0  0
  2  3  1  0  0  0
  3  4  2  0  0  0
  4 18  1  0  0  0
 18 19  2  0  0  0
 18 20  1  0  0  0
 20 21  1  0  0  0
 21 22  1  0  0  0
 22 23  1  0  0  0
 23 24  1  0  0  0
 24 25  1  0  0  0
  4  5  1  0  0  0
  5  6  1  0  0  0
  5  7  2  0  0  0
  7  8  1  0  0  0
  7  1  1  0  0  0
 24 22  1  0  0  0
M  END
> <minimizedAffinity>
-5.71208

> <CNNscore>
0.2010301650

> <CNNaffinity>
6.2371773720

> <CNN_VS>
1.2538608313

> <CNNaffinity_variance>
0.1204306632

$$$$
[H]OC([H])([H])C([H])([H])N1C([H])([H])C([H])([H])N(c2c(Cl)c([H])c3nc(SC(C([H])([H])[H])(C([H])([H])[H])C([H])([H])[H])n([H])c3c2[H])[C@]([H])(C([H])([H])[H])C1([H])[H]


 27 29  0  0  0  0  0  0  0  0999 V2000
   38.3290   13.3380  -14.5147 C   0  0  0  0  0  0  0  0  0  0  0  0
   39.6472   13.6612  -14.1488 C   0  0  0  0  0  0  0  0  0  0  0  0
   40.7293   13.3316  -14.9286 C   0  0  0  0  0  0  0  0  0  0  0  0
   42.0469   13.5466  -14.7589 N   0  0  0  0  0  0  0  0  0  0  0  0
   42.6547   13.0117  -15.8327 C   0  0  0  0  0  0  0  0  0  0  0  0
   41.7380   12.4750  -16.6541 N   0  0  0  0  0  0  0  0  0  0  0  0
   40.5161   12.6489  -16.1333 C   0  0  0  0  0  0  0  0  0  0  0  0
   39.2288   12.3242  -16.5071 C   0  0  0  0  0  0  0  0  0  0  0  0
   38.1436   12.6652  -15.7049 C   0  0  0  0  0  0  0  0  0  0  0  0
   36.5526   12.1819  -16.2623 Cl  0  0  0  0  0  0  0  0  0  0  0  0
   42.4694   14.0372  -13.9384 H   0  0  0  0  0  0  0  0  0  0  0  0
   36.3779   11.5437  -12.9036 C   0  0  0  0  0  0  0  0  0  0  0  0
   36.5597   12.9859  -12.7076 C   0  0  0  0  0  0  0  0  0  0  0  0
   35.1411   13.5688  -12.6645 C   0  0  0  0  0  0  0  0  0  0  0  0
   35.1801   14.7695  -11.8845 N   0  0  0  0  0  0  0  0  0  0  0  0
   36.2864   15.5408  -12.3110 C   0  0  0  0  0  0  0  0  0  0  0  0
   36.7966   15.1022  -13.7091 C   0  0  0  0  0  0  0  0  0  0  0  0
   37.2750   13.7374  -13.6848 N   0  0  0  0  0  0  0  0  0  0  0  0
   33.8937   15.3801  -11.9334 C   0  0  0  0  0  0  0  0  0  0  0  0
   32.7853   14.5479  -12.4786 C   0  0  0  0  0  0  0  0  0  0  0  0
   31.8445   14.3646  -11.4456 O   0  0  0  0  0  0  0  0  0  0  0  0
   32.0178   14.9506  -10.6766 H   0  0  0  0  0  0  0  0  0  0  0  0
   44.4186   13.0330  -16.0901 S   0  0  0  0  0  0  0  0  0  0  0  0
   45.1806   13.6342  -14.5474 C   0  0  0  0  0  0  0  0  0  0  0  0
   46.6397   13.2567  -14.5858 C   0  0  0  0  0  0  0  0  0  0  0  0
   45.1059   15.1485  -14.5281 C   0  0  0  0  0  0  0  0  0  0  0  0
   44.4371   13.0198  -13.4009 C   0  0  0  0  0  0  0  0  0  0  0  0
 12 13  1  0  0  0
 13 14  1  0  0  0
 14 15  1  0  0  0
 15 19  1  0  0  0
 19 20  1  0  0  0
 20 21  1  0  0  0
 15 16  1  0  0  0
 16 17  1  0  0  0
 17 18  1  0  0  0
 18  1  1  0  0  0
  1  2  2  0  0  0
  2  3  1  0  0  0
  3  4  1  0  0  0
  4  5  1  0  0  0
  5 23  1  0  0  0
 23 24  1  0  0  0
 24 25  1  0  0  0
 24 26  1  0  0  0
 24 27  1  0  0  0
  5  6  2  0  0  0
  6  7  1  0  0  0
  7  8  1  0  0  0
  8  9  2  0  0  0
  9 10  1  0  0  0
 18 13  1  0  0  0
  9  1  1  0  0  0
  7  3  2  0  0  0
 21 22  1  0  0  0
  4 11  1  0  0  0
M  END
> <minimizedAffinity>
-6.80180

> <CNNscore>
0.4782596827

> <CNNaffinity>
6.7890291214

> <CNN_VS>
3.2469189167

> <CNNaffinity_variance>
0.3659923673

$$$$
[H]OC([H])([H])C([H])([H])N1C([H])([H])C([H])([H])N(c2c(Cl)c([H])c3nc(SC(C([H])([H])[H])(C([H])([H])[H])C([H])([H])[H])n([H])c3c2[H])[C@]([H])(C([H])([H])[H])C1([H])[H]


 27 29  0  0  0  0  0  0  0  0999 V2000
   43.4972   13.7908  -14.0418 C   0  0  0  0  0  0  0  0  0  0  0  0
   42.1209   13.8825  -13.7708 C   0  0  0  0  0  0  0  0  0  0  0  0
   41.1669   13.4025  -14.6352 C   0  0  0  0  0  0  0  0  0  0  0  0
   39.8233   13.3935  -14.5617 N   0  0  0  0  0  0  0  0  0  0  0  0
   39.3909   12.7967  -15.6866 C   0  0  0  0  0  0  0  0  0  0  0  0
   40.4402   12.4412  -16.4453 N   0  0  0  0  0  0  0  0  0  0  0  0
   41.5761   12.7984  -15.8313 C   0  0  0  0  0  0  0  0  0  0  0  0
   42.9228   12.7004  -16.1125 C   0  0  0  0  0  0  0  0  0  0  0  0
   43.8761   13.1925  -15.2258 C   0  0  0  0  0  0  0  0  0  0  0  0
   45.5594   13.0389  -15.6935 Cl  0  0  0  0  0  0  0  0  0  0  0  0
   39.2677   13.7846  -13.7675 H   0  0  0  0  0  0  0  0  0  0  0  0
   45.2622   16.3361  -14.2114 C   0  0  0  0  0  0  0  0  0  0  0  0
   45.0064   15.5625  -12.9916 C   0  0  0  0  0  0  0  0  0  0  0  0
   46.3847   15.3534  -12.3507 C   0  0  0  0  0  0  0  0  0  0  0  0
   46.1965   15.1953  -10.9396 N   0  0  0  0  0  0  0  0  0  0  0  0
   45.1357   14.2829  -10.7321 C   0  0  0  0  0  0  0  0  0  0  0  0
   44.8416   13.4356  -11.9982 C   0  0  0  0  0  0  0  0  0  0  0  0
   44.4105   14.2722  -13.0966 N   0  0  0  0  0  0  0  0  0  0  0  0
   47.4559   14.8860  -10.3493 C   0  0  0  0  0  0  0  0  0  0  0  0
   47.4180   14.1858   -9.0353 C   0  0  0  0  0  0  0  0  0  0  0  0
   48.3723   13.1498   -9.0787 O   0  0  0  0  0  0  0  0  0  0  0  0
   48.9633   13.2213   -9.8600 H   0  0  0  0  0  0  0  0  0  0  0  0
   37.6709   12.5353  -16.0755 S   0  0  0  0  0  0  0  0  0  0  0  0
   36.7281   12.7746  -14.5342 C   0  0  0  0  0  0  0  0  0  0  0  0
   36.7078   14.2532  -14.2405 C   0  0  0  0  0  0  0  0  0  0  0  0
   35.2944   12.3412  -14.7708 C   0  0  0  0  0  0  0  0  0  0  0  0
   37.3910   11.9642  -13.4626 C   0  0  0  0  0  0  0  0  0  0  0  0
 12 13  1  0  0  0
 13 14  1  0  0  0
 14 15  1  0  0  0
 15 19  1  0  0  0
 19 20  1  0  0  0
 20 21  1  0  0  0
 15 16  1  0  0  0
 16 17  1  0  0  0
 17 18  1  0  0  0
 18  1  1  0  0  0
  1  2  2  0  0  0
  2  3  1  0  0  0
  3  4  1  0  0  0
  4  5  1  0  0  0
  5 23  1  0  0  0
 23 24  1  0  0  0
 24 25  1  0  0  0
 24 26  1  0  0  0
 24 27  1  0  0  0
  5  6  2  0  0  0
  6  7  1  0  0  0
  7  8  1  0  0  0
  8  9  2  0  0  0
  9 10  1  0  0  0
 18 13  1  0  0  0
  9  1  1  0  0  0
  7  3  2  0  0  0
 21 22  1  0  0  0
  4 11  1  0  0  0
M  END
> <minimizedAffinity>
-5.74904

> <CNNscore>
0.4083353281

> <CNNaffinity>
6.2530050278

> <CNN_VS>
2.5533227921

> <CNNaffinity_variance>
0.3764902055

$$$$
[H]OC([H])([H])C([H])([H])N1C([H])([H])C([H])([H])N(c2c(Cl)c([H])c3nc(SC(C([H])([H])[H])(C([H])([H])[H])C([H])([H])[H])n([H])c3c2[H])[C@]([H])(C([H])([H])[H])C1([H])[H]


 27 29  0  0  0  0  0  0  0  0999 V2000
   38.3817   15.6601   -6.9580 C   0  0  0  0  0  0  0  0  0  0  0  0
   39.6753   15.6474   -6.4081 C   0  0  0  0  0  0  0  0  0  0  0  0
   40.3088   14.4840   -6.0436 C   0  0  0  0  0  0  0  0  0  0  0  0
   41.5239   14.2621   -5.5096 N   0  0  0  0  0  0  0  0  0  0  0  0
   41.6278   12.9301   -5.3564 C   0  0  0  0  0  0  0  0  0  0  0  0
   40.5035   12.3337   -5.7847 N   0  0  0  0  0  0  0  0  0  0  0  0
   39.6454   13.2634   -6.2252 C   0  0  0  0  0  0  0  0  0  0  0  0
   38.3756   13.2582   -6.7635 C   0  0  0  0  0  0  0  0  0  0  0  0
   37.7480   14.4462   -7.1269 C   0  0  0  0  0  0  0  0  0  0  0  0
   36.1240   14.3272   -7.7782 Cl  0  0  0  0  0  0  0  0  0  0  0  0
   42.2173   15.0086   -5.2765 H   0  0  0  0  0  0  0  0  0  0  0  0
   38.6819   17.1516   -9.6613 C   0  0  0  0  0  0  0  0  0  0  0  0
   37.6755   17.4498   -8.6367 C   0  0  0  0  0  0  0  0  0  0  0  0
   37.7257   18.9724   -8.4538 C   0  0  0  0  0  0  0  0  0  0  0  0
   36.4387   19.4053   -7.9976 N   0  0  0  0  0  0  0  0  0  0  0  0
   36.0252   18.5458   -6.9530 C   0  0  0  0  0  0  0  0  0  0  0  0
   37.2133   17.7514   -6.3491 C   0  0  0  0  0  0  0  0  0  0  0  0
   37.8151   16.8826   -7.3367 N   0  0  0  0  0  0  0  0  0  0  0  0
   36.5073   20.8001   -7.7145 C   0  0  0  0  0  0  0  0  0  0  0  0
   35.2378   21.4535   -7.2905 C   0  0  0  0  0  0  0  0  0  0  0  0
   34.4817   21.7063   -8.4525 O   0  0  0  0  0  0  0  0  0  0  0  0
   34.8502   21.2523   -9.2418 H   0  0  0  0  0  0  0  0  0  0  0  0
   43.0625   12.1158   -4.6808 S   0  0  0  0  0  0  0  0  0  0  0  0
   44.1320   11.6576   -6.0838 C   0  0  0  0  0  0  0  0  0  0  0  0
   43.8905   10.1992   -6.3801 C   0  0  0  0  0  0  0  0  0  0  0  0
   43.6950   12.4450   -7.3037 C   0  0  0  0  0  0  0  0  0  0  0  0
   45.5475   11.9596   -5.6970 C   0  0  0  0  0  0  0  0  0  0  0  0
 12 13  1  0  0  0
 13 14  1  0  0  0
 14 15  1  0  0  0
 15 19  1  0  0  0
 19 20  1  0  0  0
 20 21  1  0  0  0
 15 16  1  0  0  0
 16 17  1  0  0  0
 17 18  1  0  0  0
 18  1  1  0  0  0
  1  2  2  0  0  0
  2  3  1  0  0  0
  3  4  1  0  0  0
  4  5  1  0  0  0
  5 23  1  0  0  0
 23 24  1  0  0  0
 24 25  1  0  0  0
 24 26  1  0  0  0
 24 27  1  0  0  0
  5  6  2  0  0  0
  6  7  1  0  0  0
  7  8  1  0  0  0
  8  9  2  0  0  0
  9 10  1  0  0  0
 18 13  1  0  0  0
  9  1  1  0  0  0
  7  3  2  0  0  0
 21 22  1  0  0  0
  4 11  1  0  0  0
M  END
> <minimizedAffinity>
-4.82251

> <CNNscore>
0.3953649998

> <CNNaffinity>
5.2974929810

> <CNN_VS>
2.0944433212

> <CNNaffinity_variance>
0.2943776250

$$$$
[H]OC([H])([H])C([H])([H])N1C([H])([H])C([H])([H])N(c2c(Cl)c([H])c3nc(SC(C([H])([H])[H])(C([H])([H])[H])C([H])([H])[H])n([H])c3c2[H])[C@]([H])(C([H])([H])[H])C1([H])[H]


 27 29  0  0  0  0  0  0  0  0999 V2000
   39.9298   12.6033  -15.7733 C   0  0  0  0  0  0  0  0  0  0  0  0
   40.2612   13.1529  -14.5227 C   0  0  0  0  0  0  0  0  0  0  0  0
   41.5416   13.5350  -14.2026 C   0  0  0  0  0  0  0  0  0  0  0  0
   42.0559   14.0717  -13.0808 N   0  0  0  0  0  0  0  0  0  0  0  0
   43.3683   14.2460  -13.3169 C   0  0  0  0  0  0  0  0  0  0  0  0
   43.6669   13.8278  -14.5575 N   0  0  0  0  0  0  0  0  0  0  0  0
   42.5570   13.3732  -15.1542 C   0  0  0  0  0  0  0  0  0  0  0  0
   42.2487   12.8354  -16.3863 C   0  0  0  0  0  0  0  0  0  0  0  0
   40.9463   12.4529  -16.6940 C   0  0  0  0  0  0  0  0  0  0  0  0
   40.6696   11.7569  -18.2798 Cl  0  0  0  0  0  0  0  0  0  0  0  0
   41.5058   14.2926  -12.2199 H   0  0  0  0  0  0  0  0  0  0  0  0
   37.3681   13.8113  -14.5080 C   0  0  0  0  0  0  0  0  0  0  0  0
   37.4056   12.9841  -15.7188 C   0  0  0  0  0  0  0  0  0  0  0  0
   36.3071   11.9313  -15.5217 C   0  0  0  0  0  0  0  0  0  0  0  0
   35.8533   11.5184  -16.8161 N   0  0  0  0  0  0  0  0  0  0  0  0
   36.9861   11.2662  -17.6246 C   0  0  0  0  0  0  0  0  0  0  0  0
   38.2721   11.0702  -16.7789 C   0  0  0  0  0  0  0  0  0  0  0  0
   38.5966   12.2695  -16.0382 N   0  0  0  0  0  0  0  0  0  0  0  0
   34.9156   10.4589  -16.6475 C   0  0  0  0  0  0  0  0  0  0  0  0
   33.4903   10.8562  -16.4766 C   0  0  0  0  0  0  0  0  0  0  0  0
   32.8350   10.6239  -17.7023 O   0  0  0  0  0  0  0  0  0  0  0  0
   33.3855   10.1002  -18.3248 H   0  0  0  0  0  0  0  0  0  0  0  0
   44.5089   14.9339  -12.1321 S   0  0  0  0  0  0  0  0  0  0  0  0
   44.7571   16.6838  -12.5770 C   0  0  0  0  0  0  0  0  0  0  0  0
   45.5723   16.7178  -13.8449 C   0  0  0  0  0  0  0  0  0  0  0  0
   43.4077   17.3003  -12.8909 C   0  0  0  0  0  0  0  0  0  0  0  0
   45.4282   17.3587  -11.4200 C   0  0  0  0  0  0  0  0  0  0  0  0
 12 13  1  0  0  0
 13 14  1  0  0  0
 14 15  1  0  0  0
 15 19  1  0  0  0
 19 20  1  0  0  0
 20 21  1  0  0  0
 15 16  1  0  0  0
 16 17  1  0  0  0
 17 18  1  0  0  0
 18  1  1  0  0  0
  1  2  2  0  0  0
  2  3  1  0  0  0
  3  4  1  0  0  0
  4  5  1  0  0  0
  5 23  1  0  0  0
 23 24  1  0  0  0
 24 25  1  0  0  0
 24 26  1  0  0  0
 24 27  1  0  0  0
  5  6  2  0  0  0
  6  7  1  0  0  0
  7  8  1  0  0  0
  8  9  2  0  0  0
  9 10  1  0  0  0
 18 13  1  0  0  0
  9  1  1  0  0  0
  7  3  2  0  0  0
 21 22  1  0  0  0
  4 11  1  0  0  0
M  END
> <minimizedAffinity>
-7.15413

> <CNNscore>
0.1731290519

> <CNNaffinity>
6.4858856201

> <CNN_VS>
1.1228952408

> <CNNaffinity_variance>
0.0426896885

$$$$
[H]OC([H])([H])C([H])([H])N1C([H])([H])C([H])([H])N(c2c(Cl)c([H])c3nc(SC(C([H])([H])[H])(C([H])([H])[H])C([H])([H])[H])n([H])c3c2[H])[C@]([H])(C([H])([H])[H])C1([H])[H]


 27 29  0  0  0  0  0  0  0  0999 V2000
   38.7380   15.4600   -7.9643 C   0  0  0  0  0  0  0  0  0  0  0  0
   39.0922   14.7262   -6.8189 C   0  0  0  0  0  0  0  0  0  0  0  0
   40.3934   14.3894   -6.5337 C   0  0  0  0  0  0  0  0  0  0  0  0
   40.9308   13.7041   -5.5079 N   0  0  0  0  0  0  0  0  0  0  0  0
   42.2563   13.6715   -5.7330 C   0  0  0  0  0  0  0  0  0  0  0  0
   42.5402   14.3214   -6.8732 N   0  0  0  0  0  0  0  0  0  0  0  0
   41.4074   14.7901   -7.4135 C   0  0  0  0  0  0  0  0  0  0  0  0
   41.0769   15.5108   -8.5421 C   0  0  0  0  0  0  0  0  0  0  0  0
   39.7534   15.8431   -8.8162 C   0  0  0  0  0  0  0  0  0  0  0  0
   39.4418   16.7394  -10.2911 Cl  0  0  0  0  0  0  0  0  0  0  0  0
   40.3866   13.2957   -4.7144 H   0  0  0  0  0  0  0  0  0  0  0  0
   37.1472   17.8243   -6.7388 C   0  0  0  0  0  0  0  0  0  0  0  0
   36.7121   17.0119   -7.8800 C   0  0  0  0  0  0  0  0  0  0  0  0
   35.2577   16.6319   -7.5729 C   0  0  0  0  0  0  0  0  0  0  0  0
   34.5855   16.4135   -8.8188 N   0  0  0  0  0  0  0  0  0  0  0  0
   35.4091   15.5999   -9.6315 C   0  0  0  0  0  0  0  0  0  0  0  0
   36.4922   14.8588   -8.8039 C   0  0  0  0  0  0  0  0  0  0  0  0
   37.3945   15.7947   -8.1696 N   0  0  0  0  0  0  0  0  0  0  0  0
   33.2671   15.9486   -8.5436 C   0  0  0  0  0  0  0  0  0  0  0  0
   32.3218   15.9166   -9.6941 C   0  0  0  0  0  0  0  0  0  0  0  0
   31.3999   16.9673   -9.5154 O   0  0  0  0  0  0  0  0  0  0  0  0
   31.6737   17.5848   -8.8022 H   0  0  0  0  0  0  0  0  0  0  0  0
   43.4289   12.8735   -4.6532 S   0  0  0  0  0  0  0  0  0  0  0  0
   43.2235   11.0755   -4.8702 C   0  0  0  0  0  0  0  0  0  0  0  0
   43.0803   10.8109   -6.3475 C   0  0  0  0  0  0  0  0  0  0  0  0
   44.4912   10.3836   -4.4080 C   0  0  0  0  0  0  0  0  0  0  0  0
   42.0287   10.6525   -4.0714 C   0  0  0  0  0  0  0  0  0  0  0  0
 12 13  1  0  0  0
 13 14  1  0  0  0
 14 15  1  0  0  0
 15 19  1  0  0  0
 19 20  1  0  0  0
 20 21  1  0  0  0
 15 16  1  0  0  0
 16 17  1  0  0  0
 17 18  1  0  0  0
 18  1  1  0  0  0
  1  2  2  0  0  0
  2  3  1  0  0  0
  3  4  1  0  0  0
  4  5  1  0  0  0
  5 23  1  0  0  0
 23 24  1  0  0  0
 24 25  1  0  0  0
 24 26  1  0  0  0
 24 27  1  0  0  0
  5  6  2  0  0  0
  6  7  1  0  0  0
  7  8  1  0  0  0
  8  9  2  0  0  0
  9 10  1  0  0  0
 18 13  1  0  0  0
  9  1  1  0  0  0
  7  3  2  0  0  0
 21 22  1  0  0  0
  4 11  1  0  0  0
M  END
> <minimizedAffinity>
-4.96078

> <CNNscore>
0.1718015224

> <CNNaffinity>
4.9297761917

> <CNN_VS>
0.8469430804

> <CNNaffinity_variance>
0.1431509405

$$$$
[H]OC([H])([H])C([H])([H])N1C([H])([H])C([H])([H])N(c2c(Cl)c([H])c3nc(SC(C([H])([H])[H])(C([H])([H])[H])C([H])([H])[H])n([H])c3c2[H])[C@]([H])(C([H])([H])[H])C1([H])[H]


 27 29  0  0  0  0  0  0  0  0999 V2000
   43.6433   13.6092  -14.2702 C   0  0  0  0  0  0  0  0  0  0  0  0
   42.5720   14.0480  -13.4729 C   0  0  0  0  0  0  0  0  0  0  0  0
   41.2707   14.0291  -13.9133 C   0  0  0  0  0  0  0  0  0  0  0  0
   40.1234   14.3990  -13.3152 N   0  0  0  0  0  0  0  0  0  0  0  0
   39.1441   14.1651  -14.2068 C   0  0  0  0  0  0  0  0  0  0  0  0
   39.6677   13.6609  -15.3358 N   0  0  0  0  0  0  0  0  0  0  0  0
   40.9967   13.5560  -15.2032 C   0  0  0  0  0  0  0  0  0  0  0  0
   42.0365   13.1217  -15.9986 C   0  0  0  0  0  0  0  0  0  0  0  0
   43.3493   13.1481  -15.5369 C   0  0  0  0  0  0  0  0  0  0  0  0
   44.5970   12.5969  -16.6392 Cl  0  0  0  0  0  0  0  0  0  0  0  0
   40.0547   14.7866  -12.3469 H   0  0  0  0  0  0  0  0  0  0  0  0
   45.7497   15.8800  -14.4412 C   0  0  0  0  0  0  0  0  0  0  0  0
   45.8147   14.7312  -13.5314 C   0  0  0  0  0  0  0  0  0  0  0  0
   47.2419   14.1858  -13.6725 C   0  0  0  0  0  0  0  0  0  0  0  0
   47.5871   13.5288  -12.4474 N   0  0  0  0  0  0  0  0  0  0  0  0
   46.5082   12.6953  -12.0707 C   0  0  0  0  0  0  0  0  0  0  0  0
   45.5526   12.4085  -13.2589 C   0  0  0  0  0  0  0  0  0  0  0  0
   44.9384   13.6267  -13.7396 N   0  0  0  0  0  0  0  0  0  0  0  0
   48.8650   12.9195  -12.6079 C   0  0  0  0  0  0  0  0  0  0  0  0
   48.9920   11.5120  -12.1376 C   0  0  0  0  0  0  0  0  0  0  0  0
   49.1562   10.6974  -13.2756 O   0  0  0  0  0  0  0  0  0  0  0  0
   49.3308   11.2229  -14.0870 H   0  0  0  0  0  0  0  0  0  0  0  0
   37.4189   14.4899  -13.8970 S   0  0  0  0  0  0  0  0  0  0  0  0
   36.5384   12.9003  -14.0361 C   0  0  0  0  0  0  0  0  0  0  0  0
   37.4511   11.8281  -13.4972 C   0  0  0  0  0  0  0  0  0  0  0  0
   35.3150   12.9439  -13.1413 C   0  0  0  0  0  0  0  0  0  0  0  0
   36.1750   12.7037  -15.4762 C   0  0  0  0  0  0  0  0  0  0  0  0
 12 13  1  0  0  0
 13 14  1  0  0  0
 14 15  1  0  0  0
 15 19  1  0  0  0
 19 20  1  0  0  0
 20 21  1  0  0  0
 15 16  1  0  0  0
 16 17  1  0  0  0
 17 18  1  0  0  0
 18  1  1  0  0  0
  1  2  2  0  0  0
  2  3  1  0  0  0
  3  4  1  0  0  0
  4  5  1  0  0  0
  5 23  1  0  0  0
 23 24  1  0  0  0
 24 25  1  0  0  0
 24 26  1  0  0  0
 24 27  1  0  0  0
  5  6  2  0  0  0
  6  7  1  0  0  0
  7  8  1  0  0  0
  8  9  2  0  0  0
  9 10  1  0  0  0
 18 13  1  0  0  0
  9  1  1  0  0  0
  7  3  2  0  0  0
 21 22  1  0  0  0
  4 11  1  0  0  0
M  END
> <minimizedAffinity>
-6.50141

> <CNNscore>
0.1495481133

> <CNNaffinity>
5.8808927536

> <CNN_VS>
0.8794764280

> <CNNaffinity_variance>
0.0355752036

$$$$
[H]OC([H])([H])C([H])([H])N1C([H])([H])C([H])([H])N(c2c(Cl)c([H])c3nc(SC(C([H])([H])[H])(C([H])([H])[H])C([H])([H])[H])n([H])c3c2[H])[C@]([H])(C([H])([H])[H])C1([H])[H]


 27 29  0  0  0  0  0  0  0  0999 V2000
   43.2202   13.8093  -14.2092 C   0  0  0  0  0  0  0  0  0  0  0  0
   42.1524   14.3739  -13.4901 C   0  0  0  0  0  0  0  0  0  0  0  0
   40.8436   14.2325  -13.8836 C   0  0  0  0  0  0  0  0  0  0  0  0
   39.6980   14.6871  -13.3436 N   0  0  0  0  0  0  0  0  0  0  0  0
   38.7084   14.2515  -14.1433 C   0  0  0  0  0  0  0  0  0  0  0  0
   39.2241   13.5412  -15.1595 N   0  0  0  0  0  0  0  0  0  0  0  0
   40.5581   13.4994  -15.0429 C   0  0  0  0  0  0  0  0  0  0  0  0
   41.5942   12.9388  -15.7601 C   0  0  0  0  0  0  0  0  0  0  0  0
   42.9147   13.0923  -15.3477 C   0  0  0  0  0  0  0  0  0  0  0  0
   44.1560   12.3599  -16.3470 Cl  0  0  0  0  0  0  0  0  0  0  0  0
   39.6371   15.2621  -12.4728 H   0  0  0  0  0  0  0  0  0  0  0  0
   44.4808   12.5689  -11.6607 C   0  0  0  0  0  0  0  0  0  0  0  0
   45.2279   13.1990  -12.7545 C   0  0  0  0  0  0  0  0  0  0  0  0
   46.2109   14.1584  -12.0708 C   0  0  0  0  0  0  0  0  0  0  0  0
   47.3426   14.3208  -12.9337 N   0  0  0  0  0  0  0  0  0  0  0  0
   46.8705   14.5535  -14.2467 C   0  0  0  0  0  0  0  0  0  0  0  0
   45.3850   15.0012  -14.2596 C   0  0  0  0  0  0  0  0  0  0  0  0
   44.5246   13.9676  -13.7270 N   0  0  0  0  0  0  0  0  0  0  0  0
   48.2080   15.2978  -12.3623 C   0  0  0  0  0  0  0  0  0  0  0  0
   47.5653   16.3319  -11.5044 C   0  0  0  0  0  0  0  0  0  0  0  0
   47.4325   17.5023  -12.2779 O   0  0  0  0  0  0  0  0  0  0  0  0
   47.6124   17.3411  -13.2300 H   0  0  0  0  0  0  0  0  0  0  0  0
   36.9808   14.5885  -13.8613 S   0  0  0  0  0  0  0  0  0  0  0  0
   36.1062   12.9901  -13.9058 C   0  0  0  0  0  0  0  0  0  0  0  0
   34.7644   13.1894  -13.2477 C   0  0  0  0  0  0  0  0  0  0  0  0
   35.8488   12.6185  -15.3532 C   0  0  0  0  0  0  0  0  0  0  0  0
   36.9658   11.9794  -13.2101 C   0  0  0  0  0  0  0  0  0  0  0  0
 12 13  1  0  0  0
 13 14  1  0  0  0
 14 15  1  0  0  0
 15 19  1  0  0  0
 19 20  1  0  0  0
 20 21  1  0  0  0
 15 16  1  0  0  0
 16 17  1  0  0  0
 17 18  1  0  0  0
 18  1  1  0  0  0
  1  2  2  0  0  0
  2  3  1  0  0  0
  3  4  1  0  0  0
  4  5  1  0  0  0
  5 23  1  0  0  0
 23 24  1  0  0  0
 24 25  1  0  0  0
 24 26  1  0  0  0
 24 27  1  0  0  0
  5  6  2  0  0  0
  6  7  1  0  0  0
  7  8  1  0  0  0
  8  9  2  0  0  0
  9 10  1  0  0  0
 18 13  1  0  0  0
  9  1  1  0  0  0
  7  3  2  0  0  0
 21 22  1  0  0  0
  4 11  1  0  0  0
M  END
> <minimizedAffinity>
-6.25637

> <CNNscore>
0.1394529045

> <CNNaffinity>
5.8952727318

> <CNN_VS>
0.8221129179

> <CNNaffinity_variance>
0.0864860639

$$$$
[H]OC([H])([H])C([H])([H])N1C([H])([H])C([H])([H])N(c2c(Cl)c([H])c3nc(SC(C([H])([H])[H])(C([H])([H])[H])C([H])([H])[H])n([H])c3c2[H])[C@]([H])(C([H])([H])[H])C1([H])[H]


 27 29  0  0  0  0  0  0  0  0999 V2000
   38.4234   13.7720  -14.1987 C   0  0  0  0  0  0  0  0  0  0  0  0
   39.3888   14.4642  -13.4471 C   0  0  0  0  0  0  0  0  0  0  0  0
   40.7360   14.3393  -13.6859 C   0  0  0  0  0  0  0  0  0  0  0  0
   41.8016   14.9052  -13.0900 N   0  0  0  0  0  0  0  0  0  0  0  0
   42.8848   14.4275  -13.7279 C   0  0  0  0  0  0  0  0  0  0  0  0
   42.5046   13.5826  -14.6998 N   0  0  0  0  0  0  0  0  0  0  0  0
   41.1681   13.4926  -14.7152 C   0  0  0  0  0  0  0  0  0  0  0  0
   40.2338   12.8061  -15.4622 C   0  0  0  0  0  0  0  0  0  0  0  0
   38.8725   12.9437  -15.2066 C   0  0  0  0  0  0  0  0  0  0  0  0
   37.7725   12.0056  -16.1994 Cl  0  0  0  0  0  0  0  0  0  0  0  0
   41.7499   15.5781  -12.2918 H   0  0  0  0  0  0  0  0  0  0  0  0
   37.1746   15.5873  -12.0152 C   0  0  0  0  0  0  0  0  0  0  0  0
   36.4490   15.0048  -13.1492 C   0  0  0  0  0  0  0  0  0  0  0  0
   35.1806   14.3900  -12.5430 C   0  0  0  0  0  0  0  0  0  0  0  0
   34.1684   14.3761  -13.5564 N   0  0  0  0  0  0  0  0  0  0  0  0
   34.7399   13.8731  -14.7485 C   0  0  0  0  0  0  0  0  0  0  0  0
   36.0604   13.1038  -14.4807 C   0  0  0  0  0  0  0  0  0  0  0  0
   37.0674   13.9768  -13.9185 N   0  0  0  0  0  0  0  0  0  0  0  0
   33.0236   13.7031  -13.0400 C   0  0  0  0  0  0  0  0  0  0  0  0
   32.0966   14.5171  -12.2055 C   0  0  0  0  0  0  0  0  0  0  0  0
   30.7893   14.0469  -12.4415 O   0  0  0  0  0  0  0  0  0  0  0  0
   30.7829   13.2006  -12.9401 H   0  0  0  0  0  0  0  0  0  0  0  0
   44.5601   14.8746  -13.3141 S   0  0  0  0  0  0  0  0  0  0  0  0
   45.3072   13.4417  -12.4711 C   0  0  0  0  0  0  0  0  0  0  0  0
   46.3826   13.9658  -11.5536 C   0  0  0  0  0  0  0  0  0  0  0  0
   44.2517   12.7862  -11.6019 C   0  0  0  0  0  0  0  0  0  0  0  0
   45.8256   12.5110  -13.5245 C   0  0  0  0  0  0  0  0  0  0  0  0
 12 13  1  0  0  0
 13 14  1  0  0  0
 14 15  1  0  0  0
 15 19  1  0  0  0
 19 20  1  0  0  0
 20 21  1  0  0  0
 15 16  1  0  0  0
 16 17  1  0  0  0
 17 18  1  0  0  0
 18  1  1  0  0  0
  1  2  2  0  0  0
  2  3  1  0  0  0
  3  4  1  0  0  0
  4  5  1  0  0  0
  5 23  1  0  0  0
 23 24  1  0  0  0
 24 25  1  0  0  0
 24 26  1  0  0  0
 24 27  1  0  0  0
  5  6  2  0  0  0
  6  7  1  0  0  0
  7  8  1  0  0  0
  8  9  2  0  0  0
  9 10  1  0  0  0
 18 13  1  0  0  0
  9  1  1  0  0  0
  7  3  2  0  0  0
 21 22  1  0  0  0
  4 11  1  0  0  0
M  END
> <minimizedAffinity>
-6.49647

> <CNNscore>
0.1307207942

> <CNNaffinity>
6.2592630386

> <CNN_VS>
0.8182158470

> <CNNaffinity_variance>
0.0797865838

$$$$
[H]OC([H])([H])C([H])([H])N1C([H])([H])C([H])([H])N(c2c(Cl)c([H])c3nc(SC(C([H])([H])[H])(C([H])([H])[H])C([H])([H])[H])n([H])c3c2[H])[C@]([H])(C([H])([H])[H])C1([H])[H]


 27 29  0  0  0  0  0  0  0  0999 V2000
   39.9522   15.8296   -9.7583 C   0  0  0  0  0  0  0  0  0  0  0  0
   40.2014   15.4012   -8.4429 C   0  0  0  0  0  0  0  0  0  0  0  0
   41.4736   15.2275   -7.9539 C   0  0  0  0  0  0  0  0  0  0  0  0
   41.9164   14.8314   -6.7465 N   0  0  0  0  0  0  0  0  0  0  0  0
   43.2592   14.8389   -6.8194 C   0  0  0  0  0  0  0  0  0  0  0  0
   43.6462   15.2306   -8.0441 N   0  0  0  0  0  0  0  0  0  0  0  0
   42.5652   15.4859   -8.7931 C   0  0  0  0  0  0  0  0  0  0  0  0
   42.3382   15.9070  -10.0867 C   0  0  0  0  0  0  0  0  0  0  0  0
   41.0427   16.0773  -10.5664 C   0  0  0  0  0  0  0  0  0  0  0  0
   40.8674   16.5917  -12.2338 Cl  0  0  0  0  0  0  0  0  0  0  0  0
   41.3013   14.5780   -5.9404 H   0  0  0  0  0  0  0  0  0  0  0  0
   38.1661   18.3380   -9.3837 C   0  0  0  0  0  0  0  0  0  0  0  0
   37.8817   17.2242  -10.2949 C   0  0  0  0  0  0  0  0  0  0  0  0
   36.4152   16.8554  -10.0350 C   0  0  0  0  0  0  0  0  0  0  0  0
   35.8879   16.2704  -11.2315 N   0  0  0  0  0  0  0  0  0  0  0  0
   36.8190   15.3184  -11.7084 C   0  0  0  0  0  0  0  0  0  0  0  0
   37.8295   14.8928  -10.6106 C   0  0  0  0  0  0  0  0  0  0  0  0
   38.6288   16.0165  -10.1740 N   0  0  0  0  0  0  0  0  0  0  0  0
   34.5627   15.8195  -10.9659 C   0  0  0  0  0  0  0  0  0  0  0  0
   34.1026   15.9097   -9.5522 C   0  0  0  0  0  0  0  0  0  0  0  0
   32.7271   16.2150   -9.5721 O   0  0  0  0  0  0  0  0  0  0  0  0
   32.3392   16.1247  -10.4700 H   0  0  0  0  0  0  0  0  0  0  0  0
   44.3309   14.3890   -5.4678 S   0  0  0  0  0  0  0  0  0  0  0  0
   44.4123   12.5686   -5.4283 C   0  0  0  0  0  0  0  0  0  0  0  0
   43.0767   12.0658   -4.9422 C   0  0  0  0  0  0  0  0  0  0  0  0
   44.5979   12.0609   -6.8450 C   0  0  0  0  0  0  0  0  0  0  0  0
   45.5535   12.1815   -4.5382 C   0  0  0  0  0  0  0  0  0  0  0  0
 12 13  1  0  0  0
 13 14  1  0  0  0
 14 15  1  0  0  0
 15 19  1  0  0  0
 19 20  1  0  0  0
 20 21  1  0  0  0
 15 16  1  0  0  0
 16 17  1  0  0  0
 17 18  1  0  0  0
 18  1  1  0  0  0
  1  2  2  0  0  0
  2  3  1  0  0  0
  3  4  1  0  0  0
  4  5  1  0  0  0
  5 23  1  0  0  0
 23 24  1  0  0  0
 24 25  1  0  0  0
 24 26  1  0  0  0
 24 27  1  0  0  0
  5  6  2  0  0  0
  6  7  1  0  0  0
  7  8  1  0  0  0
  8  9  2  0  0  0
  9 10  1  0  0  0
 18 13  1  0  0  0
  9  1  1  0  0  0
  7  3  2  0  0  0
 21 22  1  0  0  0
  4 11  1  0  0  0
M  END
> <minimizedAffinity>
-4.84530

> <CNNscore>
0.1130715534

> <CNNaffinity>
5.0431413651

> <CNN_VS>
0.5702358484

> <CNNaffinity_variance>
0.3830985725

$$$$
[H]c1nc(N([H])S(=O)(=O)c2c([H])c(Cl)c(N(C([H])([H])[H])[C@]3([H])C([H])([H])N(C([H])([H])c4c([H])c([H])c(Cl)c([H])c4[H])C([H])([H])C3([H])[H])c([H])c2F)c([H])s1


 33 36  0  0  0  0  0  0  0  0999 V2000
   36.8009   16.2815  -10.4461 C   0  0  0  0  0  0  0  0  0  0  0  0
   35.6884   16.1200  -11.2439 C   0  0  0  0  0  0  0  0  0  0  0  0
   35.5616   15.0485  -12.0984 C   0  0  0  0  0  0  0  0  0  0  0  0
   34.4528   14.9002  -12.8843 F   0  0  0  0  0  0  0  0  0  0  0  0
   36.5532   14.0687  -12.2019 C   0  0  0  0  0  0  0  0  0  0  0  0
   37.6599   14.2380  -11.4013 C   0  0  0  0  0  0  0  0  0  0  0  0
   37.7792   15.3145  -10.5482 C   0  0  0  0  0  0  0  0  0  0  0  0
   39.2200   15.4960   -9.5351 Cl  0  0  0  0  0  0  0  0  0  0  0  0
   36.3320   12.7121  -13.2852 S   0  0  0  0  0  0  0  0  0  0  0  0
   34.9525   12.1552  -12.9843 O   0  0  0  0  0  0  0  0  0  0  0  0
   37.3099   11.6199  -13.0135 O   0  0  0  0  0  0  0  0  0  0  0  0
   36.3449   13.1479  -14.9354 N   0  0  0  0  0  0  0  0  0  0  0  0
   35.9701   14.0879  -15.1825 H   0  0  0  0  0  0  0  0  0  0  0  0
   36.8507   12.2674  -15.9815 C   0  0  0  0  0  0  0  0  0  0  0  0
   35.9940   11.4910  -16.7286 C   0  0  0  0  0  0  0  0  0  0  0  0
   37.0804   10.6856  -17.7694 S   0  0  0  0  0  0  0  0  0  0  0  0
   38.5372   11.3712  -17.2039 C   0  0  0  0  0  0  0  0  0  0  0  0
   38.1146   12.1799  -16.2488 N   0  0  0  0  0  0  0  0  0  0  0  0
   37.6339   18.5768  -10.0054 C   0  0  0  0  0  0  0  0  0  0  0  0
   36.9621   17.3720   -9.5574 N   0  0  0  0  0  0  0  0  0  0  0  0
   36.4782   17.3229   -8.2170 C   0  0  0  0  0  0  0  0  0  0  0  0
   35.9842   18.6577   -7.6978 C   0  0  0  0  0  0  0  0  0  0  0  0
   35.1612   18.1997   -6.4986 C   0  0  0  0  0  0  0  0  0  0  0  0
   34.5256   16.9942   -6.9255 N   0  0  0  0  0  0  0  0  0  0  0  0
   35.1916   16.4947   -8.0893 C   0  0  0  0  0  0  0  0  0  0  0  0
   33.1198   17.2168   -7.0845 C   0  0  0  0  0  0  0  0  0  0  0  0
   32.4167   15.9111   -7.0704 C   0  0  0  0  0  0  0  0  0  0  0  0
   32.6197   15.0290   -6.0040 C   0  0  0  0  0  0  0  0  0  0  0  0
   31.9922   13.8048   -5.9290 C   0  0  0  0  0  0  0  0  0  0  0  0
   31.1301   13.4128   -6.9264 C   0  0  0  0  0  0  0  0  0  0  0  0
   30.3450   11.8541   -6.8094 Cl  0  0  0  0  0  0  0  0  0  0  0  0
   30.9051   14.2489   -7.9874 C   0  0  0  0  0  0  0  0  0  0  0  0
   31.5490   15.4806   -8.0435 C   0  0  0  0  0  0  0  0  0  0  0  0
 19 20  1  0  0  0
 20  1  1  0  0  0
  1  2  2  0  0  0
  2  3  1  0  0  0
  3  4  1  0  0  0
  3  5  2  0  0  0
  5  9  1  0  0  0
  9 10  2  0  0  0
  9 11  2  0  0  0
  9 12  1  0  0  0
 12 14  1  0  0  0
 14 15  2  0  0  0
 15 16  1  0  0  0
 16 17  1  0  0  0
 17 18  2  0  0  0
  5  6  1  0  0  0
  6  7  2  0  0  0
  7  8  1  0  0  0
 20 21  1  0  0  0
 21 22  1  0  0  0
 22 23  1  0  0  0
 23 24  1  0  0  0
 24 26  1  0  0  0
 26 27  1  0  0  0
 27 28  2  0  0  0
 28 29  1  0  0  0
 29 30  2  0  0  0
 30 31  1  0  0  0
 30 32  1  0  0  0
 32 33  2  0  0  0
 24 25  1  0  0  0
  7  1  1  0  0  0
 25 21  1  0  0  0
 18 14  1  0  0  0
 33 27  1  0  0  0
 12 13  1  0  0  0
M  END
> <minimizedAffinity>
-7.60664

> <CNNscore>
0.0981081352

> <CNNaffinity>
6.0059041977

> <CNN_VS>
0.5892280340

> <CNNaffinity_variance>
0.6121855378

$$$$
[H]c1nc(N([H])S(=O)(=O)c2c([H])c(Cl)c(N(C([H])([H])[H])[C@]3([H])C([H])([H])N(C([H])([H])c4c([H])c([H])c(Cl)c([H])c4[H])C([H])([H])C3([H])[H])c([H])c2F)c([H])s1


 33 36  0  0  0  0  0  0  0  0999 V2000
   39.3677   13.3355  -15.4274 C   0  0  0  0  0  0  0  0  0  0  0  0
   38.9711   14.2563  -14.4814 C   0  0  0  0  0  0  0  0  0  0  0  0
   37.7372   14.1843  -13.8758 C   0  0  0  0  0  0  0  0  0  0  0  0
   37.3562   15.1042  -12.9390 F   0  0  0  0  0  0  0  0  0  0  0  0
   36.8224   13.1744  -14.1878 C   0  0  0  0  0  0  0  0  0  0  0  0
   37.2273   12.2593  -15.1328 C   0  0  0  0  0  0  0  0  0  0  0  0
   38.4651   12.3389  -15.7350 C   0  0  0  0  0  0  0  0  0  0  0  0
   38.9475   11.1416  -16.9470 Cl  0  0  0  0  0  0  0  0  0  0  0  0
   35.2762   13.1124  -13.3705 S   0  0  0  0  0  0  0  0  0  0  0  0
   35.5686   12.6544  -11.9533 O   0  0  0  0  0  0  0  0  0  0  0  0
   34.3686   12.0965  -13.9764 O   0  0  0  0  0  0  0  0  0  0  0  0
   34.5045   14.6304  -13.2549 N   0  0  0  0  0  0  0  0  0  0  0  0
   34.5117   15.2339  -14.1039 H   0  0  0  0  0  0  0  0  0  0  0  0
   33.8536   15.0954  -12.0360 C   0  0  0  0  0  0  0  0  0  0  0  0
   32.4843   15.0484  -11.9028 C   0  0  0  0  0  0  0  0  0  0  0  0
   32.2698   15.6926  -10.3372 S   0  0  0  0  0  0  0  0  0  0  0  0
   33.9065   15.9798   -9.9489 C   0  0  0  0  0  0  0  0  0  0  0  0
   34.5298   15.5674  -11.0379 N   0  0  0  0  0  0  0  0  0  0  0  0
   40.7460   13.9609  -17.3934 C   0  0  0  0  0  0  0  0  0  0  0  0
   40.6292   13.3818  -16.0688 N   0  0  0  0  0  0  0  0  0  0  0  0
   41.8051   12.8702  -15.4454 C   0  0  0  0  0  0  0  0  0  0  0  0
   42.9261   12.5633  -16.4170 C   0  0  0  0  0  0  0  0  0  0  0  0
   44.1092   12.4870  -15.4580 C   0  0  0  0  0  0  0  0  0  0  0  0
   43.8718   13.5153  -14.4959 N   0  0  0  0  0  0  0  0  0  0  0  0
   42.4991   13.9144  -14.5591 C   0  0  0  0  0  0  0  0  0  0  0  0
   44.8168   14.5761  -14.6762 C   0  0  0  0  0  0  0  0  0  0  0  0
   44.8821   15.3845  -13.4345 C   0  0  0  0  0  0  0  0  0  0  0  0
   45.0668   14.7460  -12.2037 C   0  0  0  0  0  0  0  0  0  0  0  0
   45.1420   15.4403  -11.0161 C   0  0  0  0  0  0  0  0  0  0  0  0
   45.0344   16.8114  -11.0142 C   0  0  0  0  0  0  0  0  0  0  0  0
   45.1328   17.6710   -9.4939 Cl  0  0  0  0  0  0  0  0  0  0  0  0
   44.8528   17.4731  -12.1993 C   0  0  0  0  0  0  0  0  0  0  0  0
   44.7797   16.7529  -13.3871 C   0  0  0  0  0  0  0  0  0  0  0  0
 19 20  1  0  0  0
 20  1  1  0  0  0
  1  2  2  0  0  0
  2  3  1  0  0  0
  3  4  1  0  0  0
  3  5  2  0  0  0
  5  9  1  0  0  0
  9 10  2  0  0  0
  9 11  2  0  0  0
  9 12  1  0  0  0
 12 14  1  0  0  0
 14 15  2  0  0  0
 15 16  1  0  0  0
 16 17  1  0  0  0
 17 18  2  0  0  0
  5  6  1  0  0  0
  6  7  2  0  0  0
  7  8  1  0  0  0
 20 21  1  0  0  0
 21 22  1  0  0  0
 22 23  1  0  0  0
 23 24  1  0  0  0
 24 26  1  0  0  0
 26 27  1  0  0  0
 27 28  2  0  0  0
 28 29  1  0  0  0
 29 30  2  0  0  0
 30 31  1  0  0  0
 30 32  1  0  0  0
 32 33  2  0  0  0
 24 25  1  0  0  0
  7  1  1  0  0  0
 25 21  1  0  0  0
 18 14  1  0  0  0
 33 27  1  0  0  0
 12 13  1  0  0  0
M  END
> <minimizedAffinity>
-7.21222

> <CNNscore>
0.0879574046

> <CNNaffinity>
6.4560561180

> <CNN_VS>
0.5678579211

> <CNNaffinity_variance>
0.3018585742

$$$$
[H]c1nc(N([H])S(=O)(=O)c2c([H])c(Cl)c(N(C([H])([H])[H])[C@]3([H])C([H])([H])N(C([H])([H])c4c([H])c([H])c(Cl)c([H])c4[H])C([H])([H])C3([H])[H])c([H])c2F)c([H])s1


 33 36  0  0  0  0  0  0  0  0999 V2000
   39.3946   13.3025  -15.4165 C   0  0  0  0  0  0  0  0  0  0  0  0
   38.9674   14.2396  -14.5003 C   0  0  0  0  0  0  0  0  0  0  0  0
   37.7143   14.1776  -13.9343 C   0  0  0  0  0  0  0  0  0  0  0  0
   37.3030   15.1137  -13.0267 F   0  0  0  0  0  0  0  0  0  0  0  0
   36.8101   13.1621  -14.2584 C   0  0  0  0  0  0  0  0  0  0  0  0
   37.2456   12.2308  -15.1735 C   0  0  0  0  0  0  0  0  0  0  0  0
   38.5024   12.3004  -15.7361 C   0  0  0  0  0  0  0  0  0  0  0  0
   39.0241   11.0822  -16.9105 Cl  0  0  0  0  0  0  0  0  0  0  0  0
   35.2379   13.1138  -13.4913 S   0  0  0  0  0  0  0  0  0  0  0  0
   35.4684   12.5634  -12.0957 O   0  0  0  0  0  0  0  0  0  0  0  0
   34.3121   12.1711  -14.1822 O   0  0  0  0  0  0  0  0  0  0  0  0
   34.5205   14.6517  -13.3088 N   0  0  0  0  0  0  0  0  0  0  0  0
   34.5476   15.2903  -14.1313 H   0  0  0  0  0  0  0  0  0  0  0  0
   33.8885   15.0870  -12.0691 C   0  0  0  0  0  0  0  0  0  0  0  0
   34.6443   15.5250  -11.0052 C   0  0  0  0  0  0  0  0  0  0  0  0
   33.4375   15.8972   -9.8574 S   0  0  0  0  0  0  0  0  0  0  0  0
   32.0644   15.4812  -10.7813 C   0  0  0  0  0  0  0  0  0  0  0  0
   32.6025   15.0797  -11.9188 N   0  0  0  0  0  0  0  0  0  0  0  0
   40.8217   13.7974  -17.3850 C   0  0  0  0  0  0  0  0  0  0  0  0
   40.6765   13.3382  -16.0169 N   0  0  0  0  0  0  0  0  0  0  0  0
   41.8458   12.9313  -15.3097 C   0  0  0  0  0  0  0  0  0  0  0  0
   43.1366   13.4260  -15.9297 C   0  0  0  0  0  0  0  0  0  0  0  0
   44.0963   13.2316  -14.7608 C   0  0  0  0  0  0  0  0  0  0  0  0
   43.3424   13.5862  -13.6008 N   0  0  0  0  0  0  0  0  0  0  0  0
   41.9484   13.5843  -13.9239 C   0  0  0  0  0  0  0  0  0  0  0  0
   43.8342   14.8178  -13.0603 C   0  0  0  0  0  0  0  0  0  0  0  0
   43.2099   15.0501  -11.7352 C   0  0  0  0  0  0  0  0  0  0  0  0
   42.2200   16.0291  -11.6003 C   0  0  0  0  0  0  0  0  0  0  0  0
   41.5977   16.2888  -10.3989 C   0  0  0  0  0  0  0  0  0  0  0  0
   41.9448   15.5730   -9.2769 C   0  0  0  0  0  0  0  0  0  0  0  0
   41.1409   15.9207   -7.7627 Cl  0  0  0  0  0  0  0  0  0  0  0  0
   42.9099   14.6059   -9.3685 C   0  0  0  0  0  0  0  0  0  0  0  0
   43.5256   14.3596  -10.5912 C   0  0  0  0  0  0  0  0  0  0  0  0
 19 20  1  0  0  0
 20  1  1  0  0  0
  1  2  2  0  0  0
  2  3  1  0  0  0
  3  4  1  0  0  0
  3  5  2  0  0  0
  5  9  1  0  0  0
  9 10  2  0  0  0
  9 11  2  0  0  0
  9 12  1  0  0  0
 12 14  1  0  0  0
 14 15  2  0  0  0
 15 16  1  0  0  0
 16 17  1  0  0  0
 17 18  2  0  0  0
  5  6  1  0  0  0
  6  7  2  0  0  0
  7  8  1  0  0  0
 20 21  1  0  0  0
 21 22  1  0  0  0
 22 23  1  0  0  0
 23 24  1  0  0  0
 24 26  1  0  0  0
 26 27  1  0  0  0
 27 28  2  0  0  0
 28 29  1  0  0  0
 29 30  2  0  0  0
 30 31  1  0  0  0
 30 32  1  0  0  0
 32 33  2  0  0  0
 24 25  1  0  0  0
  7  1  1  0  0  0
 25 21  1  0  0  0
 18 14  1  0  0  0
 33 27  1  0  0  0
 12 13  1  0  0  0
M  END
> <minimizedAffinity>
-7.54457

> <CNNscore>
0.0564292520

> <CNNaffinity>
6.4158830643

> <CNN_VS>
0.3620434701

> <CNNaffinity_variance>
0.3891550899

$$$$
[H]c1nc(N([H])S(=O)(=O)c2c([H])c(Cl)c(N(C([H])([H])[H])[C@]3([H])C([H])([H])N(C([H])([H])c4c([H])c([H])c(Cl)c([H])c4[H])C([H])([H])C3([H])[H])c([H])c2F)c([H])s1


 33 36  0  0  0  0  0  0  0  0999 V2000
   35.8880   18.1590   -7.8632 C   0  0  0  0  0  0  0  0  0  0  0  0
   35.1442   17.0782   -8.2860 C   0  0  0  0  0  0  0  0  0  0  0  0
   35.5081   16.3373   -9.3874 C   0  0  0  0  0  0  0  0  0  0  0  0
   34.7613   15.2676   -9.7961 F   0  0  0  0  0  0  0  0  0  0  0  0
   36.6499   16.6415  -10.1342 C   0  0  0  0  0  0  0  0  0  0  0  0
   37.3865   17.7218   -9.7042 C   0  0  0  0  0  0  0  0  0  0  0  0
   37.0148   18.4589   -8.6000 C   0  0  0  0  0  0  0  0  0  0  0  0
   37.9899   19.8424   -8.0801 Cl  0  0  0  0  0  0  0  0  0  0  0  0
   37.0829   15.6524  -11.5114 S   0  0  0  0  0  0  0  0  0  0  0  0
   37.2132   14.2345  -10.9856 O   0  0  0  0  0  0  0  0  0  0  0  0
   38.4118   16.0316  -12.0711 O   0  0  0  0  0  0  0  0  0  0  0  0
   35.8907   15.6239  -12.7325 N   0  0  0  0  0  0  0  0  0  0  0  0
   35.4188   16.5247  -12.9583 H   0  0  0  0  0  0  0  0  0  0  0  0
   35.5224   14.4090  -13.4494 C   0  0  0  0  0  0  0  0  0  0  0  0
   34.3840   13.7095  -13.1184 C   0  0  0  0  0  0  0  0  0  0  0  0
   34.4367   12.4203  -14.2354 S   0  0  0  0  0  0  0  0  0  0  0  0
   35.8794   12.8383  -15.0453 C   0  0  0  0  0  0  0  0  0  0  0  0
   36.2438   13.9420  -14.4179 N   0  0  0  0  0  0  0  0  0  0  0  0
   34.7715   20.1586   -6.9086 C   0  0  0  0  0  0  0  0  0  0  0  0
   35.5409   18.9414   -6.7353 N   0  0  0  0  0  0  0  0  0  0  0  0
   35.9291   18.5657   -5.4156 C   0  0  0  0  0  0  0  0  0  0  0  0
   34.7701   18.1438   -4.5359 C   0  0  0  0  0  0  0  0  0  0  0  0
   35.5178   17.4100   -3.4278 C   0  0  0  0  0  0  0  0  0  0  0  0
   36.5749   16.7165   -4.0920 N   0  0  0  0  0  0  0  0  0  0  0  0
   36.7621   17.2761   -5.3955 C   0  0  0  0  0  0  0  0  0  0  0  0
   36.3186   15.3076   -4.0720 C   0  0  0  0  0  0  0  0  0  0  0  0
   37.3843   14.6095   -4.8313 C   0  0  0  0  0  0  0  0  0  0  0  0
   37.0611   13.9344   -6.0130 C   0  0  0  0  0  0  0  0  0  0  0  0
   38.0055   13.2722   -6.7665 C   0  0  0  0  0  0  0  0  0  0  0  0
   39.3204   13.2601   -6.3635 C   0  0  0  0  0  0  0  0  0  0  0  0
   40.5013   12.4127   -7.3368 Cl  0  0  0  0  0  0  0  0  0  0  0  0
   39.6765   13.9097   -5.2118 C   0  0  0  0  0  0  0  0  0  0  0  0
   38.7073   14.5722   -4.4658 C   0  0  0  0  0  0  0  0  0  0  0  0
 19 20  1  0  0  0
 20  1  1  0  0  0
  1  2  2  0  0  0
  2  3  1  0  0  0
  3  4  1  0  0  0
  3  5  2  0  0  0
  5  9  1  0  0  0
  9 10  2  0  0  0
  9 11  2  0  0  0
  9 12  1  0  0  0
 12 14  1  0  0  0
 14 15  2  0  0  0
 15 16  1  0  0  0
 16 17  1  0  0  0
 17 18  2  0  0  0
  5  6  1  0  0  0
  6  7  2  0  0  0
  7  8  1  0  0  0
 20 21  1  0  0  0
 21 22  1  0  0  0
 22 23  1  0  0  0
 23 24  1  0  0  0
 24 26  1  0  0  0
 26 27  1  0  0  0
 27 28  2  0  0  0
 28 29  1  0  0  0
 29 30  2  0  0  0
 30 31  1  0  0  0
 30 32  1  0  0  0
 32 33  2  0  0  0
 24 25  1  0  0  0
  7  1  1  0  0  0
 25 21  1  0  0  0
 18 14  1  0  0  0
 33 27  1  0  0  0
 12 13  1  0  0  0
M  END
> <minimizedAffinity>
-6.63771

> <CNNscore>
0.0540887602

> <CNNaffinity>
5.9478230476

> <CNN_VS>
0.3217103779

> <CNNaffinity_variance>
0.2410608977

$$$$
[H]c1nc(N([H])S(=O)(=O)c2c([H])c(Cl)c(N(C([H])([H])[H])[C@]3([H])C([H])([H])N(C([H])([H])c4c([H])c([H])c(Cl)c([H])c4[H])C([H])([H])C3([H])[H])c([H])c2F)c([H])s1


 33 36  0  0  0  0  0  0  0  0999 V2000
   37.8296   15.1228   -8.8408 C   0  0  0  0  0  0  0  0  0  0  0  0
   39.2038   15.0936   -8.9451 C   0  0  0  0  0  0  0  0  0  0  0  0
   39.9964   14.6281   -7.9207 C   0  0  0  0  0  0  0  0  0  0  0  0
   41.3583   14.6046   -8.0372 F   0  0  0  0  0  0  0  0  0  0  0  0
   39.4500   14.1609   -6.7218 C   0  0  0  0  0  0  0  0  0  0  0  0
   38.0773   14.1933   -6.6270 C   0  0  0  0  0  0  0  0  0  0  0  0
   37.2906   14.6615   -7.6580 C   0  0  0  0  0  0  0  0  0  0  0  0
   35.5275   14.6871   -7.4956 Cl  0  0  0  0  0  0  0  0  0  0  0  0
   40.5003   13.5556   -5.4597 S   0  0  0  0  0  0  0  0  0  0  0  0
   39.6035   13.2670   -4.2697 O   0  0  0  0  0  0  0  0  0  0  0  0
   41.4881   14.5821   -5.0200 O   0  0  0  0  0  0  0  0  0  0  0  0
   41.2789   12.0915   -5.8641 N   0  0  0  0  0  0  0  0  0  0  0  0
   41.2646   11.8056   -6.8657 H   0  0  0  0  0  0  0  0  0  0  0  0
   41.9450   11.2514   -4.8762 C   0  0  0  0  0  0  0  0  0  0  0  0
   43.2520   11.4860   -4.5134 C   0  0  0  0  0  0  0  0  0  0  0  0
   43.5167   10.2505   -3.3664 S   0  0  0  0  0  0  0  0  0  0  0  0
   41.9757    9.5190   -3.4136 C   0  0  0  0  0  0  0  0  0  0  0  0
   41.3408   10.2592   -4.3045 N   0  0  0  0  0  0  0  0  0  0  0  0
   36.8146   17.0220  -10.0733 C   0  0  0  0  0  0  0  0  0  0  0  0
   36.9865   15.5955   -9.8755 N   0  0  0  0  0  0  0  0  0  0  0  0
   36.2911   14.7014  -10.7416 C   0  0  0  0  0  0  0  0  0  0  0  0
   35.1229   15.3388  -11.4656 C   0  0  0  0  0  0  0  0  0  0  0  0
   34.9020   14.3227  -12.5810 C   0  0  0  0  0  0  0  0  0  0  0  0
   36.2127   13.9070  -12.9669 N   0  0  0  0  0  0  0  0  0  0  0  0
   37.1442   14.2678  -11.9424 C   0  0  0  0  0  0  0  0  0  0  0  0
   36.5204   14.4185  -14.2686 C   0  0  0  0  0  0  0  0  0  0  0  0
   36.8365   13.2864  -15.1730 C   0  0  0  0  0  0  0  0  0  0  0  0
   35.8024   12.6409  -15.8590 C   0  0  0  0  0  0  0  0  0  0  0  0
   36.0308   11.5878  -16.7173 C   0  0  0  0  0  0  0  0  0  0  0  0
   37.3134   11.1362  -16.9242 C   0  0  0  0  0  0  0  0  0  0  0  0
   37.5786    9.7977  -18.0186 Cl  0  0  0  0  0  0  0  0  0  0  0  0
   38.3530   11.7423  -16.2707 C   0  0  0  0  0  0  0  0  0  0  0  0
   38.1004   12.8041  -15.4083 C   0  0  0  0  0  0  0  0  0  0  0  0
 19 20  1  0  0  0
 20  1  1  0  0  0
  1  2  2  0  0  0
  2  3  1  0  0  0
  3  4  1  0  0  0
  3  5  2  0  0  0
  5  9  1  0  0  0
  9 10  2  0  0  0
  9 11  2  0  0  0
  9 12  1  0  0  0
 12 14  1  0  0  0
 14 15  2  0  0  0
 15 16  1  0  0  0
 16 17  1  0  0  0
 17 18  2  0  0  0
  5  6  1  0  0  0
  6  7  2  0  0  0
  7  8  1  0  0  0
 20 21  1  0  0  0
 21 22  1  0  0  0
 22 23  1  0  0  0
 23 24  1  0  0  0
 24 26  1  0  0  0
 26 27  1  0  0  0
 27 28  2  0  0  0
 28 29  1  0  0  0
 29 30  2  0  0  0
 30 31  1  0  0  0
 30 32  1  0  0  0
 32 33  2  0  0  0
 24 25  1  0  0  0
  7  1  1  0  0  0
 25 21  1  0  0  0
 18 14  1  0  0  0
 33 27  1  0  0  0
 12 13  1  0  0  0
M  END
> <minimizedAffinity>
-7.57129

> <CNNscore>
0.0522306636

> <CNNaffinity>
5.7701311111

> <CNN_VS>
0.3013777733

> <CNNaffinity_variance>
0.1339606196

$$$$
[H]c1nc(N([H])S(=O)(=O)c2c([H])c(Cl)c(N(C([H])([H])[H])[C@]3([H])C([H])([H])N(C([H])([H])c4c([H])c([H])c(Cl)c([H])c4[H])C([H])([H])C3([H])[H])c([H])c2F)c([H])s1


 33 36  0  0  0  0  0  0  0  0999 V2000
   36.6989   16.4235  -10.3791 C   0  0  0  0  0  0  0  0  0  0  0  0
   35.5252   16.2298  -11.0753 C   0  0  0  0  0  0  0  0  0  0  0  0
   35.3749   15.1882  -11.9625 C   0  0  0  0  0  0  0  0  0  0  0  0
   34.2052   15.0074  -12.6467 F   0  0  0  0  0  0  0  0  0  0  0  0
   36.4036   14.2730  -12.2036 C   0  0  0  0  0  0  0  0  0  0  0  0
   37.5715   14.4741  -11.5036 C   0  0  0  0  0  0  0  0  0  0  0  0
   37.7139   15.5203  -10.6169 C   0  0  0  0  0  0  0  0  0  0  0  0
   39.2337   15.7443   -9.7364 Cl  0  0  0  0  0  0  0  0  0  0  0  0
   36.1530   12.9509  -13.3225 S   0  0  0  0  0  0  0  0  0  0  0  0
   35.7744   13.5879  -14.6471 O   0  0  0  0  0  0  0  0  0  0  0  0
   35.0087   12.0871  -12.9134 O   0  0  0  0  0  0  0  0  0  0  0  0
   37.5548   12.0176  -13.6005 N   0  0  0  0  0  0  0  0  0  0  0  0
   37.7228   11.2099  -12.9645 H   0  0  0  0  0  0  0  0  0  0  0  0
   38.4990   12.3096  -14.6723 C   0  0  0  0  0  0  0  0  0  0  0  0
   39.4483   13.2962  -14.5299 C   0  0  0  0  0  0  0  0  0  0  0  0
   40.2561   13.2141  -16.0309 S   0  0  0  0  0  0  0  0  0  0  0  0
   39.3550   11.9510  -16.7411 C   0  0  0  0  0  0  0  0  0  0  0  0
   38.4841   11.6593  -15.7918 N   0  0  0  0  0  0  0  0  0  0  0  0
   37.7284   18.6098   -9.8166 C   0  0  0  0  0  0  0  0  0  0  0  0
   36.8856   17.4846   -9.4603 N   0  0  0  0  0  0  0  0  0  0  0  0
   36.2627   17.4823   -8.1776 C   0  0  0  0  0  0  0  0  0  0  0  0
   34.8925   16.8360   -8.1663 C   0  0  0  0  0  0  0  0  0  0  0  0
   34.7152   16.5915   -6.6717 C   0  0  0  0  0  0  0  0  0  0  0  0
   36.0082   16.2051   -6.2046 N   0  0  0  0  0  0  0  0  0  0  0  0
   36.9923   16.5775   -7.1744 C   0  0  0  0  0  0  0  0  0  0  0  0
   36.0027   14.8165   -5.8541 C   0  0  0  0  0  0  0  0  0  0  0  0
   37.3978   14.3137   -5.8402 C   0  0  0  0  0  0  0  0  0  0  0  0
   38.2887   14.7758   -4.8658 C   0  0  0  0  0  0  0  0  0  0  0  0
   39.5949   14.3433   -4.7955 C   0  0  0  0  0  0  0  0  0  0  0  0
   40.0638   13.4241   -5.7048 C   0  0  0  0  0  0  0  0  0  0  0  0
   41.7259   12.8900   -5.5955 Cl  0  0  0  0  0  0  0  0  0  0  0  0
   39.2219   12.9477   -6.6741 C   0  0  0  0  0  0  0  0  0  0  0  0
   37.9068   13.3975   -6.7273 C   0  0  0  0  0  0  0  0  0  0  0  0
 19 20  1  0  0  0
 20  1  1  0  0  0
  1  2  2  0  0  0
  2  3  1  0  0  0
  3  4  1  0  0  0
  3  5  2  0  0  0
  5  9  1  0  0  0
  9 10  2  0  0  0
  9 11  2  0  0  0
  9 12  1  0  0  0
 12 14  1  0  0  0
 14 15  2  0  0  0
 15 16  1  0  0  0
 16 17  1  0  0  0
 17 18  2  0  0  0
  5  6  1  0  0  0
  6  7  2  0  0  0
  7  8  1  0  0  0
 20 21  1  0  0  0
 21 22  1  0  0  0
 22 23  1  0  0  0
 23 24  1  0  0  0
 24 26  1  0  0  0
 26 27  1  0  0  0
 27 28  2  0  0  0
 28 29  1  0  0  0
 29 30  2  0  0  0
 30 31  1  0  0  0
 30 32  1  0  0  0
 32 33  2  0  0  0
 24 25  1  0  0  0
  7  1  1  0  0  0
 25 21  1  0  0  0
 18 14  1  0  0  0
 33 27  1  0  0  0
 12 13  1  0  0  0
M  END
> <minimizedAffinity>
-7.14326

> <CNNscore>
0.0521644317

> <CNNaffinity>
5.6021890640

> <CNN_VS>
0.2922350168

> <CNNaffinity_variance>
0.8713026047

$$$$
[H]c1nc(N([H])S(=O)(=O)c2c([H])c(Cl)c(N(C([H])([H])[H])[C@]3([H])C([H])([H])N(C([H])([H])c4c([H])c([H])c(Cl)c([H])c4[H])C([H])([H])C3([H])[H])c([H])c2F)c([H])s1


 33 36  0  0  0  0  0  0  0  0999 V2000
   37.8631   16.1935   -8.5258 C   0  0  0  0  0  0  0  0  0  0  0  0
   37.0140   16.2131   -7.4401 C   0  0  0  0  0  0  0  0  0  0  0  0
   37.4918   16.2491   -6.1498 C   0  0  0  0  0  0  0  0  0  0  0  0
   36.6386   16.2682   -5.0818 F   0  0  0  0  0  0  0  0  0  0  0  0
   38.8619   16.2677   -5.8729 C   0  0  0  0  0  0  0  0  0  0  0  0
   39.7019   16.2484   -6.9631 C   0  0  0  0  0  0  0  0  0  0  0  0
   39.2149   16.2121   -8.2524 C   0  0  0  0  0  0  0  0  0  0  0  0
   40.3298   16.1876   -9.6279 Cl  0  0  0  0  0  0  0  0  0  0  0  0
   39.4178   16.3392   -4.2150 S   0  0  0  0  0  0  0  0  0  0  0  0
   38.9107   15.0740   -3.5472 O   0  0  0  0  0  0  0  0  0  0  0  0
   38.8191   17.4888   -3.4781 O   0  0  0  0  0  0  0  0  0  0  0  0
   41.1179   16.3353   -4.0650 N   0  0  0  0  0  0  0  0  0  0  0  0
   41.5724   15.4300   -3.8222 H   0  0  0  0  0  0  0  0  0  0  0  0
   41.9314   17.5293   -4.2606 C   0  0  0  0  0  0  0  0  0  0  0  0
   42.6516   17.7130   -5.4192 C   0  0  0  0  0  0  0  0  0  0  0  0
   43.3943   19.2212   -5.1260 S   0  0  0  0  0  0  0  0  0  0  0  0
   42.7567   19.5260   -3.5728 C   0  0  0  0  0  0  0  0  0  0  0  0
   42.0095   18.4576   -3.3614 N   0  0  0  0  0  0  0  0  0  0  0  0
   37.0998   17.3923  -10.5596 C   0  0  0  0  0  0  0  0  0  0  0  0
   37.4039   16.1562   -9.8646 N   0  0  0  0  0  0  0  0  0  0  0  0
   37.2283   14.9246  -10.5616 C   0  0  0  0  0  0  0  0  0  0  0  0
   35.7859   14.6235  -10.9137 C   0  0  0  0  0  0  0  0  0  0  0  0
   35.9805   13.5541  -11.9832 C   0  0  0  0  0  0  0  0  0  0  0  0
   37.1248   13.9777  -12.7253 N   0  0  0  0  0  0  0  0  0  0  0  0
   37.8451   14.9546  -11.9673 C   0  0  0  0  0  0  0  0  0  0  0  0
   36.7248   14.4042  -14.0326 C   0  0  0  0  0  0  0  0  0  0  0  0
   36.9868   13.3119  -15.0010 C   0  0  0  0  0  0  0  0  0  0  0  0
   35.9119   12.6653  -15.6200 C   0  0  0  0  0  0  0  0  0  0  0  0
   36.0888   11.6482  -16.5323 C   0  0  0  0  0  0  0  0  0  0  0  0
   37.3583   11.2356  -16.8633 C   0  0  0  0  0  0  0  0  0  0  0  0
   37.5577    9.9423  -18.0241 Cl  0  0  0  0  0  0  0  0  0  0  0  0
   38.4367   11.8441  -16.2784 C   0  0  0  0  0  0  0  0  0  0  0  0
   38.2359   12.8691  -15.3598 C   0  0  0  0  0  0  0  0  0  0  0  0
 19 20  1  0  0  0
 20  1  1  0  0  0
  1  2  2  0  0  0
  2  3  1  0  0  0
  3  4  1  0  0  0
  3  5  2  0  0  0
  5  9  1  0  0  0
  9 10  2  0  0  0
  9 11  2  0  0  0
  9 12  1  0  0  0
 12 14  1  0  0  0
 14 15  2  0  0  0
 15 16  1  0  0  0
 16 17  1  0  0  0
 17 18  2  0  0  0
  5  6  1  0  0  0
  6  7  2  0  0  0
  7  8  1  0  0  0
 20 21  1  0  0  0
 21 22  1  0  0  0
 22 23  1  0  0  0
 23 24  1  0  0  0
 24 26  1  0  0  0
 26 27  1  0  0  0
 27 28  2  0  0  0
 28 29  1  0  0  0
 29 30  2  0  0  0
 30 31  1  0  0  0
 30 32  1  0  0  0
 32 33  2  0  0  0
 24 25  1  0  0  0
  7  1  1  0  0  0
 25 21  1  0  0  0
 18 14  1  0  0  0
 33 27  1  0  0  0
 12 13  1  0  0  0
M  END
> <minimizedAffinity>
-6.43764

> <CNNscore>
0.0513720661

> <CNNaffinity>
5.7970657349

> <CNN_VS>
0.2978072464

> <CNNaffinity_variance>
0.3351895213

$$$$
[H]c1nc(N([H])S(=O)(=O)c2c([H])c(Cl)c(N(C([H])([H])[H])[C@]3([H])C([H])([H])N(C([H])([H])c4c([H])c([H])c(Cl)c([H])c4[H])C([H])([H])C3([H])[H])c([H])c2F)c([H])s1


 33 36  0  0  0  0  0  0  0  0999 V2000
   40.4147   16.1735  -10.5532 C   0  0  0  0  0  0  0  0  0  0  0  0
   41.0898   16.3690  -11.7389 C   0  0  0  0  0  0  0  0  0  0  0  0
   42.4627   16.3006  -11.8084 C   0  0  0  0  0  0  0  0  0  0  0  0
   43.1199   16.4966  -12.9911 F   0  0  0  0  0  0  0  0  0  0  0  0
   43.2438   16.0294  -10.6813 C   0  0  0  0  0  0  0  0  0  0  0  0
   42.5610   15.8350   -9.5021 C   0  0  0  0  0  0  0  0  0  0  0  0
   41.1854   15.9056   -9.4411 C   0  0  0  0  0  0  0  0  0  0  0  0
   40.3452   15.6499   -7.9036 Cl  0  0  0  0  0  0  0  0  0  0  0  0
   44.9847   15.9279  -10.8279 S   0  0  0  0  0  0  0  0  0  0  0  0
   45.2580   14.8142  -11.8222 O   0  0  0  0  0  0  0  0  0  0  0  0
   45.6275   15.5300   -9.5428 O   0  0  0  0  0  0  0  0  0  0  0  0
   45.6999   17.3444  -11.4565 N   0  0  0  0  0  0  0  0  0  0  0  0
   45.5126   18.2364  -10.9522 H   0  0  0  0  0  0  0  0  0  0  0  0
   46.5421   17.3435  -12.6466 C   0  0  0  0  0  0  0  0  0  0  0  0
   47.9060   17.1856  -12.5483 C   0  0  0  0  0  0  0  0  0  0  0  0
   48.3789   17.2599  -14.1863 S   0  0  0  0  0  0  0  0  0  0  0  0
   46.8404   17.4838  -14.8899 C   0  0  0  0  0  0  0  0  0  0  0  0
   46.0470   17.4897  -13.8339 N   0  0  0  0  0  0  0  0  0  0  0  0
   38.3676   17.4578   -9.9908 C   0  0  0  0  0  0  0  0  0  0  0  0
   39.0041   16.2374  -10.4481 N   0  0  0  0  0  0  0  0  0  0  0  0
   38.1775   15.1247  -10.7822 C   0  0  0  0  0  0  0  0  0  0  0  0
   36.7123   15.3347  -10.4593 C   0  0  0  0  0  0  0  0  0  0  0  0
   36.0826   14.2343  -11.3065 C   0  0  0  0  0  0  0  0  0  0  0  0
   36.8490   14.2114  -12.5114 N   0  0  0  0  0  0  0  0  0  0  0  0
   38.0864   14.8976  -12.2980 C   0  0  0  0  0  0  0  0  0  0  0  0
   36.0612   14.7127  -13.5972 C   0  0  0  0  0  0  0  0  0  0  0  0
   35.5346   13.5705  -14.3830 C   0  0  0  0  0  0  0  0  0  0  0  0
   36.3784   12.8962  -15.2717 C   0  0  0  0  0  0  0  0  0  0  0  0
   35.9518   11.8247  -16.0254 C   0  0  0  0  0  0  0  0  0  0  0  0
   34.6539   11.3828  -15.9178 C   0  0  0  0  0  0  0  0  0  0  0  0
   34.1354   10.0205  -16.8848 Cl  0  0  0  0  0  0  0  0  0  0  0  0
   33.7970   12.0170  -15.0582 C   0  0  0  0  0  0  0  0  0  0  0  0
   34.2481   13.0969  -14.3065 C   0  0  0  0  0  0  0  0  0  0  0  0
 19 20  1  0  0  0
 20  1  1  0  0  0
  1  2  2  0  0  0
  2  3  1  0  0  0
  3  4  1  0  0  0
  3  5  2  0  0  0
  5  9  1  0  0  0
  9 10  2  0  0  0
  9 11  2  0  0  0
  9 12  1  0  0  0
 12 14  1  0  0  0
 14 15  2  0  0  0
 15 16  1  0  0  0
 16 17  1  0  0  0
 17 18  2  0  0  0
  5  6  1  0  0  0
  6  7  2  0  0  0
  7  8  1  0  0  0
 20 21  1  0  0  0
 21 22  1  0  0  0
 22 23  1  0  0  0
 23 24  1  0  0  0
 24 26  1  0  0  0
 26 27  1  0  0  0
 27 28  2  0  0  0
 28 29  1  0  0  0
 29 30  2  0  0  0
 30 31  1  0  0  0
 30 32  1  0  0  0
 32 33  2  0  0  0
 24 25  1  0  0  0
  7  1  1  0  0  0
 25 21  1  0  0  0
 18 14  1  0  0  0
 33 27  1  0  0  0
 12 13  1  0  0  0
M  END
> <minimizedAffinity>
-6.96162

> <CNNscore>
0.0509379953

> <CNNaffinity>
5.9590964317

> <CNN_VS>
0.3035444319

> <CNNaffinity_variance>
0.0742762908

$$$$
[H]c1nc(N([H])S(=O)(=O)c2c([H])c(Cl)c(N(C([H])([H])[H])[C@]3([H])C([H])([H])N(C([H])([H])c4c([H])c([H])c(Cl)c([H])c4[H])C([H])([H])C3([H])[H])c([H])c2F)c([H])s1


 33 36  0  0  0  0  0  0  0  0999 V2000
   36.9517   16.4513  -10.2790 C   0  0  0  0  0  0  0  0  0  0  0  0
   35.6992   16.2700  -10.8252 C   0  0  0  0  0  0  0  0  0  0  0  0
   35.4481   15.2751  -11.7425 C   0  0  0  0  0  0  0  0  0  0  0  0
   34.2010   15.1062  -12.2766 F   0  0  0  0  0  0  0  0  0  0  0  0
   36.4492   14.3971  -12.1680 C   0  0  0  0  0  0  0  0  0  0  0  0
   37.6963   14.5854  -11.6168 C   0  0  0  0  0  0  0  0  0  0  0  0
   37.9393   15.5848  -10.6987 C   0  0  0  0  0  0  0  0  0  0  0  0
   39.5588   15.7939  -10.0138 Cl  0  0  0  0  0  0  0  0  0  0  0  0
   36.0722   13.1325  -13.3174 S   0  0  0  0  0  0  0  0  0  0  0  0
   35.7468   13.8350  -14.6229 O   0  0  0  0  0  0  0  0  0  0  0  0
   34.8554   12.3673  -12.9213 O   0  0  0  0  0  0  0  0  0  0  0  0
   37.3807   12.0818  -13.6291 N   0  0  0  0  0  0  0  0  0  0  0  0
   37.5128   11.2797  -12.9777 H   0  0  0  0  0  0  0  0  0  0  0  0
   38.2949   12.2686  -14.7493 C   0  0  0  0  0  0  0  0  0  0  0  0
   39.3498   13.1487  -14.6628 C   0  0  0  0  0  0  0  0  0  0  0  0
   40.0668   12.9770  -16.2018 S   0  0  0  0  0  0  0  0  0  0  0  0
   39.0014   11.8154  -16.8557 C   0  0  0  0  0  0  0  0  0  0  0  0
   38.1539   11.6208  -15.8615 N   0  0  0  0  0  0  0  0  0  0  0  0
   37.8056   18.7262   -9.7765 C   0  0  0  0  0  0  0  0  0  0  0  0
   37.2427   17.4648   -9.3340 N   0  0  0  0  0  0  0  0  0  0  0  0
   36.9966   17.2826   -7.9413 C   0  0  0  0  0  0  0  0  0  0  0  0
   36.6317   15.8605   -7.5676 C   0  0  0  0  0  0  0  0  0  0  0  0
   36.8763   15.8993   -6.0629 C   0  0  0  0  0  0  0  0  0  0  0  0
   38.0402   16.7104   -5.8987 N   0  0  0  0  0  0  0  0  0  0  0  0
   38.2645   17.4637   -7.0944 C   0  0  0  0  0  0  0  0  0  0  0  0
   39.1434   15.8975   -5.4826 C   0  0  0  0  0  0  0  0  0  0  0  0
   40.3814   16.7139   -5.4987 C   0  0  0  0  0  0  0  0  0  0  0  0
   40.5011   17.8039   -4.6303 C   0  0  0  0  0  0  0  0  0  0  0  0
   41.6269   18.5972   -4.5924 C   0  0  0  0  0  0  0  0  0  0  0  0
   42.6851   18.3280   -5.4288 C   0  0  0  0  0  0  0  0  0  0  0  0
   44.1038   19.3492   -5.3626 Cl  0  0  0  0  0  0  0  0  0  0  0  0
   42.6059   17.2692   -6.2936 C   0  0  0  0  0  0  0  0  0  0  0  0
   41.4601   16.4809   -6.3156 C   0  0  0  0  0  0  0  0  0  0  0  0
 19 20  1  0  0  0
 20  1  1  0  0  0
  1  2  2  0  0  0
  2  3  1  0  0  0
  3  4  1  0  0  0
  3  5  2  0  0  0
  5  9  1  0  0  0
  9 10  2  0  0  0
  9 11  2  0  0  0
  9 12  1  0  0  0
 12 14  1  0  0  0
 14 15  2  0  0  0
 15 16  1  0  0  0
 16 17  1  0  0  0
 17 18  2  0  0  0
  5  6  1  0  0  0
  6  7  2  0  0  0
  7  8  1  0  0  0
 20 21  1  0  0  0
 21 22  1  0  0  0
 22 23  1  0  0  0
 23 24  1  0  0  0
 24 26  1  0  0  0
 26 27  1  0  0  0
 27 28  2  0  0  0
 28 29  1  0  0  0
 29 30  2  0  0  0
 30 31  1  0  0  0
 30 32  1  0  0  0
 32 33  2  0  0  0
 24 25  1  0  0  0
  7  1  1  0  0  0
 25 21  1  0  0  0
 18 14  1  0  0  0
 33 27  1  0  0  0
 12 13  1  0  0  0
M  END
> <minimizedAffinity>
-6.52623

> <CNNscore>
0.0476160757

> <CNNaffinity>
5.5177164078

> <CNN_VS>
0.2627319992

> <CNNaffinity_variance>
0.5306369066

$$$$
[H]OC1([H])C([H])([H])OC([H])([H])C([H])([H])C1(c1c([H])c([H])c(C(F)(F)F)c([H])c1F)N([H])C(=O)c1c([H])nn2c([H])c(C([H])([H])[H])c([H])nc12


 33 36  0  0  0  0  0  0  0  0999 V2000
   37.3092   14.4724  -12.8546 C   0  0  0  0  0  0  0  0  0  0  0  0
   37.1378   15.8681  -12.6782 C   0  0  0  0  0  0  0  0  0  0  0  0
   35.8748   16.3902  -12.0102 C   0  0  0  0  0  0  0  0  0  0  0  0
   34.9717   15.5009  -11.5566 O   0  0  0  0  0  0  0  0  0  0  0  0
   35.4561   14.3336  -11.1045 C   0  0  0  0  0  0  0  0  0  0  0  0
   36.6599   13.7291  -11.6597 C   0  0  0  0  0  0  0  0  0  0  0  0
   37.5935   13.5748  -10.6147 O   0  0  0  0  0  0  0  0  0  0  0  0
   37.5746   12.6851  -10.2429 H   0  0  0  0  0  0  0  0  0  0  0  0
   36.9339   13.6898  -14.0200 C   0  0  0  0  0  0  0  0  0  0  0  0
   37.8778   12.7397  -14.4477 C   0  0  0  0  0  0  0  0  0  0  0  0
   37.6197   11.8281  -15.4452 C   0  0  0  0  0  0  0  0  0  0  0  0
   36.4283   11.7843  -16.0905 C   0  0  0  0  0  0  0  0  0  0  0  0
   35.4636   12.7121  -15.6930 C   0  0  0  0  0  0  0  0  0  0  0  0
   35.7566   13.6139  -14.6851 C   0  0  0  0  0  0  0  0  0  0  0  0
   34.7990   14.4942  -14.3876 F   0  0  0  0  0  0  0  0  0  0  0  0
   36.1327   10.7785  -17.1367 C   0  0  0  0  0  0  0  0  0  0  0  0
   35.2202    9.8293  -16.6611 F   0  0  0  0  0  0  0  0  0  0  0  0
   35.6323   11.4315  -18.2389 F   0  0  0  0  0  0  0  0  0  0  0  0
   37.2744   10.1355  -17.6091 F   0  0  0  0  0  0  0  0  0  0  0  0
   39.6633   14.8404  -13.4928 C   0  0  0  0  0  0  0  0  0  0  0  0
   39.2323   15.7343  -14.2773 O   0  0  0  0  0  0  0  0  0  0  0  0
   38.7485   14.1002  -12.6592 N   0  0  0  0  0  0  0  0  0  0  0  0
   39.1005   13.3972  -12.0329 H   0  0  0  0  0  0  0  0  0  0  0  0
   44.5584   11.8068  -16.9188 C   0  0  0  0  0  0  0  0  0  0  0  0
   43.5756   12.5588  -16.0601 C   0  0  0  0  0  0  0  0  0  0  0  0
   42.2343   12.6130  -16.3684 C   0  0  0  0  0  0  0  0  0  0  0  0
   41.3711   13.2873  -15.5855 N   0  0  0  0  0  0  0  0  0  0  0  0
   41.8071   13.9164  -14.4906 C   0  0  0  0  0  0  0  0  0  0  0  0
   41.0896   14.6441  -13.5276 C   0  0  0  0  0  0  0  0  0  0  0  0
   42.0447   15.0367  -12.6391 C   0  0  0  0  0  0  0  0  0  0  0  0
   43.2436   14.5692  -13.0483 N   0  0  0  0  0  0  0  0  0  0  0  0
   43.0939   13.8834  -14.1734 N   0  0  0  0  0  0  0  0  0  0  0  0
   44.0157   13.2236  -14.9190 C   0  0  0  0  0  0  0  0  0  0  0  0
 24 25  1  0  0  0
 25 26  1  0  0  0
 26 27  2  0  0  0
 27 28  1  0  0  0
 28 29  2  0  0  0
 29 20  1  0  0  0
 20 21  2  0  0  0
 20 22  1  0  0  0
 22  1  1  0  0  0
  1  9  1  0  0  0
  9 10  2  0  0  0
 10 11  1  0  0  0
 11 12  2  0  0  0
 12 16  1  0  0  0
 16 17  1  0  0  0
 16 18  1  0  0  0
 16 19  1  0  0  0
 12 13  1  0  0  0
 13 14  2  0  0  0
 14 15  1  0  0  0
  1  2  1  0  0  0
  2  3  1  0  0  0
  3  4  1  0  0  0
  4  5  1  0  0  0
  5  6  1  0  0  0
  6  7  1  0  0  0
 29 30  1  0  0  0
 30 31  2  0  0  0
 31 32  1  0  0  0
 32 33  1  0  0  0
 33 25  2  0  0  0
 32 28  1  0  0  0
  6  1  1  0  0  0
 14  9  1  0  0  0
 22 23  1  0  0  0
  7  8  1  0  0  0
M  END
> <minimizedAffinity>
-8.25356

> <CNNscore>
0.3677838147

> <CNNaffinity>
6.6275763512

> <CNN_VS>
2.4375152588

> <CNNaffinity_variance>
0.3913590312

$$$$
[H]OC1([H])C([H])([H])OC([H])([H])C([H])([H])C1(c1c([H])c([H])c(C(F)(F)F)c([H])c1F)N([H])C(=O)c1c([H])nn2c([H])c(C([H])([H])[H])c([H])nc12


 33 36  0  0  0  0  0  0  0  0999 V2000
   44.3551   14.4367  -13.3880 C   0  0  0  0  0  0  0  0  0  0  0  0
   43.4920   15.4267  -12.8557 C   0  0  0  0  0  0  0  0  0  0  0  0
   44.0848   16.6526  -12.1776 C   0  0  0  0  0  0  0  0  0  0  0  0
   45.4238   16.7871  -12.1472 O   0  0  0  0  0  0  0  0  0  0  0  0
   46.0992   16.2906  -13.1956 C   0  0  0  0  0  0  0  0  0  0  0  0
   45.6349   15.1217  -13.9310 C   0  0  0  0  0  0  0  0  0  0  0  0
   45.4547   15.4959  -15.2782 O   0  0  0  0  0  0  0  0  0  0  0  0
   46.2192   15.2694  -15.8206 H   0  0  0  0  0  0  0  0  0  0  0  0
   44.8374   13.2461  -12.7088 C   0  0  0  0  0  0  0  0  0  0  0  0
   45.9484   12.6155  -13.2959 C   0  0  0  0  0  0  0  0  0  0  0  0
   46.6088   11.5638  -12.7039 C   0  0  0  0  0  0  0  0  0  0  0  0
   46.2291   11.0582  -11.5048 C   0  0  0  0  0  0  0  0  0  0  0  0
   45.1295   11.6588  -10.8889 C   0  0  0  0  0  0  0  0  0  0  0  0
   44.4897   12.7159  -11.5121 C   0  0  0  0  0  0  0  0  0  0  0  0
   43.4238   13.2120  -10.8811 F   0  0  0  0  0  0  0  0  0  0  0  0
   46.9620    9.9527  -10.8455 C   0  0  0  0  0  0  0  0  0  0  0  0
   46.3836    9.6502   -9.6071 F   0  0  0  0  0  0  0  0  0  0  0  0
   46.9395    8.8584  -11.6783 F   0  0  0  0  0  0  0  0  0  0  0  0
   48.3173   10.2256  -10.6757 F   0  0  0  0  0  0  0  0  0  0  0  0
   42.3803   13.5546  -14.5739 C   0  0  0  0  0  0  0  0  0  0  0  0
   41.7366   13.7702  -13.5064 O   0  0  0  0  0  0  0  0  0  0  0  0
   43.7824   13.8808  -14.6574 N   0  0  0  0  0  0  0  0  0  0  0  0
   44.2843   13.7136  -15.5122 H   0  0  0  0  0  0  0  0  0  0  0  0
   36.1787   11.6383  -16.2384 C   0  0  0  0  0  0  0  0  0  0  0  0
   37.6151   12.0341  -16.0177 C   0  0  0  0  0  0  0  0  0  0  0  0
   38.0228   12.6800  -14.8715 C   0  0  0  0  0  0  0  0  0  0  0  0
   39.3126   13.0218  -14.6915 N   0  0  0  0  0  0  0  0  0  0  0  0
   40.2209   12.7360  -15.6285 C   0  0  0  0  0  0  0  0  0  0  0  0
   41.6056   12.9691  -15.6375 C   0  0  0  0  0  0  0  0  0  0  0  0
   42.0137   12.4553  -16.8313 C   0  0  0  0  0  0  0  0  0  0  0  0
   40.9431   11.9501  -17.4808 N   0  0  0  0  0  0  0  0  0  0  0  0
   39.8542   12.1185  -16.7429 N   0  0  0  0  0  0  0  0  0  0  0  0
   38.5720   11.7477  -16.9872 C   0  0  0  0  0  0  0  0  0  0  0  0
 24 25  1  0  0  0
 25 26  1  0  0  0
 26 27  2  0  0  0
 27 28  1  0  0  0
 28 29  2  0  0  0
 29 20  1  0  0  0
 20 21  2  0  0  0
 20 22  1  0  0  0
 22  1  1  0  0  0
  1  9  1  0  0  0
  9 10  2  0  0  0
 10 11  1  0  0  0
 11 12  2  0  0  0
 12 16  1  0  0  0
 16 17  1  0  0  0
 16 18  1  0  0  0
 16 19  1  0  0  0
 12 13  1  0  0  0
 13 14  2  0  0  0
 14 15  1  0  0  0
  1  2  1  0  0  0
  2  3  1  0  0  0
  3  4  1  0  0  0
  4  5  1  0  0  0
  5  6  1  0  0  0
  6  7  1  0  0  0
 29 30  1  0  0  0
 30 31  2  0  0  0
 31 32  1  0  0  0
 32 33  1  0  0  0
 33 25  2  0  0  0
 32 28  1  0  0  0
  6  1  1  0  0  0
 14  9  1  0  0  0
 22 23  1  0  0  0
  7  8  1  0  0  0
M  END
> <minimizedAffinity>
-8.35851

> <CNNscore>
0.2351065576

> <CNNaffinity>
5.7861890793

> <CNN_VS>
1.3603709936

> <CNNaffinity_variance>
0.4189178348

$$$$
[H]OC1([H])C([H])([H])OC([H])([H])C([H])([H])C1(c1c([H])c([H])c(C(F)(F)F)c([H])c1F)N([H])C(=O)c1c([H])nn2c([H])c(C([H])([H])[H])c([H])nc12


 33 36  0  0  0  0  0  0  0  0999 V2000
   36.9116   14.4314  -12.7919 C   0  0  0  0  0  0  0  0  0  0  0  0
   37.0592   15.8395  -12.7310 C   0  0  0  0  0  0  0  0  0  0  0  0
   36.1460   16.6510  -11.8246 C   0  0  0  0  0  0  0  0  0  0  0  0
   35.2498   15.9973  -11.0620 O   0  0  0  0  0  0  0  0  0  0  0  0
   35.6110   14.7811  -10.6235 C   0  0  0  0  0  0  0  0  0  0  0  0
   36.4834   13.9079  -11.3974 C   0  0  0  0  0  0  0  0  0  0  0  0
   37.6194   13.6192  -10.6140 O   0  0  0  0  0  0  0  0  0  0  0  0
   37.5357   12.7752  -10.1550 H   0  0  0  0  0  0  0  0  0  0  0  0
   36.0944   13.6817  -13.7309 C   0  0  0  0  0  0  0  0  0  0  0  0
   36.7424   12.6280  -14.3991 C   0  0  0  0  0  0  0  0  0  0  0  0
   36.0778   11.7390  -15.2120 C   0  0  0  0  0  0  0  0  0  0  0  0
   34.7419   11.8200  -15.4275 C   0  0  0  0  0  0  0  0  0  0  0  0
   34.0621   12.8535  -14.7800 C   0  0  0  0  0  0  0  0  0  0  0  0
   34.7619   13.7288  -13.9682 C   0  0  0  0  0  0  0  0  0  0  0  0
   34.0508   14.7131  -13.4150 F   0  0  0  0  0  0  0  0  0  0  0  0
   34.0165   10.8410  -16.2696 C   0  0  0  0  0  0  0  0  0  0  0  0
   32.8006   10.4864  -15.6732 F   0  0  0  0  0  0  0  0  0  0  0  0
   33.8107   11.4013  -17.5087 F   0  0  0  0  0  0  0  0  0  0  0  0
   34.7618    9.6940  -16.5323 F   0  0  0  0  0  0  0  0  0  0  0  0
   39.1301   14.4304  -13.8702 C   0  0  0  0  0  0  0  0  0  0  0  0
   38.7547   15.4780  -14.4719 O   0  0  0  0  0  0  0  0  0  0  0  0
   38.2536   13.7770  -12.9299 N   0  0  0  0  0  0  0  0  0  0  0  0
   38.5631   12.9495  -12.4503 H   0  0  0  0  0  0  0  0  0  0  0  0
   45.6083   15.1929  -12.3360 C   0  0  0  0  0  0  0  0  0  0  0  0
   44.1990   14.9014  -12.7806 C   0  0  0  0  0  0  0  0  0  0  0  0
   43.1087   15.4645  -12.1550 C   0  0  0  0  0  0  0  0  0  0  0  0
   41.8568   15.1943  -12.5703 N   0  0  0  0  0  0  0  0  0  0  0  0
   41.6540   14.3715  -13.6031 C   0  0  0  0  0  0  0  0  0  0  0  0
   40.4531   13.9781  -14.2153 C   0  0  0  0  0  0  0  0  0  0  0  0
   40.8563   13.1503  -15.2192 C   0  0  0  0  0  0  0  0  0  0  0  0
   42.2038   13.0642  -15.2027 N   0  0  0  0  0  0  0  0  0  0  0  0
   42.6860   13.8131  -14.2203 N   0  0  0  0  0  0  0  0  0  0  0  0
   43.9716   14.0421  -13.8518 C   0  0  0  0  0  0  0  0  0  0  0  0
 24 25  1  0  0  0
 25 26  1  0  0  0
 26 27  2  0  0  0
 27 28  1  0  0  0
 28 29  2  0  0  0
 29 20  1  0  0  0
 20 21  2  0  0  0
 20 22  1  0  0  0
 22  1  1  0  0  0
  1  9  1  0  0  0
  9 10  2  0  0  0
 10 11  1  0  0  0
 11 12  2  0  0  0
 12 16  1  0  0  0
 16 17  1  0  0  0
 16 18  1  0  0  0
 16 19  1  0  0  0
 12 13  1  0  0  0
 13 14  2  0  0  0
 14 15  1  0  0  0
  1  2  1  0  0  0
  2  3  1  0  0  0
  3  4  1  0  0  0
  4  5  1  0  0  0
  5  6  1  0  0  0
  6  7  1  0  0  0
 29 30  1  0  0  0
 30 31  2  0  0  0
 31 32  1  0  0  0
 32 33  1  0  0  0
 33 25  2  0  0  0
 32 28  1  0  0  0
  6  1  1  0  0  0
 14  9  1  0  0  0
 22 23  1  0  0  0
  7  8  1  0  0  0
M  END
> <minimizedAffinity>
-7.43841

> <CNNscore>
0.1283706874

> <CNNaffinity>
6.3240494728

> <CNN_VS>
0.8118225932

> <CNNaffinity_variance>
0.4290322363

$$$$
[H]OC1([H])C([H])([H])OC([H])([H])C([H])([H])C1(c1c([H])c([H])c(C(F)(F)F)c([H])c1F)N([H])C(=O)c1c([H])nn2c([H])c(C([H])([H])[H])c([H])nc12


 33 36  0  0  0  0  0  0  0  0999 V2000
   36.6612   13.6483  -13.5634 C   0  0  0  0  0  0  0  0  0  0  0  0
   36.0938   12.3523  -13.6457 C   0  0  0  0  0  0  0  0  0  0  0  0
   34.5990   12.1726  -13.4278 C   0  0  0  0  0  0  0  0  0  0  0  0
   33.8441   13.2658  -13.2111 O   0  0  0  0  0  0  0  0  0  0  0  0
   34.2339   14.3938  -13.8253 C   0  0  0  0  0  0  0  0  0  0  0  0
   35.6363   14.6827  -14.0943 C   0  0  0  0  0  0  0  0  0  0  0  0
   35.7889   14.8518  -15.4856 O   0  0  0  0  0  0  0  0  0  0  0  0
   35.7686   15.7817  -15.7400 H   0  0  0  0  0  0  0  0  0  0  0  0
   37.2350   14.2739  -12.3840 C   0  0  0  0  0  0  0  0  0  0  0  0
   38.4494   14.9538  -12.5827 C   0  0  0  0  0  0  0  0  0  0  0  0
   39.0489   15.7123  -11.6040 C   0  0  0  0  0  0  0  0  0  0  0  0
   38.5059   15.8559  -10.3702 C   0  0  0  0  0  0  0  0  0  0  0  0
   37.2982   15.1962  -10.1341 C   0  0  0  0  0  0  0  0  0  0  0  0
   36.7223   14.4429  -11.1419 C   0  0  0  0  0  0  0  0  0  0  0  0
   35.5896   13.8108  -10.8290 F   0  0  0  0  0  0  0  0  0  0  0  0
   39.1274   16.7041   -9.3271 C   0  0  0  0  0  0  0  0  0  0  0  0
   40.5194   16.5555   -9.3387 F   0  0  0  0  0  0  0  0  0  0  0  0
   38.7712   18.0118   -9.5607 F   0  0  0  0  0  0  0  0  0  0  0  0
   38.6383   16.4392   -8.0500 F   0  0  0  0  0  0  0  0  0  0  0  0
   38.5781   12.6259  -14.7313 C   0  0  0  0  0  0  0  0  0  0  0  0
   38.3323   11.5811  -14.0617 O   0  0  0  0  0  0  0  0  0  0  0  0
   37.7538   13.7992  -14.5790 N   0  0  0  0  0  0  0  0  0  0  0  0
   37.9514   14.6224  -15.1210 H   0  0  0  0  0  0  0  0  0  0  0  0
   45.1457   13.8959  -15.1271 C   0  0  0  0  0  0  0  0  0  0  0  0
   43.6838   13.5375  -15.1832 C   0  0  0  0  0  0  0  0  0  0  0  0
   42.8563   13.6888  -14.0925 C   0  0  0  0  0  0  0  0  0  0  0  0
   41.5511   13.3663  -14.1643 N   0  0  0  0  0  0  0  0  0  0  0  0
   41.0372   12.8931  -15.3031 C   0  0  0  0  0  0  0  0  0  0  0  0
   39.7164   12.5264  -15.6079 C   0  0  0  0  0  0  0  0  0  0  0  0
   39.7802   12.1372  -16.9118 C   0  0  0  0  0  0  0  0  0  0  0  0
   41.0515   12.2689  -17.3476 N   0  0  0  0  0  0  0  0  0  0  0  0
   41.8127   12.7341  -16.3664 N   0  0  0  0  0  0  0  0  0  0  0  0
   43.1350   13.0384  -16.3611 C   0  0  0  0  0  0  0  0  0  0  0  0
 24 25  1  0  0  0
 25 26  1  0  0  0
 26 27  2  0  0  0
 27 28  1  0  0  0
 28 29  2  0  0  0
 29 20  1  0  0  0
 20 21  2  0  0  0
 20 22  1  0  0  0
 22  1  1  0  0  0
  1  9  1  0  0  0
  9 10  2  0  0  0
 10 11  1  0  0  0
 11 12  2  0  0  0
 12 16  1  0  0  0
 16 17  1  0  0  0
 16 18  1  0  0  0
 16 19  1  0  0  0
 12 13  1  0  0  0
 13 14  2  0  0  0
 14 15  1  0  0  0
  1  2  1  0  0  0
  2  3  1  0  0  0
  3  4  1  0  0  0
  4  5  1  0  0  0
  5  6  1  0  0  0
  6  7  1  0  0  0
 29 30  1  0  0  0
 30 31  2  0  0  0
 31 32  1  0  0  0
 32 33  1  0  0  0
 33 25  2  0  0  0
 32 28  1  0  0  0
  6  1  1  0  0  0
 14  9  1  0  0  0
 22 23  1  0  0  0
  7  8  1  0  0  0
M  END
> <minimizedAffinity>
-7.57124

> <CNNscore>
0.1229713783

> <CNNaffinity>
6.0000033379

> <CNN_VS>
0.7378286719

> <CNNaffinity_variance>
0.4912849963

$$$$
[H]OC1([H])C([H])([H])OC([H])([H])C([H])([H])C1(c1c([H])c([H])c(C(F)(F)F)c([H])c1F)N([H])C(=O)c1c([H])nn2c([H])c(C([H])([H])[H])c([H])nc12


 33 36  0  0  0  0  0  0  0  0999 V2000
   37.8702   15.4233  -11.1891 C   0  0  0  0  0  0  0  0  0  0  0  0
   37.3596   14.6583  -10.1109 C   0  0  0  0  0  0  0  0  0  0  0  0
   36.9354   15.3588   -8.8288 C   0  0  0  0  0  0  0  0  0  0  0  0
   37.0109   16.7017   -8.7738 O   0  0  0  0  0  0  0  0  0  0  0  0
   36.7942   17.3610   -9.9227 C   0  0  0  0  0  0  0  0  0  0  0  0
   37.1535   16.7972  -11.2172 C   0  0  0  0  0  0  0  0  0  0  0  0
   35.9843   16.7223  -12.0013 O   0  0  0  0  0  0  0  0  0  0  0  0
   35.8981   17.4788  -12.5932 H   0  0  0  0  0  0  0  0  0  0  0  0
   39.2652   15.7327  -11.4528 C   0  0  0  0  0  0  0  0  0  0  0  0
   40.0478   16.0354  -10.3247 C   0  0  0  0  0  0  0  0  0  0  0  0
   41.4105   16.2136  -10.3877 C   0  0  0  0  0  0  0  0  0  0  0  0
   42.0974   16.1103  -11.5519 C   0  0  0  0  0  0  0  0  0  0  0  0
   41.3549   15.8095  -12.6954 C   0  0  0  0  0  0  0  0  0  0  0  0
   39.9858   15.6353  -12.5954 C   0  0  0  0  0  0  0  0  0  0  0  0
   39.3399   15.3889  -13.7367 F   0  0  0  0  0  0  0  0  0  0  0  0
   43.5693   16.2616  -11.6170 C   0  0  0  0  0  0  0  0  0  0  0  0
   43.9257   17.1651  -12.6251 F   0  0  0  0  0  0  0  0  0  0  0  0
   44.0169   16.6930  -10.3902 F   0  0  0  0  0  0  0  0  0  0  0  0
   44.2306   15.0520  -11.8164 F   0  0  0  0  0  0  0  0  0  0  0  0
   36.3508   13.8767  -12.3655 C   0  0  0  0  0  0  0  0  0  0  0  0
   35.8727   13.6003  -11.2275 O   0  0  0  0  0  0  0  0  0  0  0  0
   37.4095   14.8473  -12.4945 N   0  0  0  0  0  0  0  0  0  0  0  0
   37.7781   15.0667  -13.4036 H   0  0  0  0  0  0  0  0  0  0  0  0
   37.8361   10.6341  -18.0385 C   0  0  0  0  0  0  0  0  0  0  0  0
   37.3489   11.3120  -16.7848 C   0  0  0  0  0  0  0  0  0  0  0  0
   38.2204   11.8589  -15.8690 C   0  0  0  0  0  0  0  0  0  0  0  0
   37.7645   12.4644  -14.7562 N   0  0  0  0  0  0  0  0  0  0  0  0
   36.4513   12.5445  -14.5243 C   0  0  0  0  0  0  0  0  0  0  0  0
   35.7627   13.1483  -13.4599 C   0  0  0  0  0  0  0  0  0  0  0  0
   34.4510   12.9343  -13.7586 C   0  0  0  0  0  0  0  0  0  0  0  0
   34.3711   12.2538  -14.9222 N   0  0  0  0  0  0  0  0  0  0  0  0
   35.5912   12.0227  -15.3877 N   0  0  0  0  0  0  0  0  0  0  0  0
   35.9837   11.3987  -16.5268 C   0  0  0  0  0  0  0  0  0  0  0  0
 24 25  1  0  0  0
 25 26  1  0  0  0
 26 27  2  0  0  0
 27 28  1  0  0  0
 28 29  2  0  0  0
 29 20  1  0  0  0
 20 21  2  0  0  0
 20 22  1  0  0  0
 22  1  1  0  0  0
  1  9  1  0  0  0
  9 10  2  0  0  0
 10 11  1  0  0  0
 11 12  2  0  0  0
 12 16  1  0  0  0
 16 17  1  0  0  0
 16 18  1  0  0  0
 16 19  1  0  0  0
 12 13  1  0  0  0
 13 14  2  0  0  0
 14 15  1  0  0  0
  1  2  1  0  0  0
  2  3  1  0  0  0
  3  4  1  0  0  0
  4  5  1  0  0  0
  5  6  1  0  0  0
  6  7  1  0  0  0
 29 30  1  0  0  0
 30 31  2  0  0  0
 31 32  1  0  0  0
 32 33  1  0  0  0
 33 25  2  0  0  0
 32 28  1  0  0  0
  6  1  1  0  0  0
 14  9  1  0  0  0
 22 23  1  0  0  0
  7  8  1  0  0  0
M  END
> <minimizedAffinity>
-9.05034

> <CNNscore>
0.1141155884

> <CNNaffinity>
5.6448793411

> <CNN_VS>
0.6441687346

> <CNNaffinity_variance>
0.3373375535

$$$$
[H]OC1([H])C([H])([H])OC([H])([H])C([H])([H])C1(c1c([H])c([H])c(C(F)(F)F)c([H])c1F)N([H])C(=O)c1c([H])nn2c([H])c(C([H])([H])[H])c([H])nc12


 33 36  0  0  0  0  0  0  0  0999 V2000
   40.3809   12.4190  -16.3963 C   0  0  0  0  0  0  0  0  0  0  0  0
   41.1136   11.3722  -17.0093 C   0  0  0  0  0  0  0  0  0  0  0  0
   40.8987   11.0704  -18.4847 C   0  0  0  0  0  0  0  0  0  0  0  0
   40.0486   11.8458  -19.1833 O   0  0  0  0  0  0  0  0  0  0  0  0
   39.9704   13.1334  -18.8123 C   0  0  0  0  0  0  0  0  0  0  0  0
   40.1591   13.5525  -17.4297 C   0  0  0  0  0  0  0  0  0  0  0  0
   41.2332   14.4649  -17.3921 O   0  0  0  0  0  0  0  0  0  0  0  0
   40.9293   15.3800  -17.4048 H   0  0  0  0  0  0  0  0  0  0  0  0
   39.1089   12.3013  -15.7036 C   0  0  0  0  0  0  0  0  0  0  0  0
   39.0148   12.9847  -14.4785 C   0  0  0  0  0  0  0  0  0  0  0  0
   37.8401   13.0881  -13.7700 C   0  0  0  0  0  0  0  0  0  0  0  0
   36.6837   12.5321  -14.2074 C   0  0  0  0  0  0  0  0  0  0  0  0
   36.7363   11.8453  -15.4218 C   0  0  0  0  0  0  0  0  0  0  0  0
   37.9345   11.7622  -16.1090 C   0  0  0  0  0  0  0  0  0  0  0  0
   37.9147   11.0569  -17.2415 F   0  0  0  0  0  0  0  0  0  0  0  0
   35.4085   12.6756  -13.4677 C   0  0  0  0  0  0  0  0  0  0  0  0
   34.4306   11.8313  -14.0070 F   0  0  0  0  0  0  0  0  0  0  0  0
   35.6376   12.3792  -12.1444 F   0  0  0  0  0  0  0  0  0  0  0  0
   34.9372   13.9862  -13.4481 F   0  0  0  0  0  0  0  0  0  0  0  0
   42.6524   12.9245  -15.5785 C   0  0  0  0  0  0  0  0  0  0  0  0
   43.0743   12.2233  -16.5432 O   0  0  0  0  0  0  0  0  0  0  0  0
   41.2373   13.1287  -15.3909 N   0  0  0  0  0  0  0  0  0  0  0  0
   40.9112   13.6940  -14.6263 H   0  0  0  0  0  0  0  0  0  0  0  0
   43.6509   16.5211  -10.0134 C   0  0  0  0  0  0  0  0  0  0  0  0
   43.5876   15.6880  -11.2667 C   0  0  0  0  0  0  0  0  0  0  0  0
   42.3897   15.2580  -11.7934 C   0  0  0  0  0  0  0  0  0  0  0  0
   42.3543   14.5173  -12.9173 N   0  0  0  0  0  0  0  0  0  0  0  0
   43.4886   14.1883  -13.5416 C   0  0  0  0  0  0  0  0  0  0  0  0
   43.6826   13.4598  -14.7263 C   0  0  0  0  0  0  0  0  0  0  0  0
   45.0354   13.4543  -14.8862 C   0  0  0  0  0  0  0  0  0  0  0  0
   45.6007   14.1365  -13.8672 N   0  0  0  0  0  0  0  0  0  0  0  0
   44.6552   14.5860  -13.0533 N   0  0  0  0  0  0  0  0  0  0  0  0
   44.7612   15.3328  -11.9255 C   0  0  0  0  0  0  0  0  0  0  0  0
 24 25  1  0  0  0
 25 26  1  0  0  0
 26 27  2  0  0  0
 27 28  1  0  0  0
 28 29  2  0  0  0
 29 20  1  0  0  0
 20 21  2  0  0  0
 20 22  1  0  0  0
 22  1  1  0  0  0
  1  9  1  0  0  0
  9 10  2  0  0  0
 10 11  1  0  0  0
 11 12  2  0  0  0
 12 16  1  0  0  0
 16 17  1  0  0  0
 16 18  1  0  0  0
 16 19  1  0  0  0
 12 13  1  0  0  0
 13 14  2  0  0  0
 14 15  1  0  0  0
  1  2  1  0  0  0
  2  3  1  0  0  0
  3  4  1  0  0  0
  4  5  1  0  0  0
  5  6  1  0  0  0
  6  7  1  0  0  0
 29 30  1  0  0  0
 30 31  2  0  0  0
 31 32  1  0  0  0
 32 33  1  0  0  0
 33 25  2  0  0  0
 32 28  1  0  0  0
  6  1  1  0  0  0
 14  9  1  0  0  0
 22 23  1  0  0  0
  7  8  1  0  0  0
M  END
> <minimizedAffinity>
-7.90851

> <CNNscore>
0.1077379584

> <CNNaffinity>
6.3664069176

> <CNN_VS>
0.6859036684

> <CNNaffinity_variance>
0.2638761103

$$$$
[H]OC1([H])C([H])([H])OC([H])([H])C([H])([H])C1(c1c([H])c([H])c(C(F)(F)F)c([H])c1F)N([H])C(=O)c1c([H])nn2c([H])c(C([H])([H])[H])c([H])nc12


 33 36  0  0  0  0  0  0  0  0999 V2000
   45.3277   14.2479  -13.6821 C   0  0  0  0  0  0  0  0  0  0  0  0
   46.6490   14.5744  -14.0769 C   0  0  0  0  0  0  0  0  0  0  0  0
   46.9499   15.9664  -14.6116 C   0  0  0  0  0  0  0  0  0  0  0  0
   45.9540   16.8714  -14.6473 O   0  0  0  0  0  0  0  0  0  0  0  0
   45.0300   16.7832  -13.6777 C   0  0  0  0  0  0  0  0  0  0  0  0
   44.6544   15.5081  -13.0813 C   0  0  0  0  0  0  0  0  0  0  0  0
   44.9053   15.5825  -11.6960 O   0  0  0  0  0  0  0  0  0  0  0  0
   44.1111   15.8075  -11.1974 H   0  0  0  0  0  0  0  0  0  0  0  0
   44.2974   13.6411  -14.5078 C   0  0  0  0  0  0  0  0  0  0  0  0
   42.9805   13.7663  -14.0319 C   0  0  0  0  0  0  0  0  0  0  0  0
   41.8827   13.3708  -14.7607 C   0  0  0  0  0  0  0  0  0  0  0  0
   41.9969   12.8272  -15.9973 C   0  0  0  0  0  0  0  0  0  0  0  0
   43.2897   12.6872  -16.5056 C   0  0  0  0  0  0  0  0  0  0  0  0
   44.3712   13.0970  -15.7458 C   0  0  0  0  0  0  0  0  0  0  0  0
   45.5763   12.8953  -16.2822 F   0  0  0  0  0  0  0  0  0  0  0  0
   40.8156   12.4375  -16.8013 C   0  0  0  0  0  0  0  0  0  0  0  0
   39.8177   11.9008  -15.9793 F   0  0  0  0  0  0  0  0  0  0  0  0
   40.3571   13.5497  -17.4680 F   0  0  0  0  0  0  0  0  0  0  0  0
   41.1239   11.5337  -17.8154 F   0  0  0  0  0  0  0  0  0  0  0  0
   46.2485   12.2280  -12.6069 C   0  0  0  0  0  0  0  0  0  0  0  0
   46.9460   12.0812  -13.6520 O   0  0  0  0  0  0  0  0  0  0  0  0
   45.3544   13.3522  -12.4800 N   0  0  0  0  0  0  0  0  0  0  0  0
   44.8098   13.4654  -11.6427 H   0  0  0  0  0  0  0  0  0  0  0  0
   45.5407   10.9310   -6.0708 C   0  0  0  0  0  0  0  0  0  0  0  0
   45.7386   11.0652   -7.5580 C   0  0  0  0  0  0  0  0  0  0  0  0
   45.3704   12.2038   -8.2400 C   0  0  0  0  0  0  0  0  0  0  0  0
   45.5596   12.3058   -9.5692 N   0  0  0  0  0  0  0  0  0  0  0  0
   46.1121   11.2971  -10.2489 C   0  0  0  0  0  0  0  0  0  0  0  0
   46.4260   11.1999  -11.6141 C   0  0  0  0  0  0  0  0  0  0  0  0
   46.9814    9.9617  -11.7322 C   0  0  0  0  0  0  0  0  0  0  0  0
   46.9975    9.3701  -10.5185 N   0  0  0  0  0  0  0  0  0  0  0  0
   46.4718   10.1885   -9.6171 N   0  0  0  0  0  0  0  0  0  0  0  0
   46.3082   10.0207   -8.2807 C   0  0  0  0  0  0  0  0  0  0  0  0
 24 25  1  0  0  0
 25 26  1  0  0  0
 26 27  2  0  0  0
 27 28  1  0  0  0
 28 29  2  0  0  0
 29 20  1  0  0  0
 20 21  2  0  0  0
 20 22  1  0  0  0
 22  1  1  0  0  0
  1  9  1  0  0  0
  9 10  2  0  0  0
 10 11  1  0  0  0
 11 12  2  0  0  0
 12 16  1  0  0  0
 16 17  1  0  0  0
 16 18  1  0  0  0
 16 19  1  0  0  0
 12 13  1  0  0  0
 13 14  2  0  0  0
 14 15  1  0  0  0
  1  2  1  0  0  0
  2  3  1  0  0  0
  3  4  1  0  0  0
  4  5  1  0  0  0
  5  6  1  0  0  0
  6  7  1  0  0  0
 29 30  1  0  0  0
 30 31  2  0  0  0
 31 32  1  0  0  0
 32 33  1  0  0  0
 33 25  2  0  0  0
 32 28  1  0  0  0
  6  1  1  0  0  0
 14  9  1  0  0  0
 22 23  1  0  0  0
  7  8  1  0  0  0
M  END
> <minimizedAffinity>
-7.75901

> <CNNscore>
0.0789803118

> <CNNaffinity>
4.8205366135

> <CNN_VS>
0.3807274699

> <CNNaffinity_variance>
0.4322439730

$$$$
[H]OC1([H])C([H])([H])OC([H])([H])C([H])([H])C1(c1c([H])c([H])c(C(F)(F)F)c([H])c1F)N([H])C(=O)c1c([H])nn2c([H])c(C([H])([H])[H])c([H])nc12


 33 36  0  0  0  0  0  0  0  0999 V2000
   36.8320   15.7450   -9.6874 C   0  0  0  0  0  0  0  0  0  0  0  0
   37.8004   15.1232   -8.8605 C   0  0  0  0  0  0  0  0  0  0  0  0
   39.2784   15.3811   -9.1119 C   0  0  0  0  0  0  0  0  0  0  0  0
   39.6249   16.2396  -10.0891 O   0  0  0  0  0  0  0  0  0  0  0  0
   38.7864   17.2640  -10.3109 C   0  0  0  0  0  0  0  0  0  0  0  0
   37.3490   17.1451  -10.1052 C   0  0  0  0  0  0  0  0  0  0  0  0
   36.9617   18.1123   -9.1554 O   0  0  0  0  0  0  0  0  0  0  0  0
   36.6210   18.9117   -9.5735 H   0  0  0  0  0  0  0  0  0  0  0  0
   36.2393   15.1981  -10.8962 C   0  0  0  0  0  0  0  0  0  0  0  0
   37.0241   14.2616  -11.5918 C   0  0  0  0  0  0  0  0  0  0  0  0
   36.5553   13.5509  -12.6724 C   0  0  0  0  0  0  0  0  0  0  0  0
   35.2945   13.7075  -13.1455 C   0  0  0  0  0  0  0  0  0  0  0  0
   34.4833   14.6286  -12.4801 C   0  0  0  0  0  0  0  0  0  0  0  0
   34.9869   15.3251  -11.3956 C   0  0  0  0  0  0  0  0  0  0  0  0
   34.1654   16.2156  -10.8363 F   0  0  0  0  0  0  0  0  0  0  0  0
   34.7733   12.9151  -14.2830 C   0  0  0  0  0  0  0  0  0  0  0  0
   35.7284   12.8341  -15.3033 F   0  0  0  0  0  0  0  0  0  0  0  0
   34.4382   11.6629  -13.8236 F   0  0  0  0  0  0  0  0  0  0  0  0
   33.5813   13.4216  -14.7959 F   0  0  0  0  0  0  0  0  0  0  0  0
   35.1812   15.0977   -7.9727 C   0  0  0  0  0  0  0  0  0  0  0  0
   35.8065   14.0010   -7.8927 O   0  0  0  0  0  0  0  0  0  0  0  0
   35.6300   16.1275   -8.8769 N   0  0  0  0  0  0  0  0  0  0  0  0
   35.1318   16.9991   -8.9283 H   0  0  0  0  0  0  0  0  0  0  0  0
   32.2561   19.0053   -3.3818 C   0  0  0  0  0  0  0  0  0  0  0  0
   32.7797   18.0342   -4.4072 C   0  0  0  0  0  0  0  0  0  0  0  0
   33.9170   18.2939   -5.1396 C   0  0  0  0  0  0  0  0  0  0  0  0
   34.3711   17.4108   -6.0487 N   0  0  0  0  0  0  0  0  0  0  0  0
   33.7207   16.2619   -6.2532 C   0  0  0  0  0  0  0  0  0  0  0  0
   34.0274   15.1980   -7.1168 C   0  0  0  0  0  0  0  0  0  0  0  0
   33.0306   14.2977   -6.8896 C   0  0  0  0  0  0  0  0  0  0  0  0
   32.1948   14.7951   -5.9529 N   0  0  0  0  0  0  0  0  0  0  0  0
   32.6213   15.9892   -5.5644 N   0  0  0  0  0  0  0  0  0  0  0  0
   32.1100   16.8353   -4.6351 C   0  0  0  0  0  0  0  0  0  0  0  0
 24 25  1  0  0  0
 25 26  1  0  0  0
 26 27  2  0  0  0
 27 28  1  0  0  0
 28 29  2  0  0  0
 29 20  1  0  0  0
 20 21  2  0  0  0
 20 22  1  0  0  0
 22  1  1  0  0  0
  1  9  1  0  0  0
  9 10  2  0  0  0
 10 11  1  0  0  0
 11 12  2  0  0  0
 12 16  1  0  0  0
 16 17  1  0  0  0
 16 18  1  0  0  0
 16 19  1  0  0  0
 12 13  1  0  0  0
 13 14  2  0  0  0
 14 15  1  0  0  0
  1  2  1  0  0  0
  2  3  1  0  0  0
  3  4  1  0  0  0
  4  5  1  0  0  0
  5  6  1  0  0  0
  6  7  1  0  0  0
 29 30  1  0  0  0
 30 31  2  0  0  0
 31 32  1  0  0  0
 32 33  1  0  0  0
 33 25  2  0  0  0
 32 28  1  0  0  0
  6  1  1  0  0  0
 14  9  1  0  0  0
 22 23  1  0  0  0
  7  8  1  0  0  0
M  END
> <minimizedAffinity>
-7.22105

> <CNNscore>
0.0784216747

> <CNNaffinity>
5.2714304924

> <CNN_VS>
0.4133944213

> <CNNaffinity_variance>
0.5207511187

$$$$
[H]OC1([H])C([H])([H])OC([H])([H])C([H])([H])C1(c1c([H])c([H])c(C(F)(F)F)c([H])c1F)N([H])C(=O)c1c([H])nn2c([H])c(C([H])([H])[H])c([H])nc12


 33 36  0  0  0  0  0  0  0  0999 V2000
   36.0997   16.1575   -7.2270 C   0  0  0  0  0  0  0  0  0  0  0  0
   35.0356   15.2260   -7.1358 C   0  0  0  0  0  0  0  0  0  0  0  0
   33.9610   15.4162   -6.0760 C   0  0  0  0  0  0  0  0  0  0  0  0
   34.0253   16.5010   -5.2815 O   0  0  0  0  0  0  0  0  0  0  0  0
   34.5380   17.6142   -5.8288 C   0  0  0  0  0  0  0  0  0  0  0  0
   35.5709   17.5661   -6.8551 C   0  0  0  0  0  0  0  0  0  0  0  0
   35.0785   18.2215   -8.0020 O   0  0  0  0  0  0  0  0  0  0  0  0
   35.3743   19.1383   -8.0482 H   0  0  0  0  0  0  0  0  0  0  0  0
   37.3936   16.0676   -6.5718 C   0  0  0  0  0  0  0  0  0  0  0  0
   38.3443   17.0268   -6.9626 C   0  0  0  0  0  0  0  0  0  0  0  0
   39.5641   17.1648   -6.3415 C   0  0  0  0  0  0  0  0  0  0  0  0
   39.9365   16.3778   -5.3025 C   0  0  0  0  0  0  0  0  0  0  0  0
   39.0182   15.4130   -4.8839 C   0  0  0  0  0  0  0  0  0  0  0  0
   37.7997   15.3028   -5.5305 C   0  0  0  0  0  0  0  0  0  0  0  0
   36.9915   14.3325   -5.0995 F   0  0  0  0  0  0  0  0  0  0  0  0
   41.2319   16.5499   -4.6053 C   0  0  0  0  0  0  0  0  0  0  0  0
   41.8774   15.3166   -4.4574 F   0  0  0  0  0  0  0  0  0  0  0  0
   42.0047   17.4244   -5.3331 F   0  0  0  0  0  0  0  0  0  0  0  0
   41.1012   17.1627   -3.3613 F   0  0  0  0  0  0  0  0  0  0  0  0
   36.9769   15.1961   -9.3224 C   0  0  0  0  0  0  0  0  0  0  0  0
   37.0442   14.0962   -8.7013 O   0  0  0  0  0  0  0  0  0  0  0  0
   36.4736   16.3755   -8.6625 N   0  0  0  0  0  0  0  0  0  0  0  0
   36.4160   17.2435   -9.1661 H   0  0  0  0  0  0  0  0  0  0  0  0
   36.0301   12.1020  -15.1903 C   0  0  0  0  0  0  0  0  0  0  0  0
   36.3472   12.8953  -13.9498 C   0  0  0  0  0  0  0  0  0  0  0  0
   35.6225   12.7472  -12.7878 C   0  0  0  0  0  0  0  0  0  0  0  0
   35.9245   13.4630  -11.6881 N   0  0  0  0  0  0  0  0  0  0  0  0
   36.9392   14.3316  -11.7091 C   0  0  0  0  0  0  0  0  0  0  0  0
   37.4426   15.1491  -10.6844 C   0  0  0  0  0  0  0  0  0  0  0  0
   38.4833   15.8027  -11.2720 C   0  0  0  0  0  0  0  0  0  0  0  0
   38.5891   15.3956  -12.5551 N   0  0  0  0  0  0  0  0  0  0  0  0
   37.6502   14.4962  -12.8159 N   0  0  0  0  0  0  0  0  0  0  0  0
   37.3982   13.8080  -13.9578 C   0  0  0  0  0  0  0  0  0  0  0  0
 24 25  1  0  0  0
 25 26  1  0  0  0
 26 27  2  0  0  0
 27 28  1  0  0  0
 28 29  2  0  0  0
 29 20  1  0  0  0
 20 21  2  0  0  0
 20 22  1  0  0  0
 22  1  1  0  0  0
  1  9  1  0  0  0
  9 10  2  0  0  0
 10 11  1  0  0  0
 11 12  2  0  0  0
 12 16  1  0  0  0
 16 17  1  0  0  0
 16 18  1  0  0  0
 16 19  1  0  0  0
 12 13  1  0  0  0
 13 14  2  0  0  0
 14 15  1  0  0  0
  1  2  1  0  0  0
  2  3  1  0  0  0
  3  4  1  0  0  0
  4  5  1  0  0  0
  5  6  1  0  0  0
  6  7  1  0  0  0
 29 30  1  0  0  0
 30 31  2  0  0  0
 31 32  1  0  0  0
 32 33  1  0  0  0
 33 25  2  0  0  0
 32 28  1  0  0  0
  6  1  1  0  0  0
 14  9  1  0  0  0
 22 23  1  0  0  0
  7  8  1  0  0  0
M  END
> <minimizedAffinity>
-6.62243

> <CNNscore>
0.0741412491

> <CNNaffinity>
4.9402189255

> <CNN_VS>
0.3662739992

> <CNNaffinity_variance>
0.5875173807

$$$$
[H]OC(=O)C([H])([H])C([H])([H])[C@@]([H])(C(=O)N1C([H])([H])C([H])([H])C([H])([H])[C@@]1([H])C(=O)N([H])[C@]([H])(C(=O)OC([H])([H])[H])C([H])([H])c1c([H])c([H])c([H])c([H])c1[H])N([H])C(=O)[C@@]([H])(N([H])C(=O)OC([H])([H])c1c([H])c([H])c([H])c([H])c1[H])[C@@]([H])(C([H])([H])[H])C([H])([H])C([H])([H])[H]


 51 53  0  0  0  0  0  0  0  0999 V2000
   38.1058   15.2591   -9.0657 C   0  0  0  0  0  0  0  0  0  0  0  0
   36.9319   14.9489   -8.3001 C   0  0  0  0  0  0  0  0  0  0  0  0
   37.0555   13.7059   -7.7604 O   0  0  0  0  0  0  0  0  0  0  0  0
   35.7208   15.5046   -7.9459 N   0  0  0  0  0  0  0  0  0  0  0  0
   34.7620   14.7983   -7.0487 C   0  0  0  0  0  0  0  0  0  0  0  0
   33.5165   14.8354   -7.9095 C   0  0  0  0  0  0  0  0  0  0  0  0
   33.5787   16.1924   -8.5240 C   0  0  0  0  0  0  0  0  0  0  0  0
   35.0279   16.6907   -8.2847 C   0  0  0  0  0  0  0  0  0  0  0  0
   34.9035   17.7009   -7.2208 C   0  0  0  0  0  0  0  0  0  0  0  0
   35.8131   17.8536   -6.3886 O   0  0  0  0  0  0  0  0  0  0  0  0
   33.7375   18.5010   -7.1458 N   0  0  0  0  0  0  0  0  0  0  0  0
   32.9538   18.4165   -7.8286 H   0  0  0  0  0  0  0  0  0  0  0  0
   33.6143   19.4950   -6.0612 C   0  0  0  0  0  0  0  0  0  0  0  0
   32.5935   19.0737   -5.0942 C   0  0  0  0  0  0  0  0  0  0  0  0
   31.3495   19.2475   -5.3782 O   0  0  0  0  0  0  0  0  0  0  0  0
   32.8411   18.4949   -3.8889 O   0  0  0  0  0  0  0  0  0  0  0  0
   32.7627   17.0750   -3.6887 C   0  0  0  0  0  0  0  0  0  0  0  0
   33.2679   20.8130   -6.6745 C   0  0  0  0  0  0  0  0  0  0  0  0
   34.3767   21.7166   -6.9528 C   0  0  0  0  0  0  0  0  0  0  0  0
   34.3430   22.3990   -8.1669 C   0  0  0  0  0  0  0  0  0  0  0  0
   35.3541   23.2710   -8.4515 C   0  0  0  0  0  0  0  0  0  0  0  0
   36.4014   23.4990   -7.5837 C   0  0  0  0  0  0  0  0  0  0  0  0
   36.4032   22.7941   -6.3665 C   0  0  0  0  0  0  0  0  0  0  0  0
   35.4051   21.9223   -6.0694 C   0  0  0  0  0  0  0  0  0  0  0  0
   37.1269   15.0004  -11.4004 C   0  0  0  0  0  0  0  0  0  0  0  0
   36.6877   16.1994  -11.2450 O   0  0  0  0  0  0  0  0  0  0  0  0
   37.8550   14.4500  -10.3444 N   0  0  0  0  0  0  0  0  0  0  0  0
   38.2440   13.4900  -10.3784 H   0  0  0  0  0  0  0  0  0  0  0  0
   36.7997   14.3662  -12.6610 C   0  0  0  0  0  0  0  0  0  0  0  0
   37.9230   13.6903  -13.2573 N   0  0  0  0  0  0  0  0  0  0  0  0
   39.1223   14.2106  -13.7584 C   0  0  0  0  0  0  0  0  0  0  0  0
   39.4907   15.3986  -13.8086 O   0  0  0  0  0  0  0  0  0  0  0  0
   37.8382   12.6097  -13.3354 H   0  0  0  0  0  0  0  0  0  0  0  0
   40.0831   13.3106  -14.2969 O   0  0  0  0  0  0  0  0  0  0  0  0
   40.5395   13.4168  -15.6204 C   0  0  0  0  0  0  0  0  0  0  0  0
   39.8940   12.5163  -16.5680 C   0  0  0  0  0  0  0  0  0  0  0  0
   40.5392   12.1890  -17.7563 C   0  0  0  0  0  0  0  0  0  0  0  0
   39.9922   11.3543  -18.6961 C   0  0  0  0  0  0  0  0  0  0  0  0
   38.7361   10.7976  -18.4730 C   0  0  0  0  0  0  0  0  0  0  0  0
   38.0868   11.1167  -17.2944 C   0  0  0  0  0  0  0  0  0  0  0  0
   38.6531   11.9598  -16.3580 C   0  0  0  0  0  0  0  0  0  0  0  0
   35.6177   13.4225  -12.6479 C   0  0  0  0  0  0  0  0  0  0  0  0
   34.2846   14.1200  -12.8764 C   0  0  0  0  0  0  0  0  0  0  0  0
   34.4462   12.0982  -14.4446 C   0  0  0  0  0  0  0  0  0  0  0  0
   35.7813   12.4884  -13.8405 C   0  0  0  0  0  0  0  0  0  0  0  0
   38.5933   16.5698   -9.4421 C   0  0  0  0  0  0  0  0  0  0  0  0
   38.4184   17.7293   -8.5161 C   0  0  0  0  0  0  0  0  0  0  0  0
   37.7968   18.9027   -9.2334 C   0  0  0  0  0  0  0  0  0  0  0  0
   37.9109   19.0071  -10.4734 O   0  0  0  0  0  0  0  0  0  0  0  0
   37.0867   19.8916   -8.5589 O   0  0  0  0  0  0  0  0  0  0  0  0
   36.3478   20.4143   -8.9674 H   0  0  0  0  0  0  0  0  0  0  0  0
 44 45  1  0  0  0
 45 42  1  0  0  0
 42 43  1  0  0  0
 42 29  1  0  0  0
 29 30  1  0  0  0
 30 31  1  0  0  0
 31 32  2  0  0  0
 31 34  1  0  0  0
 34 35  1  0  0  0
 35 36  1  0  0  0
 36 37  2  0  0  0
 37 38  1  0  0  0
 38 39  2  0  0  0
 39 40  1  0  0  0
 40 41  2  0  0  0
 29 25  1  0  0  0
 25 26  2  0  0  0
 25 27  1  0  0  0
 27  1  1  0  0  0
  1 46  1  0  0  0
 46 47  1  0  0  0
 47 48  1  0  0  0
 48 49  2  0  0  0
 48 50  1  0  0  0
  1  2  1  0  0  0
  2  3  2  0  0  0
  2  4  1  0  0  0
  4  5  1  0  0  0
  5  6  1  0  0  0
  6  7  1  0  0  0
  7  8  1  0  0  0
  8  9  1  0  0  0
  9 10  2  0  0  0
  9 11  1  0  0  0
 11 13  1  0  0  0
 13 18  1  0  0  0
 18 19  1  0  0  0
 19 20  2  0  0  0
 20 21  1  0  0  0
 21 22  2  0  0  0
 22 23  1  0  0  0
 23 24  2  0  0  0
 13 14  1  0  0  0
 14 15  2  0  0  0
 14 16  1  0  0  0
 16 17  1  0  0  0
 41 36  1  0  0  0
  8  4  1  0  0  0
 24 19  1  0  0  0
 30 33  1  0  0  0
 27 28  1  0  0  0
 50 51  1  0  0  0
 11 12  1  0  0  0
M  END
> <minimizedAffinity>
-8.12894

> <CNNscore>
0.1916870326

> <CNNaffinity>
6.6549425125

> <CNN_VS>
1.2756662369

> <CNNaffinity_variance>
0.3195317388

$$$$
[H]OC(=O)C([H])([H])C([H])([H])[C@@]([H])(C(=O)N1C([H])([H])C([H])([H])C([H])([H])[C@@]1([H])C(=O)N([H])[C@]([H])(C(=O)OC([H])([H])[H])C([H])([H])c1c([H])c([H])c([H])c([H])c1[H])N([H])C(=O)[C@@]([H])(N([H])C(=O)OC([H])([H])c1c([H])c([H])c([H])c([H])c1[H])[C@@]([H])(C([H])([H])[H])C([H])([H])C([H])([H])[H]


 51 53  0  0  0  0  0  0  0  0999 V2000
   39.1276   16.4319   -9.7168 C   0  0  0  0  0  0  0  0  0  0  0  0
   38.3732   17.5498   -9.2251 C   0  0  0  0  0  0  0  0  0  0  0  0
   38.2021   18.4584  -10.2235 O   0  0  0  0  0  0  0  0  0  0  0  0
   37.7765   17.9973   -8.0655 N   0  0  0  0  0  0  0  0  0  0  0  0
   37.0220   19.2822   -8.0126 C   0  0  0  0  0  0  0  0  0  0  0  0
   37.7272   19.9565   -6.8543 C   0  0  0  0  0  0  0  0  0  0  0  0
   37.9557   18.8302   -5.9044 C   0  0  0  0  0  0  0  0  0  0  0  0
   37.7201   17.5376   -6.7286 C   0  0  0  0  0  0  0  0  0  0  0  0
   36.4163   17.0334   -6.2659 C   0  0  0  0  0  0  0  0  0  0  0  0
   35.8002   17.6199   -5.3605 O   0  0  0  0  0  0  0  0  0  0  0  0
   35.8639   15.8709   -6.8563 N   0  0  0  0  0  0  0  0  0  0  0  0
   36.3388   15.3525   -7.6265 H   0  0  0  0  0  0  0  0  0  0  0  0
   34.5667   15.3620   -6.3686 C   0  0  0  0  0  0  0  0  0  0  0  0
   34.7733   14.2772   -5.4015 C   0  0  0  0  0  0  0  0  0  0  0  0
   35.6285   13.3522   -5.6683 O   0  0  0  0  0  0  0  0  0  0  0  0
   34.1309   14.1512   -4.2096 O   0  0  0  0  0  0  0  0  0  0  0  0
   34.1278   15.1968   -3.2251 C   0  0  0  0  0  0  0  0  0  0  0  0
   33.7773   14.8931   -7.5477 C   0  0  0  0  0  0  0  0  0  0  0  0
   32.3395   15.1265   -7.5069 C   0  0  0  0  0  0  0  0  0  0  0  0
   31.5375   14.0501   -7.1341 C   0  0  0  0  0  0  0  0  0  0  0  0
   30.1872   14.2384   -7.0633 C   0  0  0  0  0  0  0  0  0  0  0  0
   29.5930   15.4504   -7.3459 C   0  0  0  0  0  0  0  0  0  0  0  0
   30.4325   16.5159   -7.7179 C   0  0  0  0  0  0  0  0  0  0  0  0
   31.7775   16.3440   -7.7940 C   0  0  0  0  0  0  0  0  0  0  0  0
   37.5323   15.2322  -11.2952 C   0  0  0  0  0  0  0  0  0  0  0  0
   37.2126   14.5172  -10.2748 O   0  0  0  0  0  0  0  0  0  0  0  0
   38.4942   16.2242  -11.0982 N   0  0  0  0  0  0  0  0  0  0  0  0
   38.8168   16.8451  -11.8626 H   0  0  0  0  0  0  0  0  0  0  0  0
   36.8515   14.9077  -12.5320 C   0  0  0  0  0  0  0  0  0  0  0  0
   37.6030   14.0057  -13.3662 N   0  0  0  0  0  0  0  0  0  0  0  0
   38.8259   14.1952  -14.0209 C   0  0  0  0  0  0  0  0  0  0  0  0
   39.5488   15.2086  -14.0349 O   0  0  0  0  0  0  0  0  0  0  0  0
   37.1631   13.0237  -13.5180 H   0  0  0  0  0  0  0  0  0  0  0  0
   39.3607   13.1241  -14.7891 O   0  0  0  0  0  0  0  0  0  0  0  0
   38.5537   12.0807  -15.2701 C   0  0  0  0  0  0  0  0  0  0  0  0
   38.8070   11.6943  -16.6530 C   0  0  0  0  0  0  0  0  0  0  0  0
   40.0117   12.0422  -17.2557 C   0  0  0  0  0  0  0  0  0  0  0  0
   40.3173   11.7185  -18.5522 C   0  0  0  0  0  0  0  0  0  0  0  0
   39.3964   11.0104  -19.3191 C   0  0  0  0  0  0  0  0  0  0  0  0
   38.1961   10.6598  -18.7287 C   0  0  0  0  0  0  0  0  0  0  0  0
   37.9047   10.9942  -17.4204 C   0  0  0  0  0  0  0  0  0  0  0  0
   35.4392   14.3825  -12.4001 C   0  0  0  0  0  0  0  0  0  0  0  0
   34.4633   15.4065  -11.8388 C   0  0  0  0  0  0  0  0  0  0  0  0
   33.6353   13.3190  -13.8034 C   0  0  0  0  0  0  0  0  0  0  0  0
   34.9383   14.0949  -13.8100 C   0  0  0  0  0  0  0  0  0  0  0  0
   40.5657   16.3287   -9.8527 C   0  0  0  0  0  0  0  0  0  0  0  0
   41.4229   16.1560   -8.6413 C   0  0  0  0  0  0  0  0  0  0  0  0
   40.9622   14.9774   -7.8188 C   0  0  0  0  0  0  0  0  0  0  0  0
   40.5801   15.1498   -6.6416 O   0  0  0  0  0  0  0  0  0  0  0  0
   40.9431   13.6817   -8.3267 O   0  0  0  0  0  0  0  0  0  0  0  0
   40.3060   12.9820   -8.0259 H   0  0  0  0  0  0  0  0  0  0  0  0
 44 45  1  0  0  0
 45 42  1  0  0  0
 42 43  1  0  0  0
 42 29  1  0  0  0
 29 30  1  0  0  0
 30 31  1  0  0  0
 31 32  2  0  0  0
 31 34  1  0  0  0
 34 35  1  0  0  0
 35 36  1  0  0  0
 36 37  2  0  0  0
 37 38  1  0  0  0
 38 39  2  0  0  0
 39 40  1  0  0  0
 40 41  2  0  0  0
 29 25  1  0  0  0
 25 26  2  0  0  0
 25 27  1  0  0  0
 27  1  1  0  0  0
  1 46  1  0  0  0
 46 47  1  0  0  0
 47 48  1  0  0  0
 48 49  2  0  0  0
 48 50  1  0  0  0
  1  2  1  0  0  0
  2  3  2  0  0  0
  2  4  1  0  0  0
  4  5  1  0  0  0
  5  6  1  0  0  0
  6  7  1  0  0  0
  7  8  1  0  0  0
  8  9  1  0  0  0
  9 10  2  0  0  0
  9 11  1  0  0  0
 11 13  1  0  0  0
 13 18  1  0  0  0
 18 19  1  0  0  0
 19 20  2  0  0  0
 20 21  1  0  0  0
 21 22  2  0  0  0
 22 23  1  0  0  0
 23 24  2  0  0  0
 13 14  1  0  0  0
 14 15  2  0  0  0
 14 16  1  0  0  0
 16 17  1  0  0  0
 41 36  1  0  0  0
  8  4  1  0  0  0
 24 19  1  0  0  0
 30 33  1  0  0  0
 27 28  1  0  0  0
 50 51  1  0  0  0
 11 12  1  0  0  0
M  END
> <minimizedAffinity>
-7.86331

> <CNNscore>
0.1845206916

> <CNNaffinity>
6.6113114357

> <CNN_VS>
1.2199237347

> <CNNaffinity_variance>
0.4785685539

$$$$
[H]OC(=O)C([H])([H])C([H])([H])[C@@]([H])(C(=O)N1C([H])([H])C([H])([H])C([H])([H])[C@@]1([H])C(=O)N([H])[C@]([H])(C(=O)OC([H])([H])[H])C([H])([H])c1c([H])c([H])c([H])c([H])c1[H])N([H])C(=O)[C@@]([H])(N([H])C(=O)OC([H])([H])c1c([H])c([H])c([H])c([H])c1[H])[C@@]([H])(C([H])([H])[H])C([H])([H])C([H])([H])[H]


 51 53  0  0  0  0  0  0  0  0999 V2000
   39.4312   15.2114   -7.5253 C   0  0  0  0  0  0  0  0  0  0  0  0
   40.1568   13.9797   -7.3953 C   0  0  0  0  0  0  0  0  0  0  0  0
   39.2833   12.9366   -7.3738 O   0  0  0  0  0  0  0  0  0  0  0  0
   41.4515   13.5203   -7.2778 N   0  0  0  0  0  0  0  0  0  0  0  0
   41.7672   12.0653   -7.1986 C   0  0  0  0  0  0  0  0  0  0  0  0
   42.5885   12.0408   -5.9264 C   0  0  0  0  0  0  0  0  0  0  0  0
   43.3971   13.2892   -6.0298 C   0  0  0  0  0  0  0  0  0  0  0  0
   42.7206   14.1311   -7.1431 C   0  0  0  0  0  0  0  0  0  0  0  0
   43.6261   14.0171   -8.2985 C   0  0  0  0  0  0  0  0  0  0  0  0
   44.8424   13.8297   -8.1286 O   0  0  0  0  0  0  0  0  0  0  0  0
   43.1057   14.1244   -9.6110 N   0  0  0  0  0  0  0  0  0  0  0  0
   42.0910   14.2699   -9.8026 H   0  0  0  0  0  0  0  0  0  0  0  0
   44.0267   14.0309  -10.7612 C   0  0  0  0  0  0  0  0  0  0  0  0
   43.6539   15.0031  -11.7958 C   0  0  0  0  0  0  0  0  0  0  0  0
   43.1250   14.5821  -12.8919 O   0  0  0  0  0  0  0  0  0  0  0  0
   43.8144   16.3504  -11.7057 O   0  0  0  0  0  0  0  0  0  0  0  0
   43.8262   17.2010  -12.8627 C   0  0  0  0  0  0  0  0  0  0  0  0
   43.9743   12.6332  -11.2874 C   0  0  0  0  0  0  0  0  0  0  0  0
   45.2226   11.8815  -11.2726 C   0  0  0  0  0  0  0  0  0  0  0  0
   46.1126   12.1188  -12.3177 C   0  0  0  0  0  0  0  0  0  0  0  0
   47.3020   11.4487  -12.3245 C   0  0  0  0  0  0  0  0  0  0  0  0
   47.6513   10.5507  -11.3378 C   0  0  0  0  0  0  0  0  0  0  0  0
   46.7298   10.3361  -10.2971 C   0  0  0  0  0  0  0  0  0  0  0  0
   45.5420   10.9942  -10.2770 C   0  0  0  0  0  0  0  0  0  0  0  0
   38.5715   15.7694   -9.8545 C   0  0  0  0  0  0  0  0  0  0  0  0
   39.3486   16.7926   -9.7919 O   0  0  0  0  0  0  0  0  0  0  0  0
   38.5541   14.9177   -8.7488 N   0  0  0  0  0  0  0  0  0  0  0  0
   37.9565   14.0720   -8.7081 H   0  0  0  0  0  0  0  0  0  0  0  0
   37.8010   15.6351  -11.0738 C   0  0  0  0  0  0  0  0  0  0  0  0
   38.4368   14.7871  -12.0489 N   0  0  0  0  0  0  0  0  0  0  0  0
   39.4887   15.0632  -12.9304 C   0  0  0  0  0  0  0  0  0  0  0  0
   40.1180   16.1273  -13.0771 O   0  0  0  0  0  0  0  0  0  0  0  0
   38.0489   13.7744  -12.1203 H   0  0  0  0  0  0  0  0  0  0  0  0
   39.9381   14.0309  -13.7996 O   0  0  0  0  0  0  0  0  0  0  0  0
   39.0635   13.0601  -14.3134 C   0  0  0  0  0  0  0  0  0  0  0  0
   39.4590   12.4932  -15.5971 C   0  0  0  0  0  0  0  0  0  0  0  0
   40.6998   12.8136  -16.1386 C   0  0  0  0  0  0  0  0  0  0  0  0
   41.1369   12.3237  -17.3420 C   0  0  0  0  0  0  0  0  0  0  0  0
   40.3197   11.4656  -18.0723 C   0  0  0  0  0  0  0  0  0  0  0  0
   39.0845   11.1409  -17.5421 C   0  0  0  0  0  0  0  0  0  0  0  0
   38.6600   11.6438  -16.3275 C   0  0  0  0  0  0  0  0  0  0  0  0
   36.3636   15.1930  -10.9111 C   0  0  0  0  0  0  0  0  0  0  0  0
   35.4984   16.2076  -10.1775 C   0  0  0  0  0  0  0  0  0  0  0  0
   35.1502   13.7451  -12.5800 C   0  0  0  0  0  0  0  0  0  0  0  0
   35.7646   15.1049  -12.3093 C   0  0  0  0  0  0  0  0  0  0  0  0
   38.6148   15.8648   -6.5234 C   0  0  0  0  0  0  0  0  0  0  0  0
   37.1247   15.7923   -6.6065 C   0  0  0  0  0  0  0  0  0  0  0  0
   36.6461   14.3677   -6.4677 C   0  0  0  0  0  0  0  0  0  0  0  0
   35.9210   13.8646   -7.3524 O   0  0  0  0  0  0  0  0  0  0  0  0
   36.9862   13.5749   -5.3755 O   0  0  0  0  0  0  0  0  0  0  0  0
   37.0648   12.5859   -5.4165 H   0  0  0  0  0  0  0  0  0  0  0  0
 44 45  1  0  0  0
 45 42  1  0  0  0
 42 43  1  0  0  0
 42 29  1  0  0  0
 29 30  1  0  0  0
 30 31  1  0  0  0
 31 32  2  0  0  0
 31 34  1  0  0  0
 34 35  1  0  0  0
 35 36  1  0  0  0
 36 37  2  0  0  0
 37 38  1  0  0  0
 38 39  2  0  0  0
 39 40  1  0  0  0
 40 41  2  0  0  0
 29 25  1  0  0  0
 25 26  2  0  0  0
 25 27  1  0  0  0
 27  1  1  0  0  0
  1 46  1  0  0  0
 46 47  1  0  0  0
 47 48  1  0  0  0
 48 49  2  0  0  0
 48 50  1  0  0  0
  1  2  1  0  0  0
  2  3  2  0  0  0
  2  4  1  0  0  0
  4  5  1  0  0  0
  5  6  1  0  0  0
  6  7  1  0  0  0
  7  8  1  0  0  0
  8  9  1  0  0  0
  9 10  2  0  0  0
  9 11  1  0  0  0
 11 13  1  0  0  0
 13 18  1  0  0  0
 18 19  1  0  0  0
 19 20  2  0  0  0
 20 21  1  0  0  0
 21 22  2  0  0  0
 22 23  1  0  0  0
 23 24  2  0  0  0
 13 14  1  0  0  0
 14 15  2  0  0  0
 14 16  1  0  0  0
 16 17  1  0  0  0
 41 36  1  0  0  0
  8  4  1  0  0  0
 24 19  1  0  0  0
 30 33  1  0  0  0
 27 28  1  0  0  0
 50 51  1  0  0  0
 11 12  1  0  0  0
M  END
> <minimizedAffinity>
-7.18714

> <CNNscore>
0.1836554855

> <CNNaffinity>
6.6133666039

> <CNN_VS>
1.2145810127

> <CNNaffinity_variance>
0.2560071945

$$$$
[H]OC(=O)C([H])([H])C([H])([H])[C@@]([H])(C(=O)N1C([H])([H])C([H])([H])C([H])([H])[C@@]1([H])C(=O)N([H])[C@]([H])(C(=O)OC([H])([H])[H])C([H])([H])c1c([H])c([H])c([H])c([H])c1[H])N([H])C(=O)[C@@]([H])(N([H])C(=O)OC([H])([H])c1c([H])c([H])c([H])c([H])c1[H])[C@@]([H])(C([H])([H])[H])C([H])([H])C([H])([H])[H]


 51 53  0  0  0  0  0  0  0  0999 V2000
   40.1104   13.4114  -14.7297 C   0  0  0  0  0  0  0  0  0  0  0  0
   40.6088   14.4142  -13.8316 C   0  0  0  0  0  0  0  0  0  0  0  0
   39.6428   15.3461  -13.6080 O   0  0  0  0  0  0  0  0  0  0  0  0
   41.7531   14.7361  -13.1330 N   0  0  0  0  0  0  0  0  0  0  0  0
   41.8210   15.9261  -12.2373 C   0  0  0  0  0  0  0  0  0  0  0  0
   43.0433   16.6165  -12.8054 C   0  0  0  0  0  0  0  0  0  0  0  0
   43.9546   15.4772  -13.1128 C   0  0  0  0  0  0  0  0  0  0  0  0
   43.0640   14.2082  -13.0640 C   0  0  0  0  0  0  0  0  0  0  0  0
   43.4341   13.5417  -11.8044 C   0  0  0  0  0  0  0  0  0  0  0  0
   44.1113   12.5003  -11.8189 O   0  0  0  0  0  0  0  0  0  0  0  0
   43.0123   14.0914  -10.5694 N   0  0  0  0  0  0  0  0  0  0  0  0
   42.4528   14.9693  -10.5075 H   0  0  0  0  0  0  0  0  0  0  0  0
   43.3704   13.4019   -9.3140 C   0  0  0  0  0  0  0  0  0  0  0  0
   42.4206   13.7494   -8.2503 C   0  0  0  0  0  0  0  0  0  0  0  0
   41.8832   14.9197   -8.2456 O   0  0  0  0  0  0  0  0  0  0  0  0
   42.0368   12.9276   -7.2371 O   0  0  0  0  0  0  0  0  0  0  0  0
   40.8118   12.1791   -7.2781 C   0  0  0  0  0  0  0  0  0  0  0  0
   44.7637   13.7977   -8.9464 C   0  0  0  0  0  0  0  0  0  0  0  0
   45.6871   12.7175   -8.6238 C   0  0  0  0  0  0  0  0  0  0  0  0
   46.7771   12.5462   -9.4743 C   0  0  0  0  0  0  0  0  0  0  0  0
   47.6751   11.5580   -9.1903 C   0  0  0  0  0  0  0  0  0  0  0  0
   47.5419   10.7286   -8.0966 C   0  0  0  0  0  0  0  0  0  0  0  0
   46.4305   10.9302   -7.2584 C   0  0  0  0  0  0  0  0  0  0  0  0
   45.5277   11.9083   -7.5283 C   0  0  0  0  0  0  0  0  0  0  0  0
   37.7116   12.7853  -14.1556 C   0  0  0  0  0  0  0  0  0  0  0  0
   38.2103   11.6996  -13.6790 O   0  0  0  0  0  0  0  0  0  0  0  0
   38.6053   13.7057  -14.7058 N   0  0  0  0  0  0  0  0  0  0  0  0
   38.2944   14.6049  -15.1165 H   0  0  0  0  0  0  0  0  0  0  0  0
   36.2713   12.9115  -14.0661 C   0  0  0  0  0  0  0  0  0  0  0  0
   35.8538   14.1244  -13.4113 N   0  0  0  0  0  0  0  0  0  0  0  0
   35.8310   14.4483  -12.0495 C   0  0  0  0  0  0  0  0  0  0  0  0
   36.1663   13.7439  -11.0794 O   0  0  0  0  0  0  0  0  0  0  0  0
   35.5003   14.9175  -14.0647 H   0  0  0  0  0  0  0  0  0  0  0  0
   35.3706   15.7376  -11.6635 O   0  0  0  0  0  0  0  0  0  0  0  0
   36.2535   16.8091  -11.4545 C   0  0  0  0  0  0  0  0  0  0  0  0
   36.5820   17.0724  -10.0586 C   0  0  0  0  0  0  0  0  0  0  0  0
   35.6671   16.7468   -9.0624 C   0  0  0  0  0  0  0  0  0  0  0  0
   35.9042   16.9698   -7.7308 C   0  0  0  0  0  0  0  0  0  0  0  0
   37.1072   17.5468   -7.3342 C   0  0  0  0  0  0  0  0  0  0  0  0
   38.0233   17.8738   -8.3171 C   0  0  0  0  0  0  0  0  0  0  0  0
   37.7679   17.6417   -9.6548 C   0  0  0  0  0  0  0  0  0  0  0  0
   35.5060   12.7733  -15.3635 C   0  0  0  0  0  0  0  0  0  0  0  0
   36.0778   11.7122  -16.2927 C   0  0  0  0  0  0  0  0  0  0  0  0
   33.6558   11.1567  -15.9267 C   0  0  0  0  0  0  0  0  0  0  0  0
   34.1122   12.2722  -15.0063 C   0  0  0  0  0  0  0  0  0  0  0  0
   40.5093   13.1789  -16.1023 C   0  0  0  0  0  0  0  0  0  0  0  0
   39.7778   12.1782  -16.9365 C   0  0  0  0  0  0  0  0  0  0  0  0
   40.5634   11.8351  -18.1787 C   0  0  0  0  0  0  0  0  0  0  0  0
   39.9633   11.5572  -19.2390 O   0  0  0  0  0  0  0  0  0  0  0  0
   41.9550   11.8164  -18.1936 O   0  0  0  0  0  0  0  0  0  0  0  0
   42.4994   12.0081  -19.0016 H   0  0  0  0  0  0  0  0  0  0  0  0
 44 45  1  0  0  0
 45 42  1  0  0  0
 42 43  1  0  0  0
 42 29  1  0  0  0
 29 30  1  0  0  0
 30 31  1  0  0  0
 31 32  2  0  0  0
 31 34  1  0  0  0
 34 35  1  0  0  0
 35 36  1  0  0  0
 36 37  2  0  0  0
 37 38  1  0  0  0
 38 39  2  0  0  0
 39 40  1  0  0  0
 40 41  2  0  0  0
 29 25  1  0  0  0
 25 26  2  0  0  0
 25 27  1  0  0  0
 27  1  1  0  0  0
  1 46  1  0  0  0
 46 47  1  0  0  0
 47 48  1  0  0  0
 48 49  2  0  0  0
 48 50  1  0  0  0
  1  2  1  0  0  0
  2  3  2  0  0  0
  2  4  1  0  0  0
  4  5  1  0  0  0
  5  6  1  0  0  0
  6  7  1  0  0  0
  7  8  1  0  0  0
  8  9  1  0  0  0
  9 10  2  0  0  0
  9 11  1  0  0  0
 11 13  1  0  0  0
 13 18  1  0  0  0
 18 19  1  0  0  0
 19 20  2  0  0  0
 20 21  1  0  0  0
 21 22  2  0  0  0
 22 23  1  0  0  0
 23 24  2  0  0  0
 13 14  1  0  0  0
 14 15  2  0  0  0
 14 16  1  0  0  0
 16 17  1  0  0  0
 41 36  1  0  0  0
  8  4  1  0  0  0
 24 19  1  0  0  0
 30 33  1  0  0  0
 27 28  1  0  0  0
 50 51  1  0  0  0
 11 12  1  0  0  0
M  END
> <minimizedAffinity>
-7.84771

> <CNNscore>
0.1732906550

> <CNNaffinity>
6.4991197586

> <CNN_VS>
1.1262366772

> <CNNaffinity_variance>
0.6614480615

$$$$
[H]OC(=O)C([H])([H])C([H])([H])[C@@]([H])(C(=O)N1C([H])([H])C([H])([H])C([H])([H])[C@@]1([H])C(=O)N([H])[C@]([H])(C(=O)OC([H])([H])[H])C([H])([H])c1c([H])c([H])c([H])c([H])c1[H])N([H])C(=O)[C@@]([H])(N([H])C(=O)OC([H])([H])c1c([H])c([H])c([H])c([H])c1[H])[C@@]([H])(C([H])([H])[H])C([H])([H])C([H])([H])[H]


 51 53  0  0  0  0  0  0  0  0999 V2000
   39.4957   16.0914   -8.7487 C   0  0  0  0  0  0  0  0  0  0  0  0
   40.3906   15.0138   -8.4349 C   0  0  0  0  0  0  0  0  0  0  0  0
   39.6725   13.9166   -8.0714 O   0  0  0  0  0  0  0  0  0  0  0  0
   41.7409   14.7409   -8.3774 N   0  0  0  0  0  0  0  0  0  0  0  0
   42.2570   13.3907   -8.0119 C   0  0  0  0  0  0  0  0  0  0  0  0
   43.1901   13.7612   -6.8780 C   0  0  0  0  0  0  0  0  0  0  0  0
   43.8086   15.0298   -7.3589 C   0  0  0  0  0  0  0  0  0  0  0  0
   42.9224   15.5017   -8.5412 C   0  0  0  0  0  0  0  0  0  0  0  0
   43.7222   15.2151   -9.7437 C   0  0  0  0  0  0  0  0  0  0  0  0
   44.9207   14.9041   -9.6429 O   0  0  0  0  0  0  0  0  0  0  0  0
   43.1203   15.2974  -11.0228 N   0  0  0  0  0  0  0  0  0  0  0  0
   42.1155   15.5431  -11.1557 H   0  0  0  0  0  0  0  0  0  0  0  0
   43.9380   15.0298  -12.2225 C   0  0  0  0  0  0  0  0  0  0  0  0
   44.5565   16.2696  -12.7074 C   0  0  0  0  0  0  0  0  0  0  0  0
   45.7393   16.2248  -13.2149 O   0  0  0  0  0  0  0  0  0  0  0  0
   43.9821   17.5017  -12.6754 O   0  0  0  0  0  0  0  0  0  0  0  0
   44.4561   18.5907  -13.4828 C   0  0  0  0  0  0  0  0  0  0  0  0
   43.0536   14.4230  -13.2631 C   0  0  0  0  0  0  0  0  0  0  0  0
   43.7049   13.6096  -14.2817 C   0  0  0  0  0  0  0  0  0  0  0  0
   42.9327   13.2402  -15.3808 C   0  0  0  0  0  0  0  0  0  0  0  0
   43.5164   12.4966  -16.3658 C   0  0  0  0  0  0  0  0  0  0  0  0
   44.8365   12.1014  -16.3112 C   0  0  0  0  0  0  0  0  0  0  0  0
   45.5872   12.4929  -15.1880 C   0  0  0  0  0  0  0  0  0  0  0  0
   45.0205   13.2316  -14.1993 C   0  0  0  0  0  0  0  0  0  0  0  0
   38.4105   15.6804  -11.0135 C   0  0  0  0  0  0  0  0  0  0  0  0
   39.2357   16.5599  -11.4612 O   0  0  0  0  0  0  0  0  0  0  0  0
   38.4764   15.3846   -9.6510 N   0  0  0  0  0  0  0  0  0  0  0  0
   37.8489   14.6931   -9.2015 H   0  0  0  0  0  0  0  0  0  0  0  0
   37.5048   15.1097  -11.9893 C   0  0  0  0  0  0  0  0  0  0  0  0
   38.1085   14.0597  -12.7685 N   0  0  0  0  0  0  0  0  0  0  0  0
   38.9714   14.1393  -13.8681 C   0  0  0  0  0  0  0  0  0  0  0  0
   39.4133   15.1559  -14.4346 O   0  0  0  0  0  0  0  0  0  0  0  0
   37.8641   13.0450  -12.4656 H   0  0  0  0  0  0  0  0  0  0  0  0
   39.4345   12.9315  -14.4596 O   0  0  0  0  0  0  0  0  0  0  0  0
   38.5620   12.0356  -15.0980 C   0  0  0  0  0  0  0  0  0  0  0  0
   38.8873   11.7459  -16.4894 C   0  0  0  0  0  0  0  0  0  0  0  0
   38.0008   11.0046  -17.2640 C   0  0  0  0  0  0  0  0  0  0  0  0
   38.2415   10.6890  -18.5762 C   0  0  0  0  0  0  0  0  0  0  0  0
   39.4189   11.1187  -19.1815 C   0  0  0  0  0  0  0  0  0  0  0  0
   40.3064   11.8565  -18.4196 C   0  0  0  0  0  0  0  0  0  0  0  0
   40.0476   12.1657  -17.0983 C   0  0  0  0  0  0  0  0  0  0  0  0
   36.1758   14.6176  -11.4605 C   0  0  0  0  0  0  0  0  0  0  0  0
   35.1309   15.7168  -11.3340 C   0  0  0  0  0  0  0  0  0  0  0  0
   34.1801   13.9963  -12.8696 C   0  0  0  0  0  0  0  0  0  0  0  0
   35.6114   13.6576  -12.5005 C   0  0  0  0  0  0  0  0  0  0  0  0
   38.7754   16.9390   -7.8213 C   0  0  0  0  0  0  0  0  0  0  0  0
   37.4796   17.5627   -8.2268 C   0  0  0  0  0  0  0  0  0  0  0  0
   37.7126   18.8631   -8.9564 C   0  0  0  0  0  0  0  0  0  0  0  0
   37.8803   19.9194   -8.3100 O   0  0  0  0  0  0  0  0  0  0  0  0
   37.7508   18.9366  -10.3458 O   0  0  0  0  0  0  0  0  0  0  0  0
   38.2805   19.6106  -10.8469 H   0  0  0  0  0  0  0  0  0  0  0  0
 44 45  1  0  0  0
 45 42  1  0  0  0
 42 43  1  0  0  0
 42 29  1  0  0  0
 29 30  1  0  0  0
 30 31  1  0  0  0
 31 32  2  0  0  0
 31 34  1  0  0  0
 34 35  1  0  0  0
 35 36  1  0  0  0
 36 37  2  0  0  0
 37 38  1  0  0  0
 38 39  2  0  0  0
 39 40  1  0  0  0
 40 41  2  0  0  0
 29 25  1  0  0  0
 25 26  2  0  0  0
 25 27  1  0  0  0
 27  1  1  0  0  0
  1 46  1  0  0  0
 46 47  1  0  0  0
 47 48  1  0  0  0
 48 49  2  0  0  0
 48 50  1  0  0  0
  1  2  1  0  0  0
  2  3  2  0  0  0
  2  4  1  0  0  0
  4  5  1  0  0  0
  5  6  1  0  0  0
  6  7  1  0  0  0
  7  8  1  0  0  0
  8  9  1  0  0  0
  9 10  2  0  0  0
  9 11  1  0  0  0
 11 13  1  0  0  0
 13 18  1  0  0  0
 18 19  1  0  0  0
 19 20  2  0  0  0
 20 21  1  0  0  0
 21 22  2  0  0  0
 22 23  1  0  0  0
 23 24  2  0  0  0
 13 14  1  0  0  0
 14 15  2  0  0  0
 14 16  1  0  0  0
 16 17  1  0  0  0
 41 36  1  0  0  0
  8  4  1  0  0  0
 24 19  1  0  0  0
 30 33  1  0  0  0
 27 28  1  0  0  0
 50 51  1  0  0  0
 11 12  1  0  0  0
M  END
> <minimizedAffinity>
-8.22096

> <CNNscore>
0.1623236835

> <CNNaffinity>
6.6705513000

> <CNN_VS>
1.0827884674

> <CNNaffinity_variance>
0.8333503008

$$$$
[H]OC(=O)C([H])([H])C([H])([H])[C@@]([H])(C(=O)N1C([H])([H])C([H])([H])C([H])([H])[C@@]1([H])C(=O)N([H])[C@]([H])(C(=O)OC([H])([H])[H])C([H])([H])c1c([H])c([H])c([H])c([H])c1[H])N([H])C(=O)[C@@]([H])(N([H])C(=O)OC([H])([H])c1c([H])c([H])c([H])c([H])c1[H])[C@@]([H])(C([H])([H])[H])C([H])([H])C([H])([H])[H]


 51 53  0  0  0  0  0  0  0  0999 V2000
   40.3407   14.0902  -14.1743 C   0  0  0  0  0  0  0  0  0  0  0  0
   41.1391   15.0219  -13.4293 C   0  0  0  0  0  0  0  0  0  0  0  0
   40.3763   16.0897  -13.0695 O   0  0  0  0  0  0  0  0  0  0  0  0
   42.4298   15.1816  -12.9713 N   0  0  0  0  0  0  0  0  0  0  0  0
   42.8363   16.3620  -12.1562 C   0  0  0  0  0  0  0  0  0  0  0  0
   44.0131   16.8553  -12.9719 C   0  0  0  0  0  0  0  0  0  0  0  0
   44.6772   15.5891  -13.3948 C   0  0  0  0  0  0  0  0  0  0  0  0
   43.6409   14.4668  -13.1258 C   0  0  0  0  0  0  0  0  0  0  0  0
   44.1463   13.7722  -11.9299 C   0  0  0  0  0  0  0  0  0  0  0  0
   43.5123   12.8237  -11.4381 O   0  0  0  0  0  0  0  0  0  0  0  0
   45.3618   14.1910  -11.3364 N   0  0  0  0  0  0  0  0  0  0  0  0
   45.9337   14.9739  -11.7205 H   0  0  0  0  0  0  0  0  0  0  0  0
   45.8470   13.5015  -10.1244 C   0  0  0  0  0  0  0  0  0  0  0  0
   45.7595   14.3908   -8.9599 C   0  0  0  0  0  0  0  0  0  0  0  0
   44.6500   14.9966   -8.7141 O   0  0  0  0  0  0  0  0  0  0  0  0
   46.7682   14.6433   -8.0836 O   0  0  0  0  0  0  0  0  0  0  0  0
   46.5236   15.0463   -6.7271 C   0  0  0  0  0  0  0  0  0  0  0  0
   47.2556   13.0662  -10.3687 C   0  0  0  0  0  0  0  0  0  0  0  0
   47.5979   11.7062   -9.9730 C   0  0  0  0  0  0  0  0  0  0  0  0
   46.9271   10.6735  -10.6245 C   0  0  0  0  0  0  0  0  0  0  0  0
   47.2383    9.3857  -10.2952 C   0  0  0  0  0  0  0  0  0  0  0  0
   48.1888    9.0734   -9.3459 C   0  0  0  0  0  0  0  0  0  0  0  0
   48.8475   10.1404   -8.7087 C   0  0  0  0  0  0  0  0  0  0  0  0
   48.5481   11.4269   -9.0245 C   0  0  0  0  0  0  0  0  0  0  0  0
   37.9980   13.4773  -13.3920 C   0  0  0  0  0  0  0  0  0  0  0  0
   38.3853   12.2555  -13.5000 O   0  0  0  0  0  0  0  0  0  0  0  0
   38.9272   14.4679  -13.7138 N   0  0  0  0  0  0  0  0  0  0  0  0
   38.7032   15.4784  -13.6606 H   0  0  0  0  0  0  0  0  0  0  0  0
   36.6311   13.6703  -12.9530 C   0  0  0  0  0  0  0  0  0  0  0  0
   36.4450   14.8955  -12.2192 N   0  0  0  0  0  0  0  0  0  0  0  0
   36.2134   15.0987  -10.8535 C   0  0  0  0  0  0  0  0  0  0  0  0
   36.1069   14.2485   -9.9505 O   0  0  0  0  0  0  0  0  0  0  0  0
   36.4893   15.8096  -12.8052 H   0  0  0  0  0  0  0  0  0  0  0  0
   36.0692   16.4315  -10.3779 O   0  0  0  0  0  0  0  0  0  0  0  0
   37.1597   17.3118  -10.2945 C   0  0  0  0  0  0  0  0  0  0  0  0
   38.2252   16.8880   -9.3941 C   0  0  0  0  0  0  0  0  0  0  0  0
   39.4571   16.5066   -9.9161 C   0  0  0  0  0  0  0  0  0  0  0  0
   40.5026   16.0918   -9.1324 C   0  0  0  0  0  0  0  0  0  0  0  0
   40.3477   16.0421   -7.7500 C   0  0  0  0  0  0  0  0  0  0  0  0
   39.1268   16.4196   -7.2216 C   0  0  0  0  0  0  0  0  0  0  0  0
   38.0838   16.8352   -8.0264 C   0  0  0  0  0  0  0  0  0  0  0  0
   35.5659   13.5800  -14.0232 C   0  0  0  0  0  0  0  0  0  0  0  0
   36.1178   13.2287  -15.3973 C   0  0  0  0  0  0  0  0  0  0  0  0
   33.8953   11.8833  -14.8505 C   0  0  0  0  0  0  0  0  0  0  0  0
   34.6616   12.4110  -13.6530 C   0  0  0  0  0  0  0  0  0  0  0  0
   40.3180   13.8972  -15.6093 C   0  0  0  0  0  0  0  0  0  0  0  0
   41.0903   12.7776  -16.2277 C   0  0  0  0  0  0  0  0  0  0  0  0
   40.3429   12.1907  -17.4002 C   0  0  0  0  0  0  0  0  0  0  0  0
   39.1689   11.7888  -17.2532 O   0  0  0  0  0  0  0  0  0  0  0  0
   40.9170   12.0774  -18.6631 O   0  0  0  0  0  0  0  0  0  0  0  0
   40.3966   12.1020  -19.5084 H   0  0  0  0  0  0  0  0  0  0  0  0
 44 45  1  0  0  0
 45 42  1  0  0  0
 42 43  1  0  0  0
 42 29  1  0  0  0
 29 30  1  0  0  0
 30 31  1  0  0  0
 31 32  2  0  0  0
 31 34  1  0  0  0
 34 35  1  0  0  0
 35 36  1  0  0  0
 36 37  2  0  0  0
 37 38  1  0  0  0
 38 39  2  0  0  0
 39 40  1  0  0  0
 40 41  2  0  0  0
 29 25  1  0  0  0
 25 26  2  0  0  0
 25 27  1  0  0  0
 27  1  1  0  0  0
  1 46  1  0  0  0
 46 47  1  0  0  0
 47 48  1  0  0  0
 48 49  2  0  0  0
 48 50  1  0  0  0
  1  2  1  0  0  0
  2  3  2  0  0  0
  2  4  1  0  0  0
  4  5  1  0  0  0
  5  6  1  0  0  0
  6  7  1  0  0  0
  7  8  1  0  0  0
  8  9  1  0  0  0
  9 10  2  0  0  0
  9 11  1  0  0  0
 11 13  1  0  0  0
 13 18  1  0  0  0
 18 19  1  0  0  0
 19 20  2  0  0  0
 20 21  1  0  0  0
 21 22  2  0  0  0
 22 23  1  0  0  0
 23 24  2  0  0  0
 13 14  1  0  0  0
 14 15  2  0  0  0
 14 16  1  0  0  0
 16 17  1  0  0  0
 41 36  1  0  0  0
  8  4  1  0  0  0
 24 19  1  0  0  0
 30 33  1  0  0  0
 27 28  1  0  0  0
 50 51  1  0  0  0
 11 12  1  0  0  0
M  END
> <minimizedAffinity>
-7.19119

> <CNNscore>
0.1480529904

> <CNNaffinity>
6.5281472206

> <CNN_VS>
0.9665117264

> <CNNaffinity_variance>
0.1418377310

$$$$
[H]OC(=O)C([H])([H])C([H])([H])[C@@]([H])(C(=O)N1C([H])([H])C([H])([H])C([H])([H])[C@@]1([H])C(=O)N([H])[C@]([H])(C(=O)OC([H])([H])[H])C([H])([H])c1c([H])c([H])c([H])c([H])c1[H])N([H])C(=O)[C@@]([H])(N([H])C(=O)OC([H])([H])c1c([H])c([H])c([H])c([H])c1[H])[C@@]([H])(C([H])([H])[H])C([H])([H])C([H])([H])[H]


 51 53  0  0  0  0  0  0  0  0999 V2000
   40.1645   13.8222  -14.4857 C   0  0  0  0  0  0  0  0  0  0  0  0
   40.7406   14.7848  -13.5902 C   0  0  0  0  0  0  0  0  0  0  0  0
   39.7741   15.6386  -13.1561 O   0  0  0  0  0  0  0  0  0  0  0  0
   41.9584   15.1227  -13.0389 N   0  0  0  0  0  0  0  0  0  0  0  0
   42.0997   16.2462  -12.0690 C   0  0  0  0  0  0  0  0  0  0  0  0
   43.1901   17.0480  -12.7485 C   0  0  0  0  0  0  0  0  0  0  0  0
   44.1003   15.9905  -13.2742 C   0  0  0  0  0  0  0  0  0  0  0  0
   43.2891   14.6704  -13.2010 C   0  0  0  0  0  0  0  0  0  0  0  0
   43.8726   13.9372  -12.0653 C   0  0  0  0  0  0  0  0  0  0  0  0
   43.3462   12.8891  -11.6558 O   0  0  0  0  0  0  0  0  0  0  0  0
   45.0399   14.4328  -11.4354 N   0  0  0  0  0  0  0  0  0  0  0  0
   45.5228   15.3014  -11.7516 H   0  0  0  0  0  0  0  0  0  0  0  0
   45.6029   13.7012  -10.2833 C   0  0  0  0  0  0  0  0  0  0  0  0
   45.6603   14.5715   -9.1027 C   0  0  0  0  0  0  0  0  0  0  0  0
   44.8912   15.6028   -9.0446 O   0  0  0  0  0  0  0  0  0  0  0  0
   46.4707   14.3872   -8.0264 O   0  0  0  0  0  0  0  0  0  0  0  0
   45.9769   13.9031   -6.7678 C   0  0  0  0  0  0  0  0  0  0  0  0
   46.9633   13.2119  -10.6619 C   0  0  0  0  0  0  0  0  0  0  0  0
   47.2748   11.8267  -10.3342 C   0  0  0  0  0  0  0  0  0  0  0  0
   46.7721   10.8491  -11.1901 C   0  0  0  0  0  0  0  0  0  0  0  0
   47.0628    9.5415  -10.9265 C   0  0  0  0  0  0  0  0  0  0  0  0
   47.8330    9.1570   -9.8491 C   0  0  0  0  0  0  0  0  0  0  0  0
   48.3253   10.1699   -9.0064 C   0  0  0  0  0  0  0  0  0  0  0  0
   48.0438   11.4751   -9.2546 C   0  0  0  0  0  0  0  0  0  0  0  0
   37.7993   13.0966  -13.8897 C   0  0  0  0  0  0  0  0  0  0  0  0
   38.3146   11.9406  -13.6599 O   0  0  0  0  0  0  0  0  0  0  0  0
   38.6672   14.1053  -14.3111 N   0  0  0  0  0  0  0  0  0  0  0  0
   38.3414   15.0659  -14.5236 H   0  0  0  0  0  0  0  0  0  0  0  0
   36.3689   13.2023  -13.6868 C   0  0  0  0  0  0  0  0  0  0  0  0
   35.9878   14.4064  -12.9946 N   0  0  0  0  0  0  0  0  0  0  0  0
   35.9489   14.6799  -11.6221 C   0  0  0  0  0  0  0  0  0  0  0  0
   36.2337   13.9262  -10.6732 O   0  0  0  0  0  0  0  0  0  0  0  0
   35.6815   15.2376  -13.6241 H   0  0  0  0  0  0  0  0  0  0  0  0
   35.5339   15.9721  -11.1964 O   0  0  0  0  0  0  0  0  0  0  0  0
   35.4083   16.3008   -9.8372 C   0  0  0  0  0  0  0  0  0  0  0  0
   34.1433   15.9130   -9.2246 C   0  0  0  0  0  0  0  0  0  0  0  0
   32.9725   15.9579   -9.9746 C   0  0  0  0  0  0  0  0  0  0  0  0
   31.7472   15.6138   -9.4652 C   0  0  0  0  0  0  0  0  0  0  0  0
   31.6459   15.1978   -8.1408 C   0  0  0  0  0  0  0  0  0  0  0  0
   32.8044   15.1495   -7.3871 C   0  0  0  0  0  0  0  0  0  0  0  0
   34.0312   15.4998   -7.9169 C   0  0  0  0  0  0  0  0  0  0  0  0
   35.5061   13.0593  -14.9210 C   0  0  0  0  0  0  0  0  0  0  0  0
   36.1849   12.2942  -16.0479 C   0  0  0  0  0  0  0  0  0  0  0  0
   33.7258   11.4630  -15.7188 C   0  0  0  0  0  0  0  0  0  0  0  0
   34.3092   12.2014  -14.5297 C   0  0  0  0  0  0  0  0  0  0  0  0
   40.4372   13.6569  -15.8984 C   0  0  0  0  0  0  0  0  0  0  0  0
   40.0434   12.3955  -16.5956 C   0  0  0  0  0  0  0  0  0  0  0  0
   41.0599   12.0209  -17.6465 C   0  0  0  0  0  0  0  0  0  0  0  0
   40.6793   11.6197  -18.7671 O   0  0  0  0  0  0  0  0  0  0  0  0
   42.4298   12.1067  -17.4160 O   0  0  0  0  0  0  0  0  0  0  0  0
   43.0983   12.2780  -18.1299 H   0  0  0  0  0  0  0  0  0  0  0  0
 44 45  1  0  0  0
 45 42  1  0  0  0
 42 43  1  0  0  0
 42 29  1  0  0  0
 29 30  1  0  0  0
 30 31  1  0  0  0
 31 32  2  0  0  0
 31 34  1  0  0  0
 34 35  1  0  0  0
 35 36  1  0  0  0
 36 37  2  0  0  0
 37 38  1  0  0  0
 38 39  2  0  0  0
 39 40  1  0  0  0
 40 41  2  0  0  0
 29 25  1  0  0  0
 25 26  2  0  0  0
 25 27  1  0  0  0
 27  1  1  0  0  0
  1 46  1  0  0  0
 46 47  1  0  0  0
 47 48  1  0  0  0
 48 49  2  0  0  0
 48 50  1  0  0  0
  1  2  1  0  0  0
  2  3  2  0  0  0
  2  4  1  0  0  0
  4  5  1  0  0  0
  5  6  1  0  0  0
  6  7  1  0  0  0
  7  8  1  0  0  0
  8  9  1  0  0  0
  9 10  2  0  0  0
  9 11  1  0  0  0
 11 13  1  0  0  0
 13 18  1  0  0  0
 18 19  1  0  0  0
 19 20  2  0  0  0
 20 21  1  0  0  0
 21 22  2  0  0  0
 22 23  1  0  0  0
 23 24  2  0  0  0
 13 14  1  0  0  0
 14 15  2  0  0  0
 14 16  1  0  0  0
 16 17  1  0  0  0
 41 36  1  0  0  0
  8  4  1  0  0  0
 24 19  1  0  0  0
 30 33  1  0  0  0
 27 28  1  0  0  0
 50 51  1  0  0  0
 11 12  1  0  0  0
M  END
> <minimizedAffinity>
-7.35647

> <CNNscore>
0.1347467154

> <CNNaffinity>
6.2948126793

> <CNN_VS>
0.8482053280

> <CNNaffinity_variance>
0.2781501412

$$$$
[H]OC(=O)C([H])([H])C([H])([H])[C@@]([H])(C(=O)N1C([H])([H])C([H])([H])C([H])([H])[C@@]1([H])C(=O)N([H])[C@]([H])(C(=O)OC([H])([H])[H])C([H])([H])c1c([H])c([H])c([H])c([H])c1[H])N([H])C(=O)[C@@]([H])(N([H])C(=O)OC([H])([H])c1c([H])c([H])c([H])c([H])c1[H])[C@@]([H])(C([H])([H])[H])C([H])([H])C([H])([H])[H]


 51 53  0  0  0  0  0  0  0  0999 V2000
   39.9293   15.8998   -7.4918 C   0  0  0  0  0  0  0  0  0  0  0  0
   40.7036   14.6997   -7.6363 C   0  0  0  0  0  0  0  0  0  0  0  0
   39.9229   13.6186   -7.3657 O   0  0  0  0  0  0  0  0  0  0  0  0
   41.9836   14.2967   -7.9527 N   0  0  0  0  0  0  0  0  0  0  0  0
   42.3621   12.8561   -8.0203 C   0  0  0  0  0  0  0  0  0  0  0  0
   43.5489   12.8491   -7.0795 C   0  0  0  0  0  0  0  0  0  0  0  0
   44.2342   14.1336   -7.4009 C   0  0  0  0  0  0  0  0  0  0  0  0
   43.2050   14.9612   -8.2143 C   0  0  0  0  0  0  0  0  0  0  0  0
   43.6949   14.9049   -9.6017 C   0  0  0  0  0  0  0  0  0  0  0  0
   44.8575   14.5400   -9.8441 O   0  0  0  0  0  0  0  0  0  0  0  0
   42.8348   15.2718  -10.6650 N   0  0  0  0  0  0  0  0  0  0  0  0
   41.8484   15.5731  -10.5108 H   0  0  0  0  0  0  0  0  0  0  0  0
   43.3444   15.2329  -12.0501 C   0  0  0  0  0  0  0  0  0  0  0  0
   43.0638   16.5008  -12.7345 C   0  0  0  0  0  0  0  0  0  0  0  0
   41.8411   16.8739  -12.8894 O   0  0  0  0  0  0  0  0  0  0  0  0
   44.0005   17.3503  -13.2347 O   0  0  0  0  0  0  0  0  0  0  0  0
   45.3727   16.9639  -13.4081 C   0  0  0  0  0  0  0  0  0  0  0  0
   42.6969   14.0837  -12.7524 C   0  0  0  0  0  0  0  0  0  0  0  0
   43.3977   13.5467  -13.9117 C   0  0  0  0  0  0  0  0  0  0  0  0
   42.6281   13.2685  -15.0392 C   0  0  0  0  0  0  0  0  0  0  0  0
   43.2546   12.7852  -16.1517 C   0  0  0  0  0  0  0  0  0  0  0  0
   44.6152   12.5647  -16.1981 C   0  0  0  0  0  0  0  0  0  0  0  0
   45.3618   12.8575  -15.0425 C   0  0  0  0  0  0  0  0  0  0  0  0
   44.7529   13.3377  -13.9276 C   0  0  0  0  0  0  0  0  0  0  0  0
   38.6400   16.1596   -9.6704 C   0  0  0  0  0  0  0  0  0  0  0  0
   39.6015   16.9322  -10.0357 O   0  0  0  0  0  0  0  0  0  0  0  0
   38.7288   15.5955   -8.3968 N   0  0  0  0  0  0  0  0  0  0  0  0
   37.9999   14.9647   -8.0163 H   0  0  0  0  0  0  0  0  0  0  0  0
   37.5742   15.9783  -10.6345 C   0  0  0  0  0  0  0  0  0  0  0  0
   37.7305   14.7853  -11.4260 N   0  0  0  0  0  0  0  0  0  0  0  0
   38.2927   14.6174  -12.6971 C   0  0  0  0  0  0  0  0  0  0  0  0
   38.7869   15.4802  -13.4462 O   0  0  0  0  0  0  0  0  0  0  0  0
   37.3586   13.8678  -10.9778 H   0  0  0  0  0  0  0  0  0  0  0  0
   38.3287   13.3113  -13.2591 O   0  0  0  0  0  0  0  0  0  0  0  0
   39.0752   13.0197  -14.4120 C   0  0  0  0  0  0  0  0  0  0  0  0
   38.3437   12.3124  -15.4561 C   0  0  0  0  0  0  0  0  0  0  0  0
   36.9525   12.3164  -15.4460 C   0  0  0  0  0  0  0  0  0  0  0  0
   36.1983   11.6698  -16.3907 C   0  0  0  0  0  0  0  0  0  0  0  0
   36.8310   10.9715  -17.4151 C   0  0  0  0  0  0  0  0  0  0  0  0
   38.2137   10.9618  -17.4338 C   0  0  0  0  0  0  0  0  0  0  0  0
   38.9582   11.6193  -16.4737 C   0  0  0  0  0  0  0  0  0  0  0  0
   36.1644   16.0157  -10.0877 C   0  0  0  0  0  0  0  0  0  0  0  0
   35.0951   15.8960  -11.1640 C   0  0  0  0  0  0  0  0  0  0  0  0
   35.0404   15.0164   -8.0648 C   0  0  0  0  0  0  0  0  0  0  0  0
   35.9903   14.7742   -9.2218 C   0  0  0  0  0  0  0  0  0  0  0  0
   39.4386   16.4912   -6.2644 C   0  0  0  0  0  0  0  0  0  0  0  0
   37.9707   16.5395   -5.9898 C   0  0  0  0  0  0  0  0  0  0  0  0
   37.6619   17.5152   -4.8804 C   0  0  0  0  0  0  0  0  0  0  0  0
   38.3690   18.5347   -4.7320 O   0  0  0  0  0  0  0  0  0  0  0  0
   36.6013   17.3240   -3.9997 O   0  0  0  0  0  0  0  0  0  0  0  0
   36.1121   18.0667   -3.5580 H   0  0  0  0  0  0  0  0  0  0  0  0
 44 45  1  0  0  0
 45 42  1  0  0  0
 42 43  1  0  0  0
 42 29  1  0  0  0
 29 30  1  0  0  0
 30 31  1  0  0  0
 31 32  2  0  0  0
 31 34  1  0  0  0
 34 35  1  0  0  0
 35 36  1  0  0  0
 36 37  2  0  0  0
 37 38  1  0  0  0
 38 39  2  0  0  0
 39 40  1  0  0  0
 40 41  2  0  0  0
 29 25  1  0  0  0
 25 26  2  0  0  0
 25 27  1  0  0  0
 27  1  1  0  0  0
  1 46  1  0  0  0
 46 47  1  0  0  0
 47 48  1  0  0  0
 48 49  2  0  0  0
 48 50  1  0  0  0
  1  2  1  0  0  0
  2  3  2  0  0  0
  2  4  1  0  0  0
  4  5  1  0  0  0
  5  6  1  0  0  0
  6  7  1  0  0  0
  7  8  1  0  0  0
  8  9  1  0  0  0
  9 10  2  0  0  0
  9 11  1  0  0  0
 11 13  1  0  0  0
 13 18  1  0  0  0
 18 19  1  0  0  0
 19 20  2  0  0  0
 20 21  1  0  0  0
 21 22  2  0  0  0
 22 23  1  0  0  0
 23 24  2  0  0  0
 13 14  1  0  0  0
 14 15  2  0  0  0
 14 16  1  0  0  0
 16 17  1  0  0  0
 41 36  1  0  0  0
  8  4  1  0  0  0
 24 19  1  0  0  0
 30 33  1  0  0  0
 27 28  1  0  0  0
 50 51  1  0  0  0
 11 12  1  0  0  0
M  END
> <minimizedAffinity>
-7.16202

> <CNNscore>
0.1262320578

> <CNNaffinity>
6.5836286545

> <CNN_VS>
0.8310649991

> <CNNaffinity_variance>
0.4062075615

$$$$
[H]OC(=O)C([H])([H])C([H])([H])[C@@]([H])(C(=O)N1C([H])([H])C([H])([H])C([H])([H])[C@@]1([H])C(=O)N([H])[C@]([H])(C(=O)OC([H])([H])[H])C([H])([H])c1c([H])c([H])c([H])c([H])c1[H])N([H])C(=O)[C@@]([H])(N([H])C(=O)OC([H])([H])c1c([H])c([H])c([H])c([H])c1[H])[C@@]([H])(C([H])([H])[H])C([H])([H])C([H])([H])[H]


 51 53  0  0  0  0  0  0  0  0999 V2000
   37.0356   15.8753   -8.9317 C   0  0  0  0  0  0  0  0  0  0  0  0
   37.0102   14.9503   -7.8344 C   0  0  0  0  0  0  0  0  0  0  0  0
   36.0730   13.9919   -8.0681 O   0  0  0  0  0  0  0  0  0  0  0  0
   37.6255   14.7299   -6.6203 N   0  0  0  0  0  0  0  0  0  0  0  0
   37.2909   13.5521   -5.7696 C   0  0  0  0  0  0  0  0  0  0  0  0
   36.9606   14.2507   -4.4671 C   0  0  0  0  0  0  0  0  0  0  0  0
   37.9796   15.3374   -4.4063 C   0  0  0  0  0  0  0  0  0  0  0  0
   38.5714   15.4323   -5.8369 C   0  0  0  0  0  0  0  0  0  0  0  0
   39.9085   14.8253   -5.7278 C   0  0  0  0  0  0  0  0  0  0  0  0
   40.6246   15.0543   -4.7388 O   0  0  0  0  0  0  0  0  0  0  0  0
   40.3804   13.9774   -6.7590 N   0  0  0  0  0  0  0  0  0  0  0  0
   39.8106   13.7473   -7.6015 H   0  0  0  0  0  0  0  0  0  0  0  0
   41.7316   13.3925   -6.6491 C   0  0  0  0  0  0  0  0  0  0  0  0
   42.5935   13.8890   -7.7286 C   0  0  0  0  0  0  0  0  0  0  0  0
   42.8678   15.1460   -7.7857 O   0  0  0  0  0  0  0  0  0  0  0  0
   43.1525   13.1254   -8.7050 O   0  0  0  0  0  0  0  0  0  0  0  0
   44.5736   13.0395   -8.8932 C   0  0  0  0  0  0  0  0  0  0  0  0
   41.6008   11.9048   -6.7015 C   0  0  0  0  0  0  0  0  0  0  0  0
   42.3535   11.1467   -5.7105 C   0  0  0  0  0  0  0  0  0  0  0  0
   43.6264   10.7178   -6.0801 C   0  0  0  0  0  0  0  0  0  0  0  0
   44.3694   10.0239   -5.1689 C   0  0  0  0  0  0  0  0  0  0  0  0
   43.9065    9.7351   -3.9023 C   0  0  0  0  0  0  0  0  0  0  0  0
   42.6177   10.1843   -3.5621 C   0  0  0  0  0  0  0  0  0  0  0  0
   41.8659   10.8747   -4.4580 C   0  0  0  0  0  0  0  0  0  0  0  0
   37.3168   15.1471  -11.3538 C   0  0  0  0  0  0  0  0  0  0  0  0
   38.1494   16.1229  -11.4502 O   0  0  0  0  0  0  0  0  0  0  0  0
   36.7090   14.9524  -10.1125 N   0  0  0  0  0  0  0  0  0  0  0  0
   36.0226   14.1948   -9.9425 H   0  0  0  0  0  0  0  0  0  0  0  0
   37.1091   14.3724  -12.5601 C   0  0  0  0  0  0  0  0  0  0  0  0
   38.3104   13.7310  -13.0288 N   0  0  0  0  0  0  0  0  0  0  0  0
   39.3234   14.2196  -13.8625 C   0  0  0  0  0  0  0  0  0  0  0  0
   39.4109   15.3380  -14.4023 O   0  0  0  0  0  0  0  0  0  0  0  0
   38.4653   12.7103  -12.6894 H   0  0  0  0  0  0  0  0  0  0  0  0
   40.4213   13.3695  -14.1709 O   0  0  0  0  0  0  0  0  0  0  0  0
   40.9754   13.3109  -15.4597 C   0  0  0  0  0  0  0  0  0  0  0  0
   40.2477   12.4725  -16.4048 C   0  0  0  0  0  0  0  0  0  0  0  0
   40.8059   12.1911  -17.6476 C   0  0  0  0  0  0  0  0  0  0  0  0
   40.1787   11.4158  -18.5882 C   0  0  0  0  0  0  0  0  0  0  0  0
   38.9266   10.8755  -18.3095 C   0  0  0  0  0  0  0  0  0  0  0  0
   38.3635   11.1493  -17.0765 C   0  0  0  0  0  0  0  0  0  0  0  0
   39.0099   11.9326  -16.1400 C   0  0  0  0  0  0  0  0  0  0  0  0
   35.9988   13.3462  -12.5129 C   0  0  0  0  0  0  0  0  0  0  0  0
   34.6523   13.8911  -12.9670 C   0  0  0  0  0  0  0  0  0  0  0  0
   35.5509   12.4127  -14.8112 C   0  0  0  0  0  0  0  0  0  0  0  0
   36.3481   12.2663  -13.5295 C   0  0  0  0  0  0  0  0  0  0  0  0
   36.2663   17.0937   -9.0771 C   0  0  0  0  0  0  0  0  0  0  0  0
   36.6841   18.3346   -8.3574 C   0  0  0  0  0  0  0  0  0  0  0  0
   37.5300   19.2138   -9.2459 C   0  0  0  0  0  0  0  0  0  0  0  0
   38.0748   20.2354   -8.7755 O   0  0  0  0  0  0  0  0  0  0  0  0
   37.7340   18.9282  -10.5927 O   0  0  0  0  0  0  0  0  0  0  0  0
   38.5507   19.1899  -11.0932 H   0  0  0  0  0  0  0  0  0  0  0  0
 44 45  1  0  0  0
 45 42  1  0  0  0
 42 43  1  0  0  0
 42 29  1  0  0  0
 29 30  1  0  0  0
 30 31  1  0  0  0
 31 32  2  0  0  0
 31 34  1  0  0  0
 34 35  1  0  0  0
 35 36  1  0  0  0
 36 37  2  0  0  0
 37 38  1  0  0  0
 38 39  2  0  0  0
 39 40  1  0  0  0
 40 41  2  0  0  0
 29 25  1  0  0  0
 25 26  2  0  0  0
 25 27  1  0  0  0
 27  1  1  0  0  0
  1 46  1  0  0  0
 46 47  1  0  0  0
 47 48  1  0  0  0
 48 49  2  0  0  0
 48 50  1  0  0  0
  1  2  1  0  0  0
  2  3  2  0  0  0
  2  4  1  0  0  0
  4  5  1  0  0  0
  5  6  1  0  0  0
  6  7  1  0  0  0
  7  8  1  0  0  0
  8  9  1  0  0  0
  9 10  2  0  0  0
  9 11  1  0  0  0
 11 13  1  0  0  0
 13 18  1  0  0  0
 18 19  1  0  0  0
 19 20  2  0  0  0
 20 21  1  0  0  0
 21 22  2  0  0  0
 22 23  1  0  0  0
 23 24  2  0  0  0
 13 14  1  0  0  0
 14 15  2  0  0  0
 14 16  1  0  0  0
 16 17  1  0  0  0
 41 36  1  0  0  0
  8  4  1  0  0  0
 24 19  1  0  0  0
 30 33  1  0  0  0
 27 28  1  0  0  0
 50 51  1  0  0  0
 11 12  1  0  0  0
M  END
> <minimizedAffinity>
-8.48451

> <CNNscore>
0.1231539622

> <CNNaffinity>
6.1564664841

> <CNN_VS>
0.7581932545

> <CNNaffinity_variance>
0.2606827617

$$$$
[H]Oc1c([H])c([H])c([H])c(C2([H])C([H])([H])N(C([H])([H])C([H])([H])C([H])([H])C([H])([H])C([H])([H])C([H])([H])C([H])([H])C([H])([H])C([H])([H])[H])C([H])([H])C2([H])[H])c1[H]


 22 23  0  0  0  0  0  0  0  0999 V2000
   38.7753   14.0096  -13.6187 N   0  0  0  0  0  0  0  0  0  0  0  0
   39.7267   14.6356  -14.4958 C   0  0  0  0  0  0  0  0  0  0  0  0
   40.1671   13.5799  -15.4784 C   0  0  0  0  0  0  0  0  0  0  0  0
   39.2283   12.4339  -15.2369 C   0  0  0  0  0  0  0  0  0  0  0  0
   38.1023   13.0123  -14.4645 C   0  0  0  0  0  0  0  0  0  0  0  0
   38.7889   11.8004  -16.5117 C   0  0  0  0  0  0  0  0  0  0  0  0
   37.4850   11.3661  -16.6088 C   0  0  0  0  0  0  0  0  0  0  0  0
   37.0197   10.7684  -17.7849 C   0  0  0  0  0  0  0  0  0  0  0  0
   37.8917   10.6238  -18.8414 C   0  0  0  0  0  0  0  0  0  0  0  0
   39.1830   11.0633  -18.7208 C   0  0  0  0  0  0  0  0  0  0  0  0
   40.0419   10.9075  -19.7958 O   0  0  0  0  0  0  0  0  0  0  0  0
   39.6643   11.6617  -17.5550 C   0  0  0  0  0  0  0  0  0  0  0  0
   39.7359   10.4765  -20.6637 H   0  0  0  0  0  0  0  0  0  0  0  0
   37.8230   14.8930  -13.0321 C   0  0  0  0  0  0  0  0  0  0  0  0
   37.4073   14.5407  -11.6396 C   0  0  0  0  0  0  0  0  0  0  0  0
   35.9497   14.2900  -11.4785 C   0  0  0  0  0  0  0  0  0  0  0  0
   35.3180   13.4167  -12.5107 C   0  0  0  0  0  0  0  0  0  0  0  0
   34.0851   14.1039  -13.1510 C   0  0  0  0  0  0  0  0  0  0  0  0
   33.6341   13.3534  -14.3426 C   0  0  0  0  0  0  0  0  0  0  0  0
   34.3280   12.1238  -14.7393 C   0  0  0  0  0  0  0  0  0  0  0  0
   33.5201   11.0252  -16.7964 C   0  0  0  0  0  0  0  0  0  0  0  0
   33.5713   10.9814  -15.3107 C   0  0  0  0  0  0  0  0  0  0  0  0
 21 22  1  0  0  0
 22 20  1  0  0  0
 20 19  1  0  0  0
 19 18  1  0  0  0
 18 17  1  0  0  0
 17 16  1  0  0  0
 16 15  1  0  0  0
 15 14  1  0  0  0
 14  1  1  0  0  0
  1  2  1  0  0  0
  2  3  1  0  0  0
  3  4  1  0  0  0
  4  6  1  0  0  0
  6  7  2  0  0  0
  7  8  1  0  0  0
  8  9  2  0  0  0
  9 10  1  0  0  0
 10 11  1  0  0  0
 10 12  2  0  0  0
  4  5  1  0  0  0
  5  1  1  0  0  0
 12  6  1  0  0  0
 11 13  1  0  0  0
M  END
> <minimizedAffinity>
-6.96058

> <CNNscore>
0.6339489222

> <CNNaffinity>
6.4967751503

> <CNN_VS>
4.1186237335

> <CNNaffinity_variance>
0.0254291240

$$$$
[H]Oc1c([H])c([H])c([H])c(C2([H])C([H])([H])N(C([H])([H])C([H])([H])C([H])([H])C([H])([H])C([H])([H])C([H])([H])C([H])([H])C([H])([H])C([H])([H])[H])C([H])([H])C2([H])[H])c1[H]


 22 23  0  0  0  0  0  0  0  0999 V2000
   37.2294   14.7082  -12.8758 N   0  0  0  0  0  0  0  0  0  0  0  0
   36.7916   13.6852  -11.9659 C   0  0  0  0  0  0  0  0  0  0  0  0
   35.5907   13.0294  -12.5998 C   0  0  0  0  0  0  0  0  0  0  0  0
   35.5572   13.5853  -13.9936 C   0  0  0  0  0  0  0  0  0  0  0  0
   36.9005   14.1761  -14.2069 C   0  0  0  0  0  0  0  0  0  0  0  0
   35.2205   12.5386  -14.9988 C   0  0  0  0  0  0  0  0  0  0  0  0
   33.9190   12.0914  -15.0640 C   0  0  0  0  0  0  0  0  0  0  0  0
   33.5483   11.1131  -15.9927 C   0  0  0  0  0  0  0  0  0  0  0  0
   34.5108   10.6077  -16.8386 C   0  0  0  0  0  0  0  0  0  0  0  0
   35.7977   11.0679  -16.7547 C   0  0  0  0  0  0  0  0  0  0  0  0
   36.7486   10.5454  -17.6151 O   0  0  0  0  0  0  0  0  0  0  0  0
   36.1853   12.0434  -15.8342 C   0  0  0  0  0  0  0  0  0  0  0  0
   36.5126    9.8331  -18.3003 H   0  0  0  0  0  0  0  0  0  0  0  0
   38.6144   15.0349  -12.7956 C   0  0  0  0  0  0  0  0  0  0  0  0
   39.3707   14.9037  -14.0789 C   0  0  0  0  0  0  0  0  0  0  0  0
   40.7495   14.3659  -13.9272 C   0  0  0  0  0  0  0  0  0  0  0  0
   41.1591   13.3269  -14.9169 C   0  0  0  0  0  0  0  0  0  0  0  0
   39.9392   12.7943  -15.7109 C   0  0  0  0  0  0  0  0  0  0  0  0
   40.1897   12.8805  -17.1656 C   0  0  0  0  0  0  0  0  0  0  0  0
   40.8990   11.7957  -17.8519 C   0  0  0  0  0  0  0  0  0  0  0  0
   39.2855   11.5795  -19.7068 C   0  0  0  0  0  0  0  0  0  0  0  0
   40.1677   10.8639  -18.7468 C   0  0  0  0  0  0  0  0  0  0  0  0
 21 22  1  0  0  0
 22 20  1  0  0  0
 20 19  1  0  0  0
 19 18  1  0  0  0
 18 17  1  0  0  0
 17 16  1  0  0  0
 16 15  1  0  0  0
 15 14  1  0  0  0
 14  1  1  0  0  0
  1  2  1  0  0  0
  2  3  1  0  0  0
  3  4  1  0  0  0
  4  6  1  0  0  0
  6  7  2  0  0  0
  7  8  1  0  0  0
  8  9  2  0  0  0
  9 10  1  0  0  0
 10 11  1  0  0  0
 10 12  2  0  0  0
  4  5  1  0  0  0
  5  1  1  0  0  0
 12  6  1  0  0  0
 11 13  1  0  0  0
M  END
> <minimizedAffinity>
-6.89460

> <CNNscore>
0.3986922204

> <CNNaffinity>
6.2522511482

> <CNN_VS>
2.4927239418

> <CNNaffinity_variance>
0.0488951653

$$$$
[H]Oc1c([H])c([H])c([H])c(C2([H])C([H])([H])N(C([H])([H])C([H])([H])C([H])([H])C([H])([H])C([H])([H])C([H])([H])C([H])([H])C([H])([H])C([H])([H])[H])C([H])([H])C2([H])[H])c1[H]


 22 23  0  0  0  0  0  0  0  0999 V2000
   36.8411   14.7593  -12.4870 N   0  0  0  0  0  0  0  0  0  0  0  0
   37.0127   14.5163  -11.0807 C   0  0  0  0  0  0  0  0  0  0  0  0
   35.8822   15.2263  -10.3793 C   0  0  0  0  0  0  0  0  0  0  0  0
   34.9671   15.6536  -11.4897 C   0  0  0  0  0  0  0  0  0  0  0  0
   35.3842   14.8516  -12.6651 C   0  0  0  0  0  0  0  0  0  0  0  0
   33.5343   15.4542  -11.1335 C   0  0  0  0  0  0  0  0  0  0  0  0
   33.1032   15.8849   -9.8979 C   0  0  0  0  0  0  0  0  0  0  0  0
   31.7671   15.7259   -9.5151 C   0  0  0  0  0  0  0  0  0  0  0  0
   30.8938   15.1308  -10.3986 C   0  0  0  0  0  0  0  0  0  0  0  0
   31.3460   14.7109  -11.6211 C   0  0  0  0  0  0  0  0  0  0  0  0
   30.4502   14.1152  -12.4931 O   0  0  0  0  0  0  0  0  0  0  0  0
   32.6755   14.8613  -12.0194 C   0  0  0  0  0  0  0  0  0  0  0  0
   29.4734   13.9838  -12.2454 H   0  0  0  0  0  0  0  0  0  0  0  0
   37.3879   13.7597  -13.3434 C   0  0  0  0  0  0  0  0  0  0  0  0
   36.6618   12.4526  -13.3339 C   0  0  0  0  0  0  0  0  0  0  0  0
   35.8686   12.1815  -14.5631 C   0  0  0  0  0  0  0  0  0  0  0  0
   36.5857   12.3668  -15.8586 C   0  0  0  0  0  0  0  0  0  0  0  0
   35.9271   11.5372  -16.9900 C   0  0  0  0  0  0  0  0  0  0  0  0
   36.8469   10.4790  -17.4597 C   0  0  0  0  0  0  0  0  0  0  0  0
   38.0245   10.8341  -18.2584 C   0  0  0  0  0  0  0  0  0  0  0  0
   40.2806   11.8255  -18.3923 C   0  0  0  0  0  0  0  0  0  0  0  0
   39.3616   10.9451  -17.6227 C   0  0  0  0  0  0  0  0  0  0  0  0
 21 22  1  0  0  0
 22 20  1  0  0  0
 20 19  1  0  0  0
 19 18  1  0  0  0
 18 17  1  0  0  0
 17 16  1  0  0  0
 16 15  1  0  0  0
 15 14  1  0  0  0
 14  1  1  0  0  0
  1  2  1  0  0  0
  2  3  1  0  0  0
  3  4  1  0  0  0
  4  6  1  0  0  0
  6  7  2  0  0  0
  7  8  1  0  0  0
  8  9  2  0  0  0
  9 10  1  0  0  0
 10 11  1  0  0  0
 10 12  2  0  0  0
  4  5  1  0  0  0
  5  1  1  0  0  0
 12  6  1  0  0  0
 11 13  1  0  0  0
M  END
> <minimizedAffinity>
-6.39004

> <CNNscore>
0.3836017549

> <CNNaffinity>
5.6350679398

> <CNN_VS>
2.1616220474

> <CNNaffinity_variance>
0.1681797653

$$$$
[H]Oc1c([H])c([H])c([H])c(C2([H])C([H])([H])N(C([H])([H])C([H])([H])C([H])([H])C([H])([H])C([H])([H])C([H])([H])C([H])([H])C([H])([H])C([H])([H])[H])C([H])([H])C2([H])[H])c1[H]


 22 23  0  0  0  0  0  0  0  0999 V2000
   34.5760   14.0092  -13.3762 N   0  0  0  0  0  0  0  0  0  0  0  0
   35.4331   14.4136  -12.2954 C   0  0  0  0  0  0  0  0  0  0  0  0
   34.6531   15.4112  -11.4766 C   0  0  0  0  0  0  0  0  0  0  0  0
   33.2598   15.3363  -12.0298 C   0  0  0  0  0  0  0  0  0  0  0  0
   33.2204   14.0757  -12.8098 C   0  0  0  0  0  0  0  0  0  0  0  0
   32.2330   15.3803  -10.9512 C   0  0  0  0  0  0  0  0  0  0  0  0
   32.6029   15.8712   -9.7182 C   0  0  0  0  0  0  0  0  0  0  0  0
   31.6766   15.9386   -8.6720 C   0  0  0  0  0  0  0  0  0  0  0  0
   30.3895   15.5044   -8.9011 C   0  0  0  0  0  0  0  0  0  0  0  0
   30.0459   15.0204  -10.1351 C   0  0  0  0  0  0  0  0  0  0  0  0
   28.7464   14.5894  -10.3425 O   0  0  0  0  0  0  0  0  0  0  0  0
   30.9571   14.9458  -11.1902 C   0  0  0  0  0  0  0  0  0  0  0  0
   28.0497   14.6238   -9.6035 H   0  0  0  0  0  0  0  0  0  0  0  0
   34.8368   12.7092  -13.8992 C   0  0  0  0  0  0  0  0  0  0  0  0
   36.0933   12.5904  -14.7012 C   0  0  0  0  0  0  0  0  0  0  0  0
   37.2469   12.0198  -13.9547 C   0  0  0  0  0  0  0  0  0  0  0  0
   38.5839   12.6013  -14.2727 C   0  0  0  0  0  0  0  0  0  0  0  0
   39.2338   11.8879  -15.4854 C   0  0  0  0  0  0  0  0  0  0  0  0
   40.1058   12.8216  -16.2299 C   0  0  0  0  0  0  0  0  0  0  0  0
   40.2786   12.6651  -17.6779 C   0  0  0  0  0  0  0  0  0  0  0  0
   39.4939   11.1673  -19.4755 C   0  0  0  0  0  0  0  0  0  0  0  0
   40.3726   11.3134  -18.2846 C   0  0  0  0  0  0  0  0  0  0  0  0
 21 22  1  0  0  0
 22 20  1  0  0  0
 20 19  1  0  0  0
 19 18  1  0  0  0
 18 17  1  0  0  0
 17 16  1  0  0  0
 16 15  1  0  0  0
 15 14  1  0  0  0
 14  1  1  0  0  0
  1  2  1  0  0  0
  2  3  1  0  0  0
  3  4  1  0  0  0
  4  6  1  0  0  0
  6  7  2  0  0  0
  7  8  1  0  0  0
  8  9  2  0  0  0
  9 10  1  0  0  0
 10 11  1  0  0  0
 10 12  2  0  0  0
  4  5  1  0  0  0
  5  1  1  0  0  0
 12  6  1  0  0  0
 11 13  1  0  0  0
M  END
> <minimizedAffinity>
-6.00999

> <CNNscore>
0.3391725421

> <CNNaffinity>
5.3429083824

> <CNN_VS>
1.8121677637

> <CNNaffinity_variance>
0.1627181619

$$$$
[H]Oc1c([H])c([H])c([H])c(C2([H])C([H])([H])N(C([H])([H])C([H])([H])C([H])([H])C([H])([H])C([H])([H])C([H])([H])C([H])([H])C([H])([H])C([H])([H])[H])C([H])([H])C2([H])[H])c1[H]


 22 23  0  0  0  0  0  0  0  0999 V2000
   40.0297   12.2745  -16.4513 N   0  0  0  0  0  0  0  0  0  0  0  0
   39.5649   11.8054  -17.7281 C   0  0  0  0  0  0  0  0  0  0  0  0
   38.2890   11.0442  -17.4693 C   0  0  0  0  0  0  0  0  0  0  0  0
   37.9684   11.3356  -16.0323 C   0  0  0  0  0  0  0  0  0  0  0  0
   38.7995   12.5124  -15.6813 C   0  0  0  0  0  0  0  0  0  0  0  0
   36.5122   11.5754  -15.8279 C   0  0  0  0  0  0  0  0  0  0  0  0
   36.1167   12.2700  -14.7057 C   0  0  0  0  0  0  0  0  0  0  0  0
   34.7621   12.5263  -14.4681 C   0  0  0  0  0  0  0  0  0  0  0  0
   33.8345   12.0701  -15.3785 C   0  0  0  0  0  0  0  0  0  0  0  0
   34.2521   11.3819  -16.4862 C   0  0  0  0  0  0  0  0  0  0  0  0
   33.3019   10.9327  -17.3878 O   0  0  0  0  0  0  0  0  0  0  0  0
   35.5993   11.1170  -16.7391 C   0  0  0  0  0  0  0  0  0  0  0  0
   32.3101   11.1011  -17.2442 H   0  0  0  0  0  0  0  0  0  0  0  0
   40.8283   13.4543  -16.4961 C   0  0  0  0  0  0  0  0  0  0  0  0
   42.1612   13.3415  -15.8278 C   0  0  0  0  0  0  0  0  0  0  0  0
   42.1073   13.3689  -14.3412 C   0  0  0  0  0  0  0  0  0  0  0  0
   43.1521   14.1913  -13.6637 C   0  0  0  0  0  0  0  0  0  0  0  0
   44.4223   13.3543  -13.3670 C   0  0  0  0  0  0  0  0  0  0  0  0
   44.4863   13.0000  -11.9328 C   0  0  0  0  0  0  0  0  0  0  0  0
   43.7313   13.7847  -10.9505 C   0  0  0  0  0  0  0  0  0  0  0  0
   43.5194   16.1840  -10.4125 C   0  0  0  0  0  0  0  0  0  0  0  0
   44.3515   14.9580  -10.2849 C   0  0  0  0  0  0  0  0  0  0  0  0
 21 22  1  0  0  0
 22 20  1  0  0  0
 20 19  1  0  0  0
 19 18  1  0  0  0
 18 17  1  0  0  0
 17 16  1  0  0  0
 16 15  1  0  0  0
 15 14  1  0  0  0
 14  1  1  0  0  0
  1  2  1  0  0  0
  2  3  1  0  0  0
  3  4  1  0  0  0
  4  6  1  0  0  0
  6  7  2  0  0  0
  7  8  1  0  0  0
  8  9  2  0  0  0
  9 10  1  0  0  0
 10 11  1  0  0  0
 10 12  2  0  0  0
  4  5  1  0  0  0
  5  1  1  0  0  0
 12  6  1  0  0  0
 11 13  1  0  0  0
M  END
> <minimizedAffinity>
-5.98754

> <CNNscore>
0.3105334044

> <CNNaffinity>
5.9112806320

> <CNN_VS>
1.8356500864

> <CNNaffinity_variance>
0.0203311481

$$$$
[H]Oc1c([H])c([H])c([H])c(C2([H])C([H])([H])N(C([H])([H])C([H])([H])C([H])([H])C([H])([H])C([H])([H])C([H])([H])C([H])([H])C([H])([H])C([H])([H])[H])C([H])([H])C2([H])[H])c1[H]


 22 23  0  0  0  0  0  0  0  0999 V2000
   35.0630   12.6066  -13.7075 N   0  0  0  0  0  0  0  0  0  0  0  0
   34.3767   13.8551  -13.5163 C   0  0  0  0  0  0  0  0  0  0  0  0
   35.0396   14.5367  -12.3458 C   0  0  0  0  0  0  0  0  0  0  0  0
   36.2620   13.7079  -12.0778 C   0  0  0  0  0  0  0  0  0  0  0  0
   36.4476   12.8863  -13.2982 C   0  0  0  0  0  0  0  0  0  0  0  0
   37.4474   14.5549  -11.7661 C   0  0  0  0  0  0  0  0  0  0  0  0
   37.5478   15.0970  -10.5035 C   0  0  0  0  0  0  0  0  0  0  0  0
   38.6427   15.8960  -10.1571 C   0  0  0  0  0  0  0  0  0  0  0  0
   39.6159   16.1284  -11.1038 C   0  0  0  0  0  0  0  0  0  0  0  0
   39.4937   15.5786  -12.3521 C   0  0  0  0  0  0  0  0  0  0  0  0
   40.4842   15.8258  -13.2877 O   0  0  0  0  0  0  0  0  0  0  0  0
   38.4082   14.7793  -12.7149 C   0  0  0  0  0  0  0  0  0  0  0  0
   41.2916   16.4026  -13.0687 H   0  0  0  0  0  0  0  0  0  0  0  0
   35.0276   12.0960  -15.0378 C   0  0  0  0  0  0  0  0  0  0  0  0
   36.1514   12.5432  -15.9170 C   0  0  0  0  0  0  0  0  0  0  0  0
   36.9171   11.4341  -16.5473 C   0  0  0  0  0  0  0  0  0  0  0  0
   38.3894   11.4345  -16.3038 C   0  0  0  0  0  0  0  0  0  0  0  0
   39.1801   11.4092  -17.6365 C   0  0  0  0  0  0  0  0  0  0  0  0
   40.4659   12.1247  -17.4901 C   0  0  0  0  0  0  0  0  0  0  0  0
   40.5812   13.2360  -16.5401 C   0  0  0  0  0  0  0  0  0  0  0  0
   42.9342   12.6259  -16.1133 C   0  0  0  0  0  0  0  0  0  0  0  0
   41.7167   13.2977  -15.5857 C   0  0  0  0  0  0  0  0  0  0  0  0
 21 22  1  0  0  0
 22 20  1  0  0  0
 20 19  1  0  0  0
 19 18  1  0  0  0
 18 17  1  0  0  0
 17 16  1  0  0  0
 16 15  1  0  0  0
 15 14  1  0  0  0
 14  1  1  0  0  0
  1  2  1  0  0  0
  2  3  1  0  0  0
  3  4  1  0  0  0
  4  6  1  0  0  0
  6  7  2  0  0  0
  7  8  1  0  0  0
  8  9  2  0  0  0
  9 10  1  0  0  0
 10 11  1  0  0  0
 10 12  2  0  0  0
  4  5  1  0  0  0
  5  1  1  0  0  0
 12  6  1  0  0  0
 11 13  1  0  0  0
M  END
> <minimizedAffinity>
-6.60630

> <CNNscore>
0.2898106277

> <CNNaffinity>
5.6755905151

> <CNN_VS>
1.6448464394

> <CNNaffinity_variance>
0.2345263213

$$$$
[H]Oc1c([H])c([H])c([H])c(C2([H])C([H])([H])N(C([H])([H])C([H])([H])C([H])([H])C([H])([H])C([H])([H])C([H])([H])C([H])([H])C([H])([H])C([H])([H])[H])C([H])([H])C2([H])[H])c1[H]


 22 23  0  0  0  0  0  0  0  0999 V2000
   39.9021   12.4798  -16.1967 N   0  0  0  0  0  0  0  0  0  0  0  0
   39.5025   11.9544  -17.4736 C   0  0  0  0  0  0  0  0  0  0  0  0
   38.2569   11.1389  -17.2336 C   0  0  0  0  0  0  0  0  0  0  0  0
   37.8755   11.4528  -15.8163 C   0  0  0  0  0  0  0  0  0  0  0  0
   38.6373   12.6779  -15.4729 C   0  0  0  0  0  0  0  0  0  0  0  0
   36.4037   11.6266  -15.6648 C   0  0  0  0  0  0  0  0  0  0  0  0
   35.9340   12.2526  -14.5310 C   0  0  0  0  0  0  0  0  0  0  0  0
   34.5614   12.4452  -14.3412 C   0  0  0  0  0  0  0  0  0  0  0  0
   33.6917   11.9964  -15.3105 C   0  0  0  0  0  0  0  0  0  0  0  0
   34.1826   11.3770  -16.4288 C   0  0  0  0  0  0  0  0  0  0  0  0
   33.2897   10.9339  -17.3900 O   0  0  0  0  0  0  0  0  0  0  0  0
   35.5487   11.1763  -16.6345 C   0  0  0  0  0  0  0  0  0  0  0  0
   32.2868   11.0571  -17.2822 H   0  0  0  0  0  0  0  0  0  0  0  0
   40.6443   13.6955  -16.2497 C   0  0  0  0  0  0  0  0  0  0  0  0
   41.9834   13.6485  -15.5861 C   0  0  0  0  0  0  0  0  0  0  0  0
   41.9314   13.4805  -14.1087 C   0  0  0  0  0  0  0  0  0  0  0  0
   43.0148   14.1548  -13.3351 C   0  0  0  0  0  0  0  0  0  0  0  0
   44.2543   14.4288  -14.2244 C   0  0  0  0  0  0  0  0  0  0  0  0
   45.2137   13.3070  -14.1363 C   0  0  0  0  0  0  0  0  0  0  0  0
   45.6903   12.6535  -15.3597 C   0  0  0  0  0  0  0  0  0  0  0  0
   44.7429   11.9882  -17.5393 C   0  0  0  0  0  0  0  0  0  0  0  0
   44.8263   11.6883  -16.0850 C   0  0  0  0  0  0  0  0  0  0  0  0
 21 22  1  0  0  0
 22 20  1  0  0  0
 20 19  1  0  0  0
 19 18  1  0  0  0
 18 17  1  0  0  0
 17 16  1  0  0  0
 16 15  1  0  0  0
 15 14  1  0  0  0
 14  1  1  0  0  0
  1  2  1  0  0  0
  2  3  1  0  0  0
  3  4  1  0  0  0
  4  6  1  0  0  0
  6  7  2  0  0  0
  7  8  1  0  0  0
  8  9  2  0  0  0
  9 10  1  0  0  0
 10 11  1  0  0  0
 10 12  2  0  0  0
  4  5  1  0  0  0
  5  1  1  0  0  0
 12  6  1  0  0  0
 11 13  1  0  0  0
M  END
> <minimizedAffinity>
-6.15106

> <CNNscore>
0.2818095088

> <CNNaffinity>
5.8326687813

> <CNN_VS>
1.6437015533

> <CNNaffinity_variance>
0.1836800128

$$$$
[H]Oc1c([H])c([H])c([H])c(C2([H])C([H])([H])N(C([H])([H])C([H])([H])C([H])([H])C([H])([H])C([H])([H])C([H])([H])C([H])([H])C([H])([H])C([H])([H])[H])C([H])([H])C2([H])[H])c1[H]


 22 23  0  0  0  0  0  0  0  0999 V2000
   40.3811   12.2830  -16.4544 N   0  0  0  0  0  0  0  0  0  0  0  0
   39.9839   11.9575  -17.7969 C   0  0  0  0  0  0  0  0  0  0  0  0
   38.7144   11.1510  -17.6875 C   0  0  0  0  0  0  0  0  0  0  0  0
   38.3236   11.2689  -16.2431 C   0  0  0  0  0  0  0  0  0  0  0  0
   39.1129   12.4104  -15.7206 C   0  0  0  0  0  0  0  0  0  0  0  0
   36.8550   11.4600  -16.0810 C   0  0  0  0  0  0  0  0  0  0  0  0
   36.0124   10.8163  -16.9607 C   0  0  0  0  0  0  0  0  0  0  0  0
   34.6250   10.9582  -16.8502 C   0  0  0  0  0  0  0  0  0  0  0  0
   34.1209   11.7537  -15.8451 C   0  0  0  0  0  0  0  0  0  0  0  0
   34.9786   12.3834  -14.9830 C   0  0  0  0  0  0  0  0  0  0  0  0
   34.4493   13.1782  -13.9802 O   0  0  0  0  0  0  0  0  0  0  0  0
   36.3653   12.2532  -15.0786 C   0  0  0  0  0  0  0  0  0  0  0  0
   33.4465   13.3032  -13.8733 H   0  0  0  0  0  0  0  0  0  0  0  0
   41.1555   13.4727  -16.3257 C   0  0  0  0  0  0  0  0  0  0  0  0
   42.3540   13.3545  -15.4394 C   0  0  0  0  0  0  0  0  0  0  0  0
   42.0922   13.6633  -14.0078 C   0  0  0  0  0  0  0  0  0  0  0  0
   43.2757   13.6115  -13.1003 C   0  0  0  0  0  0  0  0  0  0  0  0
   44.5441   13.1402  -13.8562 C   0  0  0  0  0  0  0  0  0  0  0  0
   45.7394   13.2727  -12.9959 C   0  0  0  0  0  0  0  0  0  0  0  0
   46.5467   12.0906  -12.6772 C   0  0  0  0  0  0  0  0  0  0  0  0
   46.6423    9.8158  -11.7247 C   0  0  0  0  0  0  0  0  0  0  0  0
   46.1873   11.2184  -11.5308 C   0  0  0  0  0  0  0  0  0  0  0  0
 21 22  1  0  0  0
 22 20  1  0  0  0
 20 19  1  0  0  0
 19 18  1  0  0  0
 18 17  1  0  0  0
 17 16  1  0  0  0
 16 15  1  0  0  0
 15 14  1  0  0  0
 14  1  1  0  0  0
  1  2  1  0  0  0
  2  3  1  0  0  0
  3  4  1  0  0  0
  4  6  1  0  0  0
  6  7  2  0  0  0
  7  8  1  0  0  0
  8  9  2  0  0  0
  9 10  1  0  0  0
 10 11  1  0  0  0
 10 12  2  0  0  0
  4  5  1  0  0  0
  5  1  1  0  0  0
 12  6  1  0  0  0
 11 13  1  0  0  0
M  END
> <minimizedAffinity>
-6.11575

> <CNNscore>
0.2691266537

> <CNNaffinity>
5.6467628479

> <CNN_VS>
1.5196944475

> <CNNaffinity_variance>
0.0953607112

$$$$
[H]Oc1c([H])c([H])c([H])c(C2([H])C([H])([H])N(C([H])([H])C([H])([H])C([H])([H])C([H])([H])C([H])([H])C([H])([H])C([H])([H])C([H])([H])C([H])([H])[H])C([H])([H])C2([H])[H])c1[H]


 22 23  0  0  0  0  0  0  0  0999 V2000
   40.3005   12.2514  -16.5240 N   0  0  0  0  0  0  0  0  0  0  0  0
   39.8972   11.9262  -17.8648 C   0  0  0  0  0  0  0  0  0  0  0  0
   38.6332   11.1117  -17.7494 C   0  0  0  0  0  0  0  0  0  0  0  0
   38.2505   11.2243  -16.3024 C   0  0  0  0  0  0  0  0  0  0  0  0
   39.0360   12.3695  -15.7823 C   0  0  0  0  0  0  0  0  0  0  0  0
   36.7818   11.4062  -16.1311 C   0  0  0  0  0  0  0  0  0  0  0  0
   35.9376   10.7530  -17.0021 C   0  0  0  0  0  0  0  0  0  0  0  0
   34.5501   10.8860  -16.8827 C   0  0  0  0  0  0  0  0  0  0  0  0
   34.0475   11.6824  -15.8776 C   0  0  0  0  0  0  0  0  0  0  0  0
   34.9068   12.3217  -15.0242 C   0  0  0  0  0  0  0  0  0  0  0  0
   34.3790   13.1173  -14.0212 O   0  0  0  0  0  0  0  0  0  0  0  0
   36.2936   12.2005  -15.1287 C   0  0  0  0  0  0  0  0  0  0  0  0
   33.3761   13.2359  -13.9079 H   0  0  0  0  0  0  0  0  0  0  0  0
   41.0685   13.4454  -16.3976 C   0  0  0  0  0  0  0  0  0  0  0  0
   42.3362   13.3025  -15.6175 C   0  0  0  0  0  0  0  0  0  0  0  0
   42.1881   13.5389  -14.1561 C   0  0  0  0  0  0  0  0  0  0  0  0
   43.4574   13.6379  -13.3775 C   0  0  0  0  0  0  0  0  0  0  0  0
   44.6860   13.2970  -14.2587 C   0  0  0  0  0  0  0  0  0  0  0  0
   45.8118   14.2054  -13.9522 C   0  0  0  0  0  0  0  0  0  0  0  0
   45.5672   15.4544  -13.2235 C   0  0  0  0  0  0  0  0  0  0  0  0
   44.5072   17.6818  -13.2983 C   0  0  0  0  0  0  0  0  0  0  0  0
   45.4584   16.7436  -13.9517 C   0  0  0  0  0  0  0  0  0  0  0  0
 21 22  1  0  0  0
 22 20  1  0  0  0
 20 19  1  0  0  0
 19 18  1  0  0  0
 18 17  1  0  0  0
 17 16  1  0  0  0
 16 15  1  0  0  0
 15 14  1  0  0  0
 14  1  1  0  0  0
  1  2  1  0  0  0
  2  3  1  0  0  0
  3  4  1  0  0  0
  4  6  1  0  0  0
  6  7  2  0  0  0
  7  8  1  0  0  0
  8  9  2  0  0  0
  9 10  1  0  0  0
 10 11  1  0  0  0
 10 12  2  0  0  0
  4  5  1  0  0  0
  5  1  1  0  0  0
 12  6  1  0  0  0
 11 13  1  0  0  0
M  END
> <minimizedAffinity>
-6.08608

> <CNNscore>
0.2685239911

> <CNNaffinity>
5.6770071983

> <CNN_VS>
1.5244126320

> <CNNaffinity_variance>
0.1165967137

$$$$
[H]OC(=O)/C([H])=C(\[H])c1c([H])c([H])c(Oc2c(-c3c([H])c([H])c(OC(F)(F)F)c([H])c3C([H])([H])[H])c(=O)oc3c([H])c(OC([H])([H])C([H])([H])[H])c([H])c([H])c23)c([H])c1[H]


 39 42  0  0  0  0  0  0  0  0999 V2000
   41.1399   12.4742  -16.2689 C   0  0  0  0  0  0  0  0  0  0  0  0
   40.1011   11.5758  -16.2644 C   0  0  0  0  0  0  0  0  0  0  0  0
   39.0387   11.8019  -15.4169 C   0  0  0  0  0  0  0  0  0  0  0  0
   38.9876   12.8970  -14.5776 C   0  0  0  0  0  0  0  0  0  0  0  0
   37.9062   13.1371  -13.7126 C   0  0  0  0  0  0  0  0  0  0  0  0
   38.0033   14.2775  -12.9419 C   0  0  0  0  0  0  0  0  0  0  0  0
   39.0853   15.1541  -12.9918 C   0  0  0  0  0  0  0  0  0  0  0  0
   39.1251   16.1909  -12.2605 O   0  0  0  0  0  0  0  0  0  0  0  0
   40.0541   14.8772  -13.8112 O   0  0  0  0  0  0  0  0  0  0  0  0
   40.0217   13.8000  -14.5774 C   0  0  0  0  0  0  0  0  0  0  0  0
   41.0914   13.5649  -15.4356 C   0  0  0  0  0  0  0  0  0  0  0  0
   36.9594   14.6151  -11.9966 C   0  0  0  0  0  0  0  0  0  0  0  0
   37.1965   14.4758  -10.6613 C   0  0  0  0  0  0  0  0  0  0  0  0
   36.2304   14.7897   -9.7393 C   0  0  0  0  0  0  0  0  0  0  0  0
   35.0113   15.2496  -10.1742 C   0  0  0  0  0  0  0  0  0  0  0  0
   34.7693   15.3914  -11.5288 C   0  0  0  0  0  0  0  0  0  0  0  0
   35.7460   15.0729  -12.4349 C   0  0  0  0  0  0  0  0  0  0  0  0
   35.4112   15.2481  -13.8719 C   0  0  0  0  0  0  0  0  0  0  0  0
   34.0256   15.5700   -9.2333 O   0  0  0  0  0  0  0  0  0  0  0  0
   34.3122   16.4372   -8.1417 C   0  0  0  0  0  0  0  0  0  0  0  0
   33.1229   16.8007   -7.5600 F   0  0  0  0  0  0  0  0  0  0  0  0
   35.1073   15.7743   -7.2252 F   0  0  0  0  0  0  0  0  0  0  0  0
   35.0117   17.5612   -8.5546 F   0  0  0  0  0  0  0  0  0  0  0  0
   42.2082   12.2605  -17.1104 O   0  0  0  0  0  0  0  0  0  0  0  0
   44.4409   11.4757  -16.7533 C   0  0  0  0  0  0  0  0  0  0  0  0
   43.5267   12.6781  -16.8145 C   0  0  0  0  0  0  0  0  0  0  0  0
   36.8943   12.2526  -13.7124 O   0  0  0  0  0  0  0  0  0  0  0  0
   35.9423   11.8666  -14.5823 C   0  0  0  0  0  0  0  0  0  0  0  0
   36.1352   11.4751  -15.8807 C   0  0  0  0  0  0  0  0  0  0  0  0
   35.1029   11.0895  -16.7353 C   0  0  0  0  0  0  0  0  0  0  0  0
   33.7865   11.0872  -16.2844 C   0  0  0  0  0  0  0  0  0  0  0  0
   33.5656   11.4759  -14.9841 C   0  0  0  0  0  0  0  0  0  0  0  0
   34.6000   11.8521  -14.1603 C   0  0  0  0  0  0  0  0  0  0  0  0
   32.7274   10.6820  -17.1921 C   0  0  0  0  0  0  0  0  0  0  0  0
   32.9016    9.8878  -18.2287 C   0  0  0  0  0  0  0  0  0  0  0  0
   31.7409    9.5509  -19.0758 C   0  0  0  0  0  0  0  0  0  0  0  0
   31.4662   10.2055  -20.1049 O   0  0  0  0  0  0  0  0  0  0  0  0
   30.9217    8.4904  -18.7456 O   0  0  0  0  0  0  0  0  0  0  0  0
   30.8679    7.6312  -19.3047 H   0  0  0  0  0  0  0  0  0  0  0  0
 25 26  1  0  0  0
 26 24  1  0  0  0
 24  1  1  0  0  0
  1  2  2  0  0  0
  2  3  1  0  0  0
  3  4  2  0  0  0
  4  5  1  0  0  0
  5 27  1  0  0  0
 27 28  1  0  0  0
 28 29  2  0  0  0
 29 30  1  0  0  0
 30 31  2  0  0  0
 31 34  1  0  0  0
 34 35  2  0  0  0
 35 36  1  0  0  0
 36 37  2  0  0  0
 36 38  1  0  0  0
 31 32  1  0  0  0
 32 33  2  0  0  0
  5  6  2  0  0  0
  6 12  1  0  0  0
 12 13  2  0  0  0
 13 14  1  0  0  0
 14 15  2  0  0  0
 15 19  1  0  0  0
 19 20  1  0  0  0
 20 21  1  0  0  0
 20 22  1  0  0  0
 20 23  1  0  0  0
 15 16  1  0  0  0
 16 17  2  0  0  0
 17 18  1  0  0  0
  6  7  1  0  0  0
  7  8  2  0  0  0
  7  9  1  0  0  0
  9 10  1  0  0  0
 10 11  2  0  0  0
 11  1  1  0  0  0
 10  4  1  0  0  0
 33 28  1  0  0  0
 17 12  1  0  0  0
 38 39  1  0  0  0
M  END
> <minimizedAffinity>
-6.26084

> <CNNscore>
0.3219089210

> <CNNaffinity>
7.0492782593

> <CNN_VS>
2.2692255974

> <CNNaffinity_variance>
0.2277245522

$$$$
[H]OC(=O)/C([H])=C(\[H])c1c([H])c([H])c(Oc2c(-c3c([H])c([H])c(OC(F)(F)F)c([H])c3C([H])([H])[H])c(=O)oc3c([H])c(OC([H])([H])C([H])([H])[H])c([H])c([H])c23)c([H])c1[H]


 39 42  0  0  0  0  0  0  0  0999 V2000
   46.5771   10.1677  -11.4135 C   0  0  0  0  0  0  0  0  0  0  0  0
   46.2278   11.4041  -11.8988 C   0  0  0  0  0  0  0  0  0  0  0  0
   45.7197   12.3365  -11.0211 C   0  0  0  0  0  0  0  0  0  0  0  0
   45.5518   12.0667   -9.6774 C   0  0  0  0  0  0  0  0  0  0  0  0
   45.0376   13.0131   -8.7746 C   0  0  0  0  0  0  0  0  0  0  0  0
   44.9365   12.5913   -7.4647 C   0  0  0  0  0  0  0  0  0  0  0  0
   45.3094   11.3206   -7.0310 C   0  0  0  0  0  0  0  0  0  0  0  0
   45.1961   10.9826   -5.8128 O   0  0  0  0  0  0  0  0  0  0  0  0
   45.7774   10.4907   -7.9136 O   0  0  0  0  0  0  0  0  0  0  0  0
   45.8998   10.8334   -9.1848 C   0  0  0  0  0  0  0  0  0  0  0  0
   46.4120    9.8967  -10.0773 C   0  0  0  0  0  0  0  0  0  0  0  0
   44.3982   13.4728   -6.4496 C   0  0  0  0  0  0  0  0  0  0  0  0
   45.2216   14.3735   -5.8418 C   0  0  0  0  0  0  0  0  0  0  0  0
   44.7430   15.2250   -4.8786 C   0  0  0  0  0  0  0  0  0  0  0  0
   43.4165   15.1637   -4.5272 C   0  0  0  0  0  0  0  0  0  0  0  0
   42.5800   14.2503   -5.1430 C   0  0  0  0  0  0  0  0  0  0  0  0
   43.0755   13.4078   -6.1026 C   0  0  0  0  0  0  0  0  0  0  0  0
   42.1175   12.4522   -6.7163 C   0  0  0  0  0  0  0  0  0  0  0  0
   42.9283   16.0328   -3.5444 O   0  0  0  0  0  0  0  0  0  0  0  0
   42.3975   17.3064   -3.8938 C   0  0  0  0  0  0  0  0  0  0  0  0
   42.3477   17.3884   -5.2634 F   0  0  0  0  0  0  0  0  0  0  0  0
   41.1276   17.4359   -3.3627 F   0  0  0  0  0  0  0  0  0  0  0  0
   43.1662   18.3378   -3.3755 F   0  0  0  0  0  0  0  0  0  0  0  0
   47.0857    9.2262  -12.2796 O   0  0  0  0  0  0  0  0  0  0  0  0
   45.5225    7.6194  -13.1179 C   0  0  0  0  0  0  0  0  0  0  0  0
   46.7284    7.8582  -12.2381 C   0  0  0  0  0  0  0  0  0  0  0  0
   44.6962   14.2201   -9.2571 O   0  0  0  0  0  0  0  0  0  0  0  0
   43.5476   14.8725   -9.5160 C   0  0  0  0  0  0  0  0  0  0  0  0
   42.7924   15.5804   -8.6188 C   0  0  0  0  0  0  0  0  0  0  0  0
   41.6052   16.2329   -8.9497 C   0  0  0  0  0  0  0  0  0  0  0  0
   41.1236   16.1884  -10.2545 C   0  0  0  0  0  0  0  0  0  0  0  0
   41.8634   15.4842  -11.1750 C   0  0  0  0  0  0  0  0  0  0  0  0
   43.0313   14.8488  -10.8248 C   0  0  0  0  0  0  0  0  0  0  0  0
   39.8848   16.8751  -10.5762 C   0  0  0  0  0  0  0  0  0  0  0  0
   38.7767   16.7769   -9.8705 C   0  0  0  0  0  0  0  0  0  0  0  0
   37.5824   17.5277  -10.3044 C   0  0  0  0  0  0  0  0  0  0  0  0
   36.5300   16.9468  -10.6482 O   0  0  0  0  0  0  0  0  0  0  0  0
   37.6016   18.9071  -10.3405 O   0  0  0  0  0  0  0  0  0  0  0  0
   37.0457   19.4901   -9.7042 H   0  0  0  0  0  0  0  0  0  0  0  0
 25 26  1  0  0  0
 26 24  1  0  0  0
 24  1  1  0  0  0
  1  2  2  0  0  0
  2  3  1  0  0  0
  3  4  2  0  0  0
  4  5  1  0  0  0
  5 27  1  0  0  0
 27 28  1  0  0  0
 28 29  2  0  0  0
 29 30  1  0  0  0
 30 31  2  0  0  0
 31 34  1  0  0  0
 34 35  2  0  0  0
 35 36  1  0  0  0
 36 37  2  0  0  0
 36 38  1  0  0  0
 31 32  1  0  0  0
 32 33  2  0  0  0
  5  6  2  0  0  0
  6 12  1  0  0  0
 12 13  2  0  0  0
 13 14  1  0  0  0
 14 15  2  0  0  0
 15 19  1  0  0  0
 19 20  1  0  0  0
 20 21  1  0  0  0
 20 22  1  0  0  0
 20 23  1  0  0  0
 15 16  1  0  0  0
 16 17  2  0  0  0
 17 18  1  0  0  0
  6  7  1  0  0  0
  7  8  2  0  0  0
  7  9  1  0  0  0
  9 10  1  0  0  0
 10 11  2  0  0  0
 11  1  1  0  0  0
 10  4  1  0  0  0
 33 28  1  0  0  0
 17 12  1  0  0  0
 38 39  1  0  0  0
M  END
> <minimizedAffinity>
-4.63589

> <CNNscore>
0.1330559999

> <CNNaffinity>
5.4694395065

> <CNN_VS>
0.7277417183

> <CNNaffinity_variance>
0.4400661886

$$$$
[H]OC(=O)/C([H])=C(\[H])c1c([H])c([H])c(Oc2c(-c3c([H])c([H])c(OC(F)(F)F)c([H])c3C([H])([H])[H])c(=O)oc3c([H])c(OC([H])([H])C([H])([H])[H])c([H])c([H])c23)c([H])c1[H]


 39 42  0  0  0  0  0  0  0  0999 V2000
   34.1638   15.4090  -11.1047 C   0  0  0  0  0  0  0  0  0  0  0  0
   35.3277   14.7989  -11.5038 C   0  0  0  0  0  0  0  0  0  0  0  0
   36.4259   14.8695  -10.6750 C   0  0  0  0  0  0  0  0  0  0  0  0
   36.3917   15.5312   -9.4636 C   0  0  0  0  0  0  0  0  0  0  0  0
   37.5062   15.6051   -8.6105 C   0  0  0  0  0  0  0  0  0  0  0  0
   37.3089   16.2978   -7.4336 C   0  0  0  0  0  0  0  0  0  0  0  0
   36.1005   16.8962   -7.0823 C   0  0  0  0  0  0  0  0  0  0  0  0
   35.9719   17.5225   -5.9858 O   0  0  0  0  0  0  0  0  0  0  0  0
   35.1076   16.7933   -7.9131 O   0  0  0  0  0  0  0  0  0  0  0  0
   35.2315   16.1425   -9.0575 C   0  0  0  0  0  0  0  0  0  0  0  0
   34.1265   16.0672   -9.8999 C   0  0  0  0  0  0  0  0  0  0  0  0
   38.3930   16.4598   -6.4872 C   0  0  0  0  0  0  0  0  0  0  0  0
   39.1126   17.6177   -6.4871 C   0  0  0  0  0  0  0  0  0  0  0  0
   40.1437   17.8045   -5.6017 C   0  0  0  0  0  0  0  0  0  0  0  0
   40.4494   16.8080   -4.7071 C   0  0  0  0  0  0  0  0  0  0  0  0
   39.7202   15.6326   -4.7061 C   0  0  0  0  0  0  0  0  0  0  0  0
   38.6940   15.4637   -5.5976 C   0  0  0  0  0  0  0  0  0  0  0  0
   37.9590   14.1737   -5.5385 C   0  0  0  0  0  0  0  0  0  0  0  0
   41.5015   16.9988   -3.8037 O   0  0  0  0  0  0  0  0  0  0  0  0
   42.8284   16.6034   -4.1336 C   0  0  0  0  0  0  0  0  0  0  0  0
   43.6902   17.5653   -3.6679 F   0  0  0  0  0  0  0  0  0  0  0  0
   43.1064   15.3868   -3.5385 F   0  0  0  0  0  0  0  0  0  0  0  0
   42.9844   16.4362   -5.5015 F   0  0  0  0  0  0  0  0  0  0  0  0
   33.0587   15.3467  -11.9233 O   0  0  0  0  0  0  0  0  0  0  0  0
   30.8959   14.4463  -11.4336 C   0  0  0  0  0  0  0  0  0  0  0  0
   31.7545   15.6889  -11.4961 C   0  0  0  0  0  0  0  0  0  0  0  0
   38.6421   15.0073   -9.0087 O   0  0  0  0  0  0  0  0  0  0  0  0
   39.7965   15.3991   -9.5797 C   0  0  0  0  0  0  0  0  0  0  0  0
   39.9600   15.8446  -10.8647 C   0  0  0  0  0  0  0  0  0  0  0  0
   41.1877   16.2332  -11.3998 C   0  0  0  0  0  0  0  0  0  0  0  0
   42.3382   16.1816  -10.6188 C   0  0  0  0  0  0  0  0  0  0  0  0
   42.2012   15.7380   -9.3245 C   0  0  0  0  0  0  0  0  0  0  0  0
   40.9797   15.3601   -8.8192 C   0  0  0  0  0  0  0  0  0  0  0  0
   43.6061   16.5910  -11.1971 C   0  0  0  0  0  0  0  0  0  0  0  0
   43.7753   16.9111  -12.4639 C   0  0  0  0  0  0  0  0  0  0  0  0
   45.1178   17.3116  -12.9281 C   0  0  0  0  0  0  0  0  0  0  0  0
   46.1434   17.0798  -12.2518 O   0  0  0  0  0  0  0  0  0  0  0  0
   45.2725   17.9601  -14.1366 O   0  0  0  0  0  0  0  0  0  0  0  0
   45.7358   17.5303  -14.9455 H   0  0  0  0  0  0  0  0  0  0  0  0
 25 26  1  0  0  0
 26 24  1  0  0  0
 24  1  1  0  0  0
  1  2  2  0  0  0
  2  3  1  0  0  0
  3  4  2  0  0  0
  4  5  1  0  0  0
  5 27  1  0  0  0
 27 28  1  0  0  0
 28 29  2  0  0  0
 29 30  1  0  0  0
 30 31  2  0  0  0
 31 34  1  0  0  0
 34 35  2  0  0  0
 35 36  1  0  0  0
 36 37  2  0  0  0
 36 38  1  0  0  0
 31 32  1  0  0  0
 32 33  2  0  0  0
  5  6  2  0  0  0
  6 12  1  0  0  0
 12 13  2  0  0  0
 13 14  1  0  0  0
 14 15  2  0  0  0
 15 19  1  0  0  0
 19 20  1  0  0  0
 20 21  1  0  0  0
 20 22  1  0  0  0
 20 23  1  0  0  0
 15 16  1  0  0  0
 16 17  2  0  0  0
 17 18  1  0  0  0
  6  7  1  0  0  0
  7  8  2  0  0  0
  7  9  1  0  0  0
  9 10  1  0  0  0
 10 11  2  0  0  0
 11  1  1  0  0  0
 10  4  1  0  0  0
 33 28  1  0  0  0
 17 12  1  0  0  0
 38 39  1  0  0  0
M  END
> <minimizedAffinity>
-5.73582

> <CNNscore>
0.1075991094

> <CNNaffinity>
5.8321304321

> <CNN_VS>
0.6275320649

> <CNNaffinity_variance>
0.3717697859

$$$$
[H]OC(=O)/C([H])=C(\[H])c1c([H])c([H])c(Oc2c(-c3c([H])c([H])c(OC(F)(F)F)c([H])c3C([H])([H])[H])c(=O)oc3c([H])c(OC([H])([H])C([H])([H])[H])c([H])c([H])c23)c([H])c1[H]


 39 42  0  0  0  0  0  0  0  0999 V2000
   42.2215   11.3557   -5.8405 C   0  0  0  0  0  0  0  0  0  0  0  0
   42.5962   11.8371   -7.0710 C   0  0  0  0  0  0  0  0  0  0  0  0
   41.9638   12.9594   -7.5594 C   0  0  0  0  0  0  0  0  0  0  0  0
   40.9712   13.6100   -6.8538 C   0  0  0  0  0  0  0  0  0  0  0  0
   40.3235   14.7574   -7.3429 C   0  0  0  0  0  0  0  0  0  0  0  0
   39.3577   15.2929   -6.5157 C   0  0  0  0  0  0  0  0  0  0  0  0
   39.0214   14.7587   -5.2734 C   0  0  0  0  0  0  0  0  0  0  0  0
   38.1241   15.2910   -4.5504 O   0  0  0  0  0  0  0  0  0  0  0  0
   39.6555   13.6968   -4.8771 O   0  0  0  0  0  0  0  0  0  0  0  0
   40.5921   13.1353   -5.6226 C   0  0  0  0  0  0  0  0  0  0  0  0
   41.2350   12.0011   -5.1360 C   0  0  0  0  0  0  0  0  0  0  0  0
   38.6074   16.4619   -6.9249 C   0  0  0  0  0  0  0  0  0  0  0  0
   38.9469   17.6832   -6.4232 C   0  0  0  0  0  0  0  0  0  0  0  0
   38.2587   18.8110   -6.7926 C   0  0  0  0  0  0  0  0  0  0  0  0
   37.2156   18.7008   -7.6796 C   0  0  0  0  0  0  0  0  0  0  0  0
   36.8700   17.4622   -8.1894 C   0  0  0  0  0  0  0  0  0  0  0  0
   37.5685   16.3470   -7.8090 C   0  0  0  0  0  0  0  0  0  0  0  0
   37.1368   15.0521   -8.3960 C   0  0  0  0  0  0  0  0  0  0  0  0
   36.5136   19.8516   -8.0565 O   0  0  0  0  0  0  0  0  0  0  0  0
   35.4291   20.3356   -7.2719 C   0  0  0  0  0  0  0  0  0  0  0  0
   34.8697   21.4043   -7.9275 F   0  0  0  0  0  0  0  0  0  0  0  0
   34.4926   19.3309   -7.1137 F   0  0  0  0  0  0  0  0  0  0  0  0
   35.8463   20.7111   -6.0037 F   0  0  0  0  0  0  0  0  0  0  0  0
   42.8447   10.2346   -5.3405 O   0  0  0  0  0  0  0  0  0  0  0  0
   44.3531   11.4885   -3.9690 C   0  0  0  0  0  0  0  0  0  0  0  0
   44.1547   10.2461   -4.8071 C   0  0  0  0  0  0  0  0  0  0  0  0
   40.6942   15.2214   -8.5485 O   0  0  0  0  0  0  0  0  0  0  0  0
   41.8190   15.7235   -9.0914 C   0  0  0  0  0  0  0  0  0  0  0  0
   42.8480   16.3292   -8.4200 C   0  0  0  0  0  0  0  0  0  0  0  0
   43.9888   16.8343   -9.0430 C   0  0  0  0  0  0  0  0  0  0  0  0
   44.1314   16.7384  -10.4238 C   0  0  0  0  0  0  0  0  0  0  0  0
   43.1123   16.1340  -11.1216 C   0  0  0  0  0  0  0  0  0  0  0  0
   41.9968   15.6436  -10.4850 C   0  0  0  0  0  0  0  0  0  0  0  0
   45.3279   17.2715  -11.0513 C   0  0  0  0  0  0  0  0  0  0  0  0
   45.3299   18.2462  -11.9377 C   0  0  0  0  0  0  0  0  0  0  0  0
   46.6166   18.6983  -12.5021 C   0  0  0  0  0  0  0  0  0  0  0  0
   46.8970   18.5380  -13.7099 O   0  0  0  0  0  0  0  0  0  0  0  0
   47.5516   19.3168  -11.6972 O   0  0  0  0  0  0  0  0  0  0  0  0
   47.8030   20.3074  -11.7932 H   0  0  0  0  0  0  0  0  0  0  0  0
 25 26  1  0  0  0
 26 24  1  0  0  0
 24  1  1  0  0  0
  1  2  2  0  0  0
  2  3  1  0  0  0
  3  4  2  0  0  0
  4  5  1  0  0  0
  5 27  1  0  0  0
 27 28  1  0  0  0
 28 29  2  0  0  0
 29 30  1  0  0  0
 30 31  2  0  0  0
 31 34  1  0  0  0
 34 35  2  0  0  0
 35 36  1  0  0  0
 36 37  2  0  0  0
 36 38  1  0  0  0
 31 32  1  0  0  0
 32 33  2  0  0  0
  5  6  2  0  0  0
  6 12  1  0  0  0
 12 13  2  0  0  0
 13 14  1  0  0  0
 14 15  2  0  0  0
 15 19  1  0  0  0
 19 20  1  0  0  0
 20 21  1  0  0  0
 20 22  1  0  0  0
 20 23  1  0  0  0
 15 16  1  0  0  0
 16 17  2  0  0  0
 17 18  1  0  0  0
  6  7  1  0  0  0
  7  8  2  0  0  0
  7  9  1  0  0  0
  9 10  1  0  0  0
 10 11  2  0  0  0
 11  1  1  0  0  0
 10  4  1  0  0  0
 33 28  1  0  0  0
 17 12  1  0  0  0
 38 39  1  0  0  0
M  END
> <minimizedAffinity>
-5.72149

> <CNNscore>
0.0845760554

> <CNNaffinity>
5.3707752228

> <CNN_VS>
0.4542389810

> <CNNaffinity_variance>
0.2854069173

$$$$
[H]OC(=O)/C([H])=C(\[H])c1c([H])c([H])c(Oc2c(-c3c([H])c([H])c(OC(F)(F)F)c([H])c3C([H])([H])[H])c(=O)oc3c([H])c(OC([H])([H])C([H])([H])[H])c([H])c([H])c23)c([H])c1[H]


 39 42  0  0  0  0  0  0  0  0999 V2000
   33.5797   15.9610   -9.5111 C   0  0  0  0  0  0  0  0  0  0  0  0
   34.8658   15.5219   -9.3121 C   0  0  0  0  0  0  0  0  0  0  0  0
   35.4904   14.8317  -10.3278 C   0  0  0  0  0  0  0  0  0  0  0  0
   34.8663   14.5698  -11.5312 C   0  0  0  0  0  0  0  0  0  0  0  0
   35.4973   13.8697  -12.5737 C   0  0  0  0  0  0  0  0  0  0  0  0
   34.7414   13.6941  -13.7147 C   0  0  0  0  0  0  0  0  0  0  0  0
   33.4380   14.1653  -13.8582 C   0  0  0  0  0  0  0  0  0  0  0  0
   32.7856   13.9768  -14.9307 O   0  0  0  0  0  0  0  0  0  0  0  0
   32.9097   14.8047  -12.8588 O   0  0  0  0  0  0  0  0  0  0  0  0
   33.5812   15.0066  -11.7378 C   0  0  0  0  0  0  0  0  0  0  0  0
   32.9566   15.7026  -10.7074 C   0  0  0  0  0  0  0  0  0  0  0  0
   35.2787   12.9669  -14.8459 C   0  0  0  0  0  0  0  0  0  0  0  0
   36.2082   13.5648  -15.6442 C   0  0  0  0  0  0  0  0  0  0  0  0
   36.7396   12.9029  -16.7219 C   0  0  0  0  0  0  0  0  0  0  0  0
   36.3253   11.6218  -16.9940 C   0  0  0  0  0  0  0  0  0  0  0  0
   35.3822   11.0139  -16.1849 C   0  0  0  0  0  0  0  0  0  0  0  0
   34.8625   11.6904  -15.1132 C   0  0  0  0  0  0  0  0  0  0  0  0
   33.8522   10.9736  -14.2928 C   0  0  0  0  0  0  0  0  0  0  0  0
   36.8676   10.9464  -18.0936 O   0  0  0  0  0  0  0  0  0  0  0  0
   38.2741   10.7685  -18.2206 C   0  0  0  0  0  0  0  0  0  0  0  0
   38.6984    9.9638  -17.1924 F   0  0  0  0  0  0  0  0  0  0  0  0
   38.5537   10.1738  -19.4370 F   0  0  0  0  0  0  0  0  0  0  0  0
   38.9451   11.9819  -18.1931 F   0  0  0  0  0  0  0  0  0  0  0  0
   32.9433   16.6516   -8.5045 O   0  0  0  0  0  0  0  0  0  0  0  0
   30.7053   15.8515   -8.2226 C   0  0  0  0  0  0  0  0  0  0  0  0
   32.0609   16.0430   -7.5816 C   0  0  0  0  0  0  0  0  0  0  0  0
   36.7550   13.4414  -12.3710 O   0  0  0  0  0  0  0  0  0  0  0  0
   37.9014   13.4283  -13.0764 C   0  0  0  0  0  0  0  0  0  0  0  0
   38.3819   12.3913  -13.8315 C   0  0  0  0  0  0  0  0  0  0  0  0
   39.5832   12.4386  -14.5380 C   0  0  0  0  0  0  0  0  0  0  0  0
   40.3704   13.5856  -14.5019 C   0  0  0  0  0  0  0  0  0  0  0  0
   39.9103   14.6416  -13.7511 C   0  0  0  0  0  0  0  0  0  0  0  0
   38.7222   14.5712  -13.0628 C   0  0  0  0  0  0  0  0  0  0  0  0
   41.6179   13.6123  -15.2453 C   0  0  0  0  0  0  0  0  0  0  0  0
   42.7663   13.1597  -14.7848 C   0  0  0  0  0  0  0  0  0  0  0  0
   43.9650   13.2448  -15.6416 C   0  0  0  0  0  0  0  0  0  0  0  0
   44.0124   14.0067  -16.6318 O   0  0  0  0  0  0  0  0  0  0  0  0
   45.0758   12.4741  -15.3644 O   0  0  0  0  0  0  0  0  0  0  0  0
   45.9657   12.8725  -15.0432 H   0  0  0  0  0  0  0  0  0  0  0  0
 25 26  1  0  0  0
 26 24  1  0  0  0
 24  1  1  0  0  0
  1  2  2  0  0  0
  2  3  1  0  0  0
  3  4  2  0  0  0
  4  5  1  0  0  0
  5 27  1  0  0  0
 27 28  1  0  0  0
 28 29  2  0  0  0
 29 30  1  0  0  0
 30 31  2  0  0  0
 31 34  1  0  0  0
 34 35  2  0  0  0
 35 36  1  0  0  0
 36 37  2  0  0  0
 36 38  1  0  0  0
 31 32  1  0  0  0
 32 33  2  0  0  0
  5  6  2  0  0  0
  6 12  1  0  0  0
 12 13  2  0  0  0
 13 14  1  0  0  0
 14 15  2  0  0  0
 15 19  1  0  0  0
 19 20  1  0  0  0
 20 21  1  0  0  0
 20 22  1  0  0  0
 20 23  1  0  0  0
 15 16  1  0  0  0
 16 17  2  0  0  0
 17 18  1  0  0  0
  6  7  1  0  0  0
  7  8  2  0  0  0
  7  9  1  0  0  0
  9 10  1  0  0  0
 10 11  2  0  0  0
 11  1  1  0  0  0
 10  4  1  0  0  0
 33 28  1  0  0  0
 17 12  1  0  0  0
 38 39  1  0  0  0
M  END
> <minimizedAffinity>
-5.79997

> <CNNscore>
0.0739394799

> <CNNaffinity>
6.5070633888

> <CNN_VS>
0.4811288714

> <CNNaffinity_variance>
0.1987099499

$$$$
[H]OC(=O)/C([H])=C(\[H])c1c([H])c([H])c(Oc2c(-c3c([H])c([H])c(OC(F)(F)F)c([H])c3C([H])([H])[H])c(=O)oc3c([H])c(OC([H])([H])C([H])([H])[H])c([H])c([H])c23)c([H])c1[H]


 39 42  0  0  0  0  0  0  0  0999 V2000
   43.2888   15.3334  -10.0670 C   0  0  0  0  0  0  0  0  0  0  0  0
   42.2687   16.0779  -10.6067 C   0  0  0  0  0  0  0  0  0  0  0  0
   41.0390   16.0575   -9.9859 C   0  0  0  0  0  0  0  0  0  0  0  0
   40.8030   15.3158   -8.8455 C   0  0  0  0  0  0  0  0  0  0  0  0
   39.5528   15.2922   -8.2039 C   0  0  0  0  0  0  0  0  0  0  0  0
   39.4803   14.5062   -7.0721 C   0  0  0  0  0  0  0  0  0  0  0  0
   40.5535   13.7724   -6.5708 C   0  0  0  0  0  0  0  0  0  0  0  0
   40.4335   13.0644   -5.5241 O   0  0  0  0  0  0  0  0  0  0  0  0
   41.6830   13.8350   -7.2088 O   0  0  0  0  0  0  0  0  0  0  0  0
   41.8183   14.5701   -8.2996 C   0  0  0  0  0  0  0  0  0  0  0  0
   43.0573   14.5952   -8.9322 C   0  0  0  0  0  0  0  0  0  0  0  0
   38.2360   14.3859   -6.3410 C   0  0  0  0  0  0  0  0  0  0  0  0
   37.3310   13.4370   -6.7138 C   0  0  0  0  0  0  0  0  0  0  0  0
   36.1442   13.2945   -6.0406 C   0  0  0  0  0  0  0  0  0  0  0  0
   35.8711   14.1218   -4.9786 C   0  0  0  0  0  0  0  0  0  0  0  0
   36.7884   15.0851   -4.5993 C   0  0  0  0  0  0  0  0  0  0  0  0
   37.9683   15.2129   -5.2834 C   0  0  0  0  0  0  0  0  0  0  0  0
   38.9016   16.2720   -4.8197 C   0  0  0  0  0  0  0  0  0  0  0  0
   34.6601   13.9762   -4.2917 O   0  0  0  0  0  0  0  0  0  0  0  0
   33.5309   14.7762   -4.6244 C   0  0  0  0  0  0  0  0  0  0  0  0
   32.5139   13.9405   -5.0144 F   0  0  0  0  0  0  0  0  0  0  0  0
   33.1460   15.5100   -3.5176 F   0  0  0  0  0  0  0  0  0  0  0  0
   33.8271   15.6804   -5.6334 F   0  0  0  0  0  0  0  0  0  0  0  0
   44.5228   15.3441  -10.6773 O   0  0  0  0  0  0  0  0  0  0  0  0
   45.3992   17.0857  -12.0655 C   0  0  0  0  0  0  0  0  0  0  0  0
   44.7217   15.7350  -12.0221 C   0  0  0  0  0  0  0  0  0  0  0  0
   38.5589   16.0216   -8.7389 O   0  0  0  0  0  0  0  0  0  0  0  0
   37.6914   16.9516   -8.2976 C   0  0  0  0  0  0  0  0  0  0  0  0
   38.0077   18.1726   -7.7633 C   0  0  0  0  0  0  0  0  0  0  0  0
   37.0591   19.0932   -7.3189 C   0  0  0  0  0  0  0  0  0  0  0  0
   35.7026   18.7953   -7.4047 C   0  0  0  0  0  0  0  0  0  0  0  0
   35.3582   17.5755   -7.9378 C   0  0  0  0  0  0  0  0  0  0  0  0
   36.3118   16.6841   -8.3693 C   0  0  0  0  0  0  0  0  0  0  0  0
   34.7323   19.7691   -6.9355 C   0  0  0  0  0  0  0  0  0  0  0  0
   33.8282   19.5286   -6.0079 C   0  0  0  0  0  0  0  0  0  0  0  0
   32.8974   20.6058   -5.6187 C   0  0  0  0  0  0  0  0  0  0  0  0
   33.2848   21.7839   -5.4605 O   0  0  0  0  0  0  0  0  0  0  0  0
   31.5596   20.3321   -5.4182 O   0  0  0  0  0  0  0  0  0  0  0  0
   30.8192   20.6822   -6.0370 H   0  0  0  0  0  0  0  0  0  0  0  0
 25 26  1  0  0  0
 26 24  1  0  0  0
 24  1  1  0  0  0
  1  2  2  0  0  0
  2  3  1  0  0  0
  3  4  2  0  0  0
  4  5  1  0  0  0
  5 27  1  0  0  0
 27 28  1  0  0  0
 28 29  2  0  0  0
 29 30  1  0  0  0
 30 31  2  0  0  0
 31 34  1  0  0  0
 34 35  2  0  0  0
 35 36  1  0  0  0
 36 37  2  0  0  0
 36 38  1  0  0  0
 31 32  1  0  0  0
 32 33  2  0  0  0
  5  6  2  0  0  0
  6 12  1  0  0  0
 12 13  2  0  0  0
 13 14  1  0  0  0
 14 15  2  0  0  0
 15 19  1  0  0  0
 19 20  1  0  0  0
 20 21  1  0  0  0
 20 22  1  0  0  0
 20 23  1  0  0  0
 15 16  1  0  0  0
 16 17  2  0  0  0
 17 18  1  0  0  0
  6  7  1  0  0  0
  7  8  2  0  0  0
  7  9  1  0  0  0
  9 10  1  0  0  0
 10 11  2  0  0  0
 11  1  1  0  0  0
 10  4  1  0  0  0
 33 28  1  0  0  0
 17 12  1  0  0  0
 38 39  1  0  0  0
M  END
> <minimizedAffinity>
-6.05208

> <CNNscore>
0.0697882995

> <CNNaffinity>
5.5169997215

> <CNN_VS>
0.3850220144

> <CNNaffinity_variance>
0.2032909095

$$$$
[H]OC(=O)/C([H])=C(\[H])c1c([H])c([H])c(Oc2c(-c3c([H])c([H])c(OC(F)(F)F)c([H])c3C([H])([H])[H])c(=O)oc3c([H])c(OC([H])([H])C([H])([H])[H])c([H])c([H])c23)c([H])c1[H]


 39 42  0  0  0  0  0  0  0  0999 V2000
   37.4435   16.5854   -8.7985 C   0  0  0  0  0  0  0  0  0  0  0  0
   38.4715   17.0335   -9.5914 C   0  0  0  0  0  0  0  0  0  0  0  0
   38.6785   16.4226  -10.8088 C   0  0  0  0  0  0  0  0  0  0  0  0
   37.8889   15.3804  -11.2523 C   0  0  0  0  0  0  0  0  0  0  0  0
   38.0908   14.7540  -12.4941 C   0  0  0  0  0  0  0  0  0  0  0  0
   37.2138   13.7319  -12.7939 C   0  0  0  0  0  0  0  0  0  0  0  0
   36.1862   13.3219  -11.9467 C   0  0  0  0  0  0  0  0  0  0  0  0
   35.4058   12.3748  -12.2710 O   0  0  0  0  0  0  0  0  0  0  0  0
   36.0512   13.9398  -10.8124 O   0  0  0  0  0  0  0  0  0  0  0  0
   36.8587   14.9279  -10.4657 C   0  0  0  0  0  0  0  0  0  0  0  0
   36.6559   15.5494   -9.2374 C   0  0  0  0  0  0  0  0  0  0  0  0
   37.3397   12.9978  -14.0358 C   0  0  0  0  0  0  0  0  0  0  0  0
   38.2942   12.0307  -14.1466 C   0  0  0  0  0  0  0  0  0  0  0  0
   38.4380   11.3147  -15.3079 C   0  0  0  0  0  0  0  0  0  0  0  0
   37.6064   11.5809  -16.3683 C   0  0  0  0  0  0  0  0  0  0  0  0
   36.6375   12.5619  -16.2573 C   0  0  0  0  0  0  0  0  0  0  0  0
   36.5086   13.2669  -15.0899 C   0  0  0  0  0  0  0  0  0  0  0  0
   35.4480   14.3065  -15.0473 C   0  0  0  0  0  0  0  0  0  0  0  0
   37.7533   10.8502  -17.5532 O   0  0  0  0  0  0  0  0  0  0  0  0
   38.9233   10.9825  -18.3528 C   0  0  0  0  0  0  0  0  0  0  0  0
   38.5855   10.7076  -19.6548 F   0  0  0  0  0  0  0  0  0  0  0  0
   39.4069   12.2736  -18.2489 F   0  0  0  0  0  0  0  0  0  0  0  0
   39.9311   10.1312  -17.9249 F   0  0  0  0  0  0  0  0  0  0  0  0
   37.2256   17.1864   -7.5793 O   0  0  0  0  0  0  0  0  0  0  0  0
   38.4548   15.9283   -5.9562 C   0  0  0  0  0  0  0  0  0  0  0  0
   37.1034   16.4660   -6.3682 C   0  0  0  0  0  0  0  0  0  0  0  0
   39.0999   15.1966  -13.2636 O   0  0  0  0  0  0  0  0  0  0  0  0
   40.3956   14.8784  -13.4428 C   0  0  0  0  0  0  0  0  0  0  0  0
   41.4607   15.3695  -12.7352 C   0  0  0  0  0  0  0  0  0  0  0  0
   42.7848   15.0020  -12.9730 C   0  0  0  0  0  0  0  0  0  0  0  0
   43.0864   14.0867  -13.9769 C   0  0  0  0  0  0  0  0  0  0  0  0
   42.0346   13.5782  -14.7021 C   0  0  0  0  0  0  0  0  0  0  0  0
   40.7371   13.9560  -14.4491 C   0  0  0  0  0  0  0  0  0  0  0  0
   44.4725   13.7188  -14.2071 C   0  0  0  0  0  0  0  0  0  0  0  0
   44.9156   13.1460  -15.3076 C   0  0  0  0  0  0  0  0  0  0  0  0
   46.3511   12.8216  -15.4182 C   0  0  0  0  0  0  0  0  0  0  0  0
   46.9717   12.2610  -14.4888 O   0  0  0  0  0  0  0  0  0  0  0  0
   47.0498   13.1346  -16.5665 O   0  0  0  0  0  0  0  0  0  0  0  0
   47.4144   12.4226  -17.2098 H   0  0  0  0  0  0  0  0  0  0  0  0
 25 26  1  0  0  0
 26 24  1  0  0  0
 24  1  1  0  0  0
  1  2  2  0  0  0
  2  3  1  0  0  0
  3  4  2  0  0  0
  4  5  1  0  0  0
  5 27  1  0  0  0
 27 28  1  0  0  0
 28 29  2  0  0  0
 29 30  1  0  0  0
 30 31  2  0  0  0
 31 34  1  0  0  0
 34 35  2  0  0  0
 35 36  1  0  0  0
 36 37  2  0  0  0
 36 38  1  0  0  0
 31 32  1  0  0  0
 32 33  2  0  0  0
  5  6  2  0  0  0
  6 12  1  0  0  0
 12 13  2  0  0  0
 13 14  1  0  0  0
 14 15  2  0  0  0
 15 19  1  0  0  0
 19 20  1  0  0  0
 20 21  1  0  0  0
 20 22  1  0  0  0
 20 23  1  0  0  0
 15 16  1  0  0  0
 16 17  2  0  0  0
 17 18  1  0  0  0
  6  7  1  0  0  0
  7  8  2  0  0  0
  7  9  1  0  0  0
  9 10  1  0  0  0
 10 11  2  0  0  0
 11  1  1  0  0  0
 10  4  1  0  0  0
 33 28  1  0  0  0
 17 12  1  0  0  0
 38 39  1  0  0  0
M  END
> <minimizedAffinity>
-9.03334

> <CNNscore>
0.0653786063

> <CNNaffinity>
6.5351080894

> <CNN_VS>
0.4272562563

> <CNNaffinity_variance>
0.2560928464

$$$$
[H]OC(=O)/C([H])=C(\[H])c1c([H])c([H])c(Oc2c(-c3c([H])c([H])c(OC(F)(F)F)c([H])c3C([H])([H])[H])c(=O)oc3c([H])c(OC([H])([H])C([H])([H])[H])c([H])c([H])c23)c([H])c1[H]


 39 42  0  0  0  0  0  0  0  0999 V2000
   46.0377   12.8866  -15.6090 C   0  0  0  0  0  0  0  0  0  0  0  0
   45.8917   13.2471  -14.2918 C   0  0  0  0  0  0  0  0  0  0  0  0
   44.6232   13.4903  -13.8124 C   0  0  0  0  0  0  0  0  0  0  0  0
   43.5021   13.3836  -14.6112 C   0  0  0  0  0  0  0  0  0  0  0  0
   42.2043   13.6264  -14.1294 C   0  0  0  0  0  0  0  0  0  0  0  0
   41.1895   13.4722  -15.0515 C   0  0  0  0  0  0  0  0  0  0  0  0
   41.4004   13.1021  -16.3782 C   0  0  0  0  0  0  0  0  0  0  0  0
   40.4302   12.9738  -17.1867 O   0  0  0  0  0  0  0  0  0  0  0  0
   42.6228   12.8921  -16.7632 O   0  0  0  0  0  0  0  0  0  0  0  0
   43.6400   13.0226  -15.9286 C   0  0  0  0  0  0  0  0  0  0  0  0
   44.9242   12.7789  -16.4058 C   0  0  0  0  0  0  0  0  0  0  0  0
   39.8129   13.7188  -14.6754 C   0  0  0  0  0  0  0  0  0  0  0  0
   39.4578   14.9494  -14.2085 C   0  0  0  0  0  0  0  0  0  0  0  0
   38.1620   15.2170  -13.8465 C   0  0  0  0  0  0  0  0  0  0  0  0
   37.2156   14.2277  -13.9585 C   0  0  0  0  0  0  0  0  0  0  0  0
   37.5744   12.9785  -14.4320 C   0  0  0  0  0  0  0  0  0  0  0  0
   38.8734   12.7295  -14.7886 C   0  0  0  0  0  0  0  0  0  0  0  0
   39.1831   11.3637  -15.2849 C   0  0  0  0  0  0  0  0  0  0  0  0
   35.8933   14.5009  -13.5892 O   0  0  0  0  0  0  0  0  0  0  0  0
   35.3398   13.9536  -12.3976 C   0  0  0  0  0  0  0  0  0  0  0  0
   34.7363   12.7617  -12.7139 F   0  0  0  0  0  0  0  0  0  0  0  0
   36.3489   13.7462  -11.4756 F   0  0  0  0  0  0  0  0  0  0  0  0
   34.4250   14.8193  -11.8170 F   0  0  0  0  0  0  0  0  0  0  0  0
   47.2995   12.6410  -16.1015 O   0  0  0  0  0  0  0  0  0  0  0  0
   49.3634   12.3977  -14.9144 C   0  0  0  0  0  0  0  0  0  0  0  0
   48.4520   13.3381  -15.6695 C   0  0  0  0  0  0  0  0  0  0  0  0
   42.0696   13.9806  -12.8400 O   0  0  0  0  0  0  0  0  0  0  0  0
   42.6906   14.8251  -11.9954 C   0  0  0  0  0  0  0  0  0  0  0  0
   43.0526   16.1200  -12.2574 C   0  0  0  0  0  0  0  0  0  0  0  0
   43.6999   16.9448  -11.3380 C   0  0  0  0  0  0  0  0  0  0  0  0
   44.0150   16.4657  -10.0701 C   0  0  0  0  0  0  0  0  0  0  0  0
   43.6621   15.1684   -9.7815 C   0  0  0  0  0  0  0  0  0  0  0  0
   43.0242   14.3742  -10.7049 C   0  0  0  0  0  0  0  0  0  0  0  0
   44.6895   17.3424   -9.1288 C   0  0  0  0  0  0  0  0  0  0  0  0
   44.5365   17.2864   -7.8215 C   0  0  0  0  0  0  0  0  0  0  0  0
   45.2811   18.2363   -6.9720 C   0  0  0  0  0  0  0  0  0  0  0  0
   45.7184   17.9090   -5.8474 O   0  0  0  0  0  0  0  0  0  0  0  0
   45.5143   19.5252   -7.4069 O   0  0  0  0  0  0  0  0  0  0  0  0
   46.4501   19.8734   -7.6448 H   0  0  0  0  0  0  0  0  0  0  0  0
 25 26  1  0  0  0
 26 24  1  0  0  0
 24  1  1  0  0  0
  1  2  2  0  0  0
  2  3  1  0  0  0
  3  4  2  0  0  0
  4  5  1  0  0  0
  5 27  1  0  0  0
 27 28  1  0  0  0
 28 29  2  0  0  0
 29 30  1  0  0  0
 30 31  2  0  0  0
 31 34  1  0  0  0
 34 35  2  0  0  0
 35 36  1  0  0  0
 36 37  2  0  0  0
 36 38  1  0  0  0
 31 32  1  0  0  0
 32 33  2  0  0  0
  5  6  2  0  0  0
  6 12  1  0  0  0
 12 13  2  0  0  0
 13 14  1  0  0  0
 14 15  2  0  0  0
 15 19  1  0  0  0
 19 20  1  0  0  0
 20 21  1  0  0  0
 20 22  1  0  0  0
 20 23  1  0  0  0
 15 16  1  0  0  0
 16 17  2  0  0  0
 17 18  1  0  0  0
  6  7  1  0  0  0
  7  8  2  0  0  0
  7  9  1  0  0  0
  9 10  1  0  0  0
 10 11  2  0  0  0
 11  1  1  0  0  0
 10  4  1  0  0  0
 33 28  1  0  0  0
 17 12  1  0  0  0
 38 39  1  0  0  0
M  END
> <minimizedAffinity>
-7.16793

> <CNNscore>
0.0588356443

> <CNNaffinity>
6.1166448593

> <CNN_VS>
0.3598767519

> <CNNaffinity_variance>
0.1410275996

$$$$
[H]OC(=O)/C([H])=C(\[H])c1c([H])c([H])c(Oc2c(-c3c([H])c([H])c(OC(F)(F)F)c([H])c3C([H])([H])[H])c(=O)oc3c([H])c(OC([H])([H])C([H])([H])[H])c([H])c([H])c23)c([H])c1[H]


 39 42  0  0  0  0  0  0  0  0999 V2000
   35.2339   13.0726  -14.4215 C   0  0  0  0  0  0  0  0  0  0  0  0
   35.2958   13.3366  -13.0752 C   0  0  0  0  0  0  0  0  0  0  0  0
   36.5074   13.7023  -12.5309 C   0  0  0  0  0  0  0  0  0  0  0  0
   37.6535   13.8102  -13.2932 C   0  0  0  0  0  0  0  0  0  0  0  0
   38.8926   14.1860  -12.7467 C   0  0  0  0  0  0  0  0  0  0  0  0
   39.9410   14.2531  -13.6413 C   0  0  0  0  0  0  0  0  0  0  0  0
   39.8159   13.9740  -15.0008 C   0  0  0  0  0  0  0  0  0  0  0  0
   40.8135   14.0511  -15.7819 O   0  0  0  0  0  0  0  0  0  0  0  0
   38.6446   13.6316  -15.4453 O   0  0  0  0  0  0  0  0  0  0  0  0
   37.5992   13.5490  -14.6399 C   0  0  0  0  0  0  0  0  0  0  0  0
   36.3722   13.1798  -15.1825 C   0  0  0  0  0  0  0  0  0  0  0  0
   41.2702   14.6069  -13.1885 C   0  0  0  0  0  0  0  0  0  0  0  0
   42.2483   13.6572  -13.1806 C   0  0  0  0  0  0  0  0  0  0  0  0
   43.5187   13.9599  -12.7607 C   0  0  0  0  0  0  0  0  0  0  0  0
   43.8016   15.2380  -12.3444 C   0  0  0  0  0  0  0  0  0  0  0  0
   42.8103   16.2026  -12.3519 C   0  0  0  0  0  0  0  0  0  0  0  0
   41.5473   15.8820  -12.7744 C   0  0  0  0  0  0  0  0  0  0  0  0
   40.5354   16.9697  -12.7509 C   0  0  0  0  0  0  0  0  0  0  0  0
   45.0980   15.5468  -11.9161 O   0  0  0  0  0  0  0  0  0  0  0  0
   46.2184   15.3371  -12.7685 C   0  0  0  0  0  0  0  0  0  0  0  0
   45.8299   15.5998  -14.0588 F   0  0  0  0  0  0  0  0  0  0  0  0
   47.2432   16.1878  -12.3974 F   0  0  0  0  0  0  0  0  0  0  0  0
   46.7022   14.0416  -12.6637 F   0  0  0  0  0  0  0  0  0  0  0  0
   34.0297   12.7056  -14.9787 O   0  0  0  0  0  0  0  0  0  0  0  0
   33.6384   10.9973  -16.6086 C   0  0  0  0  0  0  0  0  0  0  0  0
   33.6262   11.3597  -15.1411 C   0  0  0  0  0  0  0  0  0  0  0  0
   38.9457   14.4409  -11.4282 O   0  0  0  0  0  0  0  0  0  0  0  0
   38.6633   15.4872  -10.6297 C   0  0  0  0  0  0  0  0  0  0  0  0
   37.7065   16.4431  -10.8469 C   0  0  0  0  0  0  0  0  0  0  0  0
   37.4649   17.5086   -9.9804 C   0  0  0  0  0  0  0  0  0  0  0  0
   38.2153   17.6469   -8.8167 C   0  0  0  0  0  0  0  0  0  0  0  0
   39.1825   16.7000   -8.5749 C   0  0  0  0  0  0  0  0  0  0  0  0
   39.4023   15.6581   -9.4445 C   0  0  0  0  0  0  0  0  0  0  0  0
   37.9464   18.7646   -7.9289 C   0  0  0  0  0  0  0  0  0  0  0  0
   37.3165   19.8641   -8.2895 C   0  0  0  0  0  0  0  0  0  0  0  0
   37.1057   20.9293   -7.2898 C   0  0  0  0  0  0  0  0  0  0  0  0
   36.9931   22.1294   -7.6219 O   0  0  0  0  0  0  0  0  0  0  0  0
   37.0270   20.6193   -5.9473 O   0  0  0  0  0  0  0  0  0  0  0  0
   36.1619   20.7119   -5.4026 H   0  0  0  0  0  0  0  0  0  0  0  0
 25 26  1  0  0  0
 26 24  1  0  0  0
 24  1  1  0  0  0
  1  2  2  0  0  0
  2  3  1  0  0  0
  3  4  2  0  0  0
  4  5  1  0  0  0
  5 27  1  0  0  0
 27 28  1  0  0  0
 28 29  2  0  0  0
 29 30  1  0  0  0
 30 31  2  0  0  0
 31 34  1  0  0  0
 34 35  2  0  0  0
 35 36  1  0  0  0
 36 37  2  0  0  0
 36 38  1  0  0  0
 31 32  1  0  0  0
 32 33  2  0  0  0
  5  6  2  0  0  0
  6 12  1  0  0  0
 12 13  2  0  0  0
 13 14  1  0  0  0
 14 15  2  0  0  0
 15 19  1  0  0  0
 19 20  1  0  0  0
 20 21  1  0  0  0
 20 22  1  0  0  0
 20 23  1  0  0  0
 15 16  1  0  0  0
 16 17  2  0  0  0
 17 18  1  0  0  0
  6  7  1  0  0  0
  7  8  2  0  0  0
  7  9  1  0  0  0
  9 10  1  0  0  0
 10 11  2  0  0  0
 11  1  1  0  0  0
 10  4  1  0  0  0
 33 28  1  0  0  0
 17 12  1  0  0  0
 38 39  1  0  0  0
M  END
> <minimizedAffinity>
-5.41536

> <CNNscore>
0.0516106747

> <CNNaffinity>
6.1218366623

> <CNN_VS>
0.3159521222

> <CNNaffinity_variance>
0.1594857872

$$$$
[H]N=C(c1c([H])c([H])c([H])c(Oc2c([H])c([H])c(N([H])[H])c([H])c2C(=O)N([H])c2c([H])c([H])c(-c3c([H])c([H])c([H])c([H])c3S(=O)(=O)N([H])[H])c([H])c2[H])c1[H])N([H])[H]


 44 47  0  0  0  0  0  0  0  0999 V2000
   38.4051   12.9681  -14.1237 C   0  0  0  0  0  0  0  0  0  0  0  0
   38.5344   11.9020  -15.0498 C   0  0  0  0  0  0  0  0  0  0  0  0
   39.4343   11.9866  -16.0779 C   0  0  0  0  0  0  0  0  0  0  0  0
   40.1955   13.1239  -16.1809 C   0  0  0  0  0  0  0  0  0  0  0  0
   41.1097   13.1943  -17.2606 N   0  0  0  0  0  0  0  0  0  0  0  0
   40.0737   14.1518  -15.2807 C   0  0  0  0  0  0  0  0  0  0  0  0
   39.1431   14.0838  -14.1905 C   0  0  0  0  0  0  0  0  0  0  0  0
   42.0784   13.4995  -17.1256 H   0  0  0  0  0  0  0  0  0  0  0  0
   40.7489   12.9306  -18.1916 H   0  0  0  0  0  0  0  0  0  0  0  0
   39.4038   15.0683  -13.1053 C   0  0  0  0  0  0  0  0  0  0  0  0
   40.4300   15.8051  -13.4182 O   0  0  0  0  0  0  0  0  0  0  0  0
   38.7719   15.2688  -11.9674 N   0  0  0  0  0  0  0  0  0  0  0  0
   39.3837   16.5156  -11.8809 H   0  0  0  0  0  0  0  0  0  0  0  0
   38.1100   15.4788  -10.7755 C   0  0  0  0  0  0  0  0  0  0  0  0
   36.9724   14.6974  -10.4655 C   0  0  0  0  0  0  0  0  0  0  0  0
   36.2247   14.9201   -9.3317 C   0  0  0  0  0  0  0  0  0  0  0  0
   36.5529   15.9158   -8.4473 C   0  0  0  0  0  0  0  0  0  0  0  0
   37.6535   16.6859   -8.7199 C   0  0  0  0  0  0  0  0  0  0  0  0
   38.4130   16.4712   -9.8573 C   0  0  0  0  0  0  0  0  0  0  0  0
   35.7624   16.2117   -7.2742 C   0  0  0  0  0  0  0  0  0  0  0  0
   34.8097   17.2131   -7.2798 C   0  0  0  0  0  0  0  0  0  0  0  0
   34.0796   17.5266   -6.1618 C   0  0  0  0  0  0  0  0  0  0  0  0
   34.3016   16.8235   -4.9978 C   0  0  0  0  0  0  0  0  0  0  0  0
   35.2396   15.8279   -4.9729 C   0  0  0  0  0  0  0  0  0  0  0  0
   35.9756   15.5141   -6.1106 C   0  0  0  0  0  0  0  0  0  0  0  0
   37.1106   14.2324   -6.0067 S   0  0  0  0  0  0  0  0  0  0  0  0
   37.2377   13.7318   -4.3309 N   0  0  0  0  0  0  0  0  0  0  0  0
   38.5033   14.7516   -6.3230 O   0  0  0  0  0  0  0  0  0  0  0  0
   36.7721   13.0258   -6.8332 O   0  0  0  0  0  0  0  0  0  0  0  0
   37.7393   14.4483   -3.7649 H   0  0  0  0  0  0  0  0  0  0  0  0
   36.2889   13.6093   -3.9402 H   0  0  0  0  0  0  0  0  0  0  0  0
   37.4217   12.7802  -13.1237 O   0  0  0  0  0  0  0  0  0  0  0  0
   33.8593   13.6011  -13.3118 C   0  0  0  0  0  0  0  0  0  0  0  0
   33.4650   12.9561  -14.4655 C   0  0  0  0  0  0  0  0  0  0  0  0
   34.3435   12.2301  -15.2302 C   0  0  0  0  0  0  0  0  0  0  0  0
   35.6742   12.1717  -14.7831 C   0  0  0  0  0  0  0  0  0  0  0  0
   36.1154   12.7763  -13.6694 C   0  0  0  0  0  0  0  0  0  0  0  0
   35.1674   13.5186  -12.9101 C   0  0  0  0  0  0  0  0  0  0  0  0
   31.6419   14.2696  -12.6046 N   0  0  0  0  0  0  0  0  0  0  0  0
   32.9007   14.3623  -12.5010 C   0  0  0  0  0  0  0  0  0  0  0  0
   33.4176   15.2773  -11.5460 N   0  0  0  0  0  0  0  0  0  0  0  0
   31.0732   13.6861  -13.2154 H   0  0  0  0  0  0  0  0  0  0  0  0
   33.2124   16.2922  -11.7348 H   0  0  0  0  0  0  0  0  0  0  0  0
   33.9609   15.0534  -10.7075 H   0  0  0  0  0  0  0  0  0  0  0  0
 39 40  2  0  0  0
 40 41  1  0  0  0
 40 33  1  0  0  0
 33 34  2  0  0  0
 34 35  1  0  0  0
 35 36  2  0  0  0
 36 37  1  0  0  0
 37 32  1  0  0  0
 32  1  1  0  0  0
  1  2  2  0  0  0
  2  3  1  0  0  0
  3  4  2  0  0  0
  4  5  1  0  0  0
  4  6  1  0  0  0
  6  7  2  0  0  0
  7 10  1  0  0  0
 10 11  2  0  0  0
 10 12  1  0  0  0
 12 14  1  0  0  0
 14 15  2  0  0  0
 15 16  1  0  0  0
 16 17  2  0  0  0
 17 20  1  0  0  0
 20 21  2  0  0  0
 21 22  1  0  0  0
 22 23  2  0  0  0
 23 24  1  0  0  0
 24 25  2  0  0  0
 25 26  1  0  0  0
 26 27  1  0  0  0
 26 28  2  0  0  0
 26 29  2  0  0  0
 17 18  1  0  0  0
 18 19  2  0  0  0
 37 38  2  0  0  0
 38 33  1  0  0  0
  7  1  1  0  0  0
 19 14  1  0  0  0
 25 20  1  0  0  0
 39 42  1  0  0  0
 41 43  1  0  0  0
 41 44  1  0  0  0
  5  8  1  0  0  0
  5  9  1  0  0  0
 12 13  1  0  0  0
 27 30  1  0  0  0
 27 31  1  0  0  0
M  END
> <minimizedAffinity>
-9.52758

> <CNNscore>
0.4192447960

> <CNNaffinity>
6.6482658386

> <CNN_VS>
2.7872507572

> <CNNaffinity_variance>
0.3347157240

$$$$
[H]N=C(c1c([H])c([H])c([H])c(Oc2c([H])c([H])c(N([H])[H])c([H])c2C(=O)N([H])c2c([H])c([H])c(-c3c([H])c([H])c([H])c([H])c3S(=O)(=O)N([H])[H])c([H])c2[H])c1[H])N([H])[H]


 44 47  0  0  0  0  0  0  0  0999 V2000
   38.6017   12.1880  -15.2865 C   0  0  0  0  0  0  0  0  0  0  0  0
   38.2884   11.2095  -16.2639 C   0  0  0  0  0  0  0  0  0  0  0  0
   38.9861   11.1619  -17.4408 C   0  0  0  0  0  0  0  0  0  0  0  0
   39.9846   12.0822  -17.6399 C   0  0  0  0  0  0  0  0  0  0  0  0
   40.6833   12.0219  -18.8706 N   0  0  0  0  0  0  0  0  0  0  0  0
   40.2907   13.0242  -16.6908 C   0  0  0  0  0  0  0  0  0  0  0  0
   39.5789   13.0899  -15.4466 C   0  0  0  0  0  0  0  0  0  0  0  0
   41.7060   12.0669  -18.9108 H   0  0  0  0  0  0  0  0  0  0  0  0
   40.1100   11.9388  -19.7256 H   0  0  0  0  0  0  0  0  0  0  0  0
   40.2696   13.8798  -14.3911 C   0  0  0  0  0  0  0  0  0  0  0  0
   41.5585   13.7839  -14.5438 O   0  0  0  0  0  0  0  0  0  0  0  0
   39.7751   14.6051  -13.4094 N   0  0  0  0  0  0  0  0  0  0  0  0
   41.0151   15.2230  -13.2803 H   0  0  0  0  0  0  0  0  0  0  0  0
   39.2572   15.3648  -12.3811 C   0  0  0  0  0  0  0  0  0  0  0  0
   40.1377   16.0559  -11.5162 C   0  0  0  0  0  0  0  0  0  0  0  0
   39.6813   16.7594  -10.4249 C   0  0  0  0  0  0  0  0  0  0  0  0
   38.3438   16.8215  -10.1272 C   0  0  0  0  0  0  0  0  0  0  0  0
   37.4667   16.1650  -10.9511 C   0  0  0  0  0  0  0  0  0  0  0  0
   37.9144   15.4541  -12.0514 C   0  0  0  0  0  0  0  0  0  0  0  0
   37.8329   17.5071   -8.9621 C   0  0  0  0  0  0  0  0  0  0  0  0
   37.6953   18.8822   -8.9365 C   0  0  0  0  0  0  0  0  0  0  0  0
   37.2460   19.5461   -7.8236 C   0  0  0  0  0  0  0  0  0  0  0  0
   36.9222   18.8222   -6.6968 C   0  0  0  0  0  0  0  0  0  0  0  0
   37.0507   17.4602   -6.7032 C   0  0  0  0  0  0  0  0  0  0  0  0
   37.5056   16.7929   -7.8356 C   0  0  0  0  0  0  0  0  0  0  0  0
   37.6095   15.0820   -7.7742 S   0  0  0  0  0  0  0  0  0  0  0  0
   37.4390   14.5703   -6.1057 N   0  0  0  0  0  0  0  0  0  0  0  0
   39.0180   14.6389   -8.1335 O   0  0  0  0  0  0  0  0  0  0  0  0
   36.5795   14.3608   -8.5945 O   0  0  0  0  0  0  0  0  0  0  0  0
   38.2887   14.8114   -5.5533 H   0  0  0  0  0  0  0  0  0  0  0  0
   36.6261   15.0500   -5.6848 H   0  0  0  0  0  0  0  0  0  0  0  0
   37.7931   12.1589  -14.1256 O   0  0  0  0  0  0  0  0  0  0  0  0
   34.3640   13.3908  -13.7744 C   0  0  0  0  0  0  0  0  0  0  0  0
   33.7057   12.7354  -14.7939 C   0  0  0  0  0  0  0  0  0  0  0  0
   34.3520   11.8680  -15.6385 C   0  0  0  0  0  0  0  0  0  0  0  0
   35.7260   11.6746  -15.4179 C   0  0  0  0  0  0  0  0  0  0  0  0
   36.4188   12.2821  -14.4425 C   0  0  0  0  0  0  0  0  0  0  0  0
   35.7053   13.1738  -13.5928 C   0  0  0  0  0  0  0  0  0  0  0  0
   34.1834   15.2949  -12.2891 N   0  0  0  0  0  0  0  0  0  0  0  0
   33.6512   14.3053  -12.8736 C   0  0  0  0  0  0  0  0  0  0  0  0
   32.2753   14.0560  -12.6266 N   0  0  0  0  0  0  0  0  0  0  0  0
   35.1390   15.6447  -12.3258 H   0  0  0  0  0  0  0  0  0  0  0  0
   32.0348   13.7870  -11.6377 H   0  0  0  0  0  0  0  0  0  0  0  0
   31.5072   14.1097  -13.3014 H   0  0  0  0  0  0  0  0  0  0  0  0
 39 40  2  0  0  0
 40 41  1  0  0  0
 40 33  1  0  0  0
 33 34  2  0  0  0
 34 35  1  0  0  0
 35 36  2  0  0  0
 36 37  1  0  0  0
 37 32  1  0  0  0
 32  1  1  0  0  0
  1  2  2  0  0  0
  2  3  1  0  0  0
  3  4  2  0  0  0
  4  5  1  0  0  0
  4  6  1  0  0  0
  6  7  2  0  0  0
  7 10  1  0  0  0
 10 11  2  0  0  0
 10 12  1  0  0  0
 12 14  1  0  0  0
 14 15  2  0  0  0
 15 16  1  0  0  0
 16 17  2  0  0  0
 17 20  1  0  0  0
 20 21  2  0  0  0
 21 22  1  0  0  0
 22 23  2  0  0  0
 23 24  1  0  0  0
 24 25  2  0  0  0
 25 26  1  0  0  0
 26 27  1  0  0  0
 26 28  2  0  0  0
 26 29  2  0  0  0
 17 18  1  0  0  0
 18 19  2  0  0  0
 37 38  2  0  0  0
 38 33  1  0  0  0
  7  1  1  0  0  0
 19 14  1  0  0  0
 25 20  1  0  0  0
 39 42  1  0  0  0
 41 43  1  0  0  0
 41 44  1  0  0  0
  5  8  1  0  0  0
  5  9  1  0  0  0
 12 13  1  0  0  0
 27 30  1  0  0  0
 27 31  1  0  0  0
M  END
> <minimizedAffinity>
-9.86082

> <CNNscore>
0.3981018960

> <CNNaffinity>
6.9373078346

> <CNN_VS>
2.7617554665

> <CNNaffinity_variance>
0.1828966588

$$$$
[H]N=C(c1c([H])c([H])c([H])c(Oc2c([H])c([H])c(N([H])[H])c([H])c2C(=O)N([H])c2c([H])c([H])c(-c3c([H])c([H])c([H])c([H])c3S(=O)(=O)N([H])[H])c([H])c2[H])c1[H])N([H])[H]


 44 47  0  0  0  0  0  0  0  0999 V2000
   38.4856   12.8189  -14.3994 C   0  0  0  0  0  0  0  0  0  0  0  0
   38.4941   11.7304  -15.3082 C   0  0  0  0  0  0  0  0  0  0  0  0
   39.3480   11.7317  -16.3782 C   0  0  0  0  0  0  0  0  0  0  0  0
   40.1831   12.8088  -16.5394 C   0  0  0  0  0  0  0  0  0  0  0  0
   41.0480   12.7939  -17.6612 N   0  0  0  0  0  0  0  0  0  0  0  0
   40.1782   13.8581  -15.6560 C   0  0  0  0  0  0  0  0  0  0  0  0
   39.2978   13.8767  -14.5230 C   0  0  0  0  0  0  0  0  0  0  0  0
   42.0413   13.0302  -17.5772 H   0  0  0  0  0  0  0  0  0  0  0  0
   40.6255   12.5412  -18.5690 H   0  0  0  0  0  0  0  0  0  0  0  0
   39.6795   14.8582  -13.4714 C   0  0  0  0  0  0  0  0  0  0  0  0
   40.8642   15.3340  -13.7243 O   0  0  0  0  0  0  0  0  0  0  0  0
   39.0171   15.2706  -12.4105 N   0  0  0  0  0  0  0  0  0  0  0  0
   39.8785   16.3606  -12.3324 H   0  0  0  0  0  0  0  0  0  0  0  0
   38.3234   15.7025  -11.2992 C   0  0  0  0  0  0  0  0  0  0  0  0
   37.0319   16.2572  -11.4587 C   0  0  0  0  0  0  0  0  0  0  0  0
   36.3296   16.7806  -10.3971 C   0  0  0  0  0  0  0  0  0  0  0  0
   36.8549   16.7865   -9.1302 C   0  0  0  0  0  0  0  0  0  0  0  0
   38.1030   16.2509   -8.9451 C   0  0  0  0  0  0  0  0  0  0  0  0
   38.8189   15.7219  -10.0055 C   0  0  0  0  0  0  0  0  0  0  0  0
   36.1687   17.3731   -8.0016 C   0  0  0  0  0  0  0  0  0  0  0  0
   36.4799   18.6409   -7.5473 C   0  0  0  0  0  0  0  0  0  0  0  0
   35.8605   19.1928   -6.4551 C   0  0  0  0  0  0  0  0  0  0  0  0
   34.8996   18.4629   -5.7898 C   0  0  0  0  0  0  0  0  0  0  0  0
   34.5771   17.2067   -6.2252 C   0  0  0  0  0  0  0  0  0  0  0  0
   35.2080   16.6534   -7.3344 C   0  0  0  0  0  0  0  0  0  0  0  0
   34.7258   15.0856   -7.8358 S   0  0  0  0  0  0  0  0  0  0  0  0
   33.6511   15.2441   -9.2123 N   0  0  0  0  0  0  0  0  0  0  0  0
   33.8418   14.4547   -6.7730 O   0  0  0  0  0  0  0  0  0  0  0  0
   35.8551   14.1757   -8.2237 O   0  0  0  0  0  0  0  0  0  0  0  0
   32.7247   15.6208   -8.9204 H   0  0  0  0  0  0  0  0  0  0  0  0
   34.0699   15.8952   -9.8969 H   0  0  0  0  0  0  0  0  0  0  0  0
   37.5396   12.7202  -13.3516 O   0  0  0  0  0  0  0  0  0  0  0  0
   33.9677   13.5119  -13.4720 C   0  0  0  0  0  0  0  0  0  0  0  0
   33.5357   12.7773  -14.5565 C   0  0  0  0  0  0  0  0  0  0  0  0
   34.3902   11.9968  -15.2940 C   0  0  0  0  0  0  0  0  0  0  0  0
   35.7367   11.9779  -14.8930 C   0  0  0  0  0  0  0  0  0  0  0  0
   36.2143   12.6692  -13.8469 C   0  0  0  0  0  0  0  0  0  0  0  0
   35.2900   13.4654  -13.1135 C   0  0  0  0  0  0  0  0  0  0  0  0
   31.8251   14.0264  -12.4676 N   0  0  0  0  0  0  0  0  0  0  0  0
   33.0346   14.3309  -12.6882 C   0  0  0  0  0  0  0  0  0  0  0  0
   33.5136   15.5561  -12.1537 N   0  0  0  0  0  0  0  0  0  0  0  0
   31.2896   13.2092  -12.7544 H   0  0  0  0  0  0  0  0  0  0  0  0
   33.0707   16.4256  -12.5483 H   0  0  0  0  0  0  0  0  0  0  0  0
   34.2342   15.6770  -11.4365 H   0  0  0  0  0  0  0  0  0  0  0  0
 39 40  2  0  0  0
 40 41  1  0  0  0
 40 33  1  0  0  0
 33 34  2  0  0  0
 34 35  1  0  0  0
 35 36  2  0  0  0
 36 37  1  0  0  0
 37 32  1  0  0  0
 32  1  1  0  0  0
  1  2  2  0  0  0
  2  3  1  0  0  0
  3  4  2  0  0  0
  4  5  1  0  0  0
  4  6  1  0  0  0
  6  7  2  0  0  0
  7 10  1  0  0  0
 10 11  2  0  0  0
 10 12  1  0  0  0
 12 14  1  0  0  0
 14 15  2  0  0  0
 15 16  1  0  0  0
 16 17  2  0  0  0
 17 20  1  0  0  0
 20 21  2  0  0  0
 21 22  1  0  0  0
 22 23  2  0  0  0
 23 24  1  0  0  0
 24 25  2  0  0  0
 25 26  1  0  0  0
 26 27  1  0  0  0
 26 28  2  0  0  0
 26 29  2  0  0  0
 17 18  1  0  0  0
 18 19  2  0  0  0
 37 38  2  0  0  0
 38 33  1  0  0  0
  7  1  1  0  0  0
 19 14  1  0  0  0
 25 20  1  0  0  0
 39 42  1  0  0  0
 41 43  1  0  0  0
 41 44  1  0  0  0
  5  8  1  0  0  0
  5  9  1  0  0  0
 12 13  1  0  0  0
 27 30  1  0  0  0
 27 31  1  0  0  0
M  END
> <minimizedAffinity>
-9.45296

> <CNNscore>
0.3462462425

> <CNNaffinity>
6.6810975075

> <CNN_VS>
2.3133049011

> <CNNaffinity_variance>
0.4694441259

$$$$
[H]N=C(c1c([H])c([H])c([H])c(Oc2c([H])c([H])c(N([H])[H])c([H])c2C(=O)N([H])c2c([H])c([H])c(-c3c([H])c([H])c([H])c([H])c3S(=O)(=O)N([H])[H])c([H])c2[H])c1[H])N([H])[H]


 44 47  0  0  0  0  0  0  0  0999 V2000
   36.2887   12.6206  -13.6512 C   0  0  0  0  0  0  0  0  0  0  0  0
   35.1576   12.0731  -14.3083 C   0  0  0  0  0  0  0  0  0  0  0  0
   33.9161   12.6158  -14.1124 C   0  0  0  0  0  0  0  0  0  0  0  0
   33.8054   13.6924  -13.2685 C   0  0  0  0  0  0  0  0  0  0  0  0
   32.5091   14.2282  -13.0709 N   0  0  0  0  0  0  0  0  0  0  0  0
   34.9014   14.2249  -12.6384 C   0  0  0  0  0  0  0  0  0  0  0  0
   36.2139   13.6786  -12.8332 C   0  0  0  0  0  0  0  0  0  0  0  0
   32.3323   15.2365  -13.1119 H   0  0  0  0  0  0  0  0  0  0  0  0
   31.7530   13.5525  -12.8752 H   0  0  0  0  0  0  0  0  0  0  0  0
   37.3184   14.5830  -12.4127 C   0  0  0  0  0  0  0  0  0  0  0  0
   38.0212   14.9301  -13.4516 O   0  0  0  0  0  0  0  0  0  0  0  0
   37.6387   15.0384  -11.2193 N   0  0  0  0  0  0  0  0  0  0  0  0
   38.4069   16.0230  -11.8331 H   0  0  0  0  0  0  0  0  0  0  0  0
   37.9742   15.5154   -9.9692 C   0  0  0  0  0  0  0  0  0  0  0  0
   39.1670   15.0700   -9.3527 C   0  0  0  0  0  0  0  0  0  0  0  0
   39.5087   15.4468   -8.0739 C   0  0  0  0  0  0  0  0  0  0  0  0
   38.7022   16.2764   -7.3372 C   0  0  0  0  0  0  0  0  0  0  0  0
   37.5421   16.7275   -7.9112 C   0  0  0  0  0  0  0  0  0  0  0  0
   37.1880   16.3549   -9.1967 C   0  0  0  0  0  0  0  0  0  0  0  0
   39.0030   16.6517   -5.9743 C   0  0  0  0  0  0  0  0  0  0  0  0
   39.7068   17.8047   -5.6820 C   0  0  0  0  0  0  0  0  0  0  0  0
   40.0292   18.1516   -4.3948 C   0  0  0  0  0  0  0  0  0  0  0  0
   39.6409   17.3270   -3.3615 C   0  0  0  0  0  0  0  0  0  0  0  0
   38.9424   16.1819   -3.6308 C   0  0  0  0  0  0  0  0  0  0  0  0
   38.6175   15.8366   -4.9384 C   0  0  0  0  0  0  0  0  0  0  0  0
   37.7134   14.4011   -5.1908 S   0  0  0  0  0  0  0  0  0  0  0  0
   37.3754   13.6712   -3.6327 N   0  0  0  0  0  0  0  0  0  0  0  0
   38.5800   13.3622   -5.8829 O   0  0  0  0  0  0  0  0  0  0  0  0
   36.4104   14.5983   -5.9099 O   0  0  0  0  0  0  0  0  0  0  0  0
   38.2379   13.2576   -3.2199 H   0  0  0  0  0  0  0  0  0  0  0  0
   37.0176   14.3959   -2.9886 H   0  0  0  0  0  0  0  0  0  0  0  0
   37.5122   11.9570  -13.9064 O   0  0  0  0  0  0  0  0  0  0  0  0
   39.2674   12.0487  -17.1174 C   0  0  0  0  0  0  0  0  0  0  0  0
   38.3724   11.4291  -17.9645 C   0  0  0  0  0  0  0  0  0  0  0  0
   37.1626   10.9540  -17.5240 C   0  0  0  0  0  0  0  0  0  0  0  0
   36.8722   11.1277  -16.1603 C   0  0  0  0  0  0  0  0  0  0  0  0
   37.7015   11.7234  -15.2898 C   0  0  0  0  0  0  0  0  0  0  0  0
   38.9451   12.1986  -15.7934 C   0  0  0  0  0  0  0  0  0  0  0  0
   41.5172   11.8331  -17.9870 N   0  0  0  0  0  0  0  0  0  0  0  0
   40.5515   12.5614  -17.6114 C   0  0  0  0  0  0  0  0  0  0  0  0
   40.7314   13.9692  -17.6570 N   0  0  0  0  0  0  0  0  0  0  0  0
   41.5974   10.8190  -18.0329 H   0  0  0  0  0  0  0  0  0  0  0  0
   41.4642   14.3529  -17.0061 H   0  0  0  0  0  0  0  0  0  0  0  0
   40.2285   14.6371  -18.2480 H   0  0  0  0  0  0  0  0  0  0  0  0
 39 40  2  0  0  0
 40 41  1  0  0  0
 40 33  1  0  0  0
 33 34  2  0  0  0
 34 35  1  0  0  0
 35 36  2  0  0  0
 36 37  1  0  0  0
 37 32  1  0  0  0
 32  1  1  0  0  0
  1  2  2  0  0  0
  2  3  1  0  0  0
  3  4  2  0  0  0
  4  5  1  0  0  0
  4  6  1  0  0  0
  6  7  2  0  0  0
  7 10  1  0  0  0
 10 11  2  0  0  0
 10 12  1  0  0  0
 12 14  1  0  0  0
 14 15  2  0  0  0
 15 16  1  0  0  0
 16 17  2  0  0  0
 17 20  1  0  0  0
 20 21  2  0  0  0
 21 22  1  0  0  0
 22 23  2  0  0  0
 23 24  1  0  0  0
 24 25  2  0  0  0
 25 26  1  0  0  0
 26 27  1  0  0  0
 26 28  2  0  0  0
 26 29  2  0  0  0
 17 18  1  0  0  0
 18 19  2  0  0  0
 37 38  2  0  0  0
 38 33  1  0  0  0
  7  1  1  0  0  0
 19 14  1  0  0  0
 25 20  1  0  0  0
 39 42  1  0  0  0
 41 43  1  0  0  0
 41 44  1  0  0  0
  5  8  1  0  0  0
  5  9  1  0  0  0
 12 13  1  0  0  0
 27 30  1  0  0  0
 27 31  1  0  0  0
M  END
> <minimizedAffinity>
-9.20410

> <CNNscore>
0.2711991966

> <CNNaffinity>
6.4776315689

> <CNN_VS>
1.7567285299

> <CNNaffinity_variance>
0.0912480280

$$$$
[H]N=C(c1c([H])c([H])c([H])c(Oc2c([H])c([H])c(N([H])[H])c([H])c2C(=O)N([H])c2c([H])c([H])c(-c3c([H])c([H])c([H])c([H])c3S(=O)(=O)N([H])[H])c([H])c2[H])c1[H])N([H])[H]


 44 47  0  0  0  0  0  0  0  0999 V2000
   38.6315   12.2038  -15.1005 C   0  0  0  0  0  0  0  0  0  0  0  0
   38.5057   11.1410  -16.0309 C   0  0  0  0  0  0  0  0  0  0  0  0
   39.1991   11.1715  -17.2109 C   0  0  0  0  0  0  0  0  0  0  0  0
   40.0079   12.2520  -17.4595 C   0  0  0  0  0  0  0  0  0  0  0  0
   40.7045   12.2678  -18.6927 N   0  0  0  0  0  0  0  0  0  0  0  0
   40.1334   13.2763  -16.5558 C   0  0  0  0  0  0  0  0  0  0  0  0
   39.4229   13.2640  -15.3091 C   0  0  0  0  0  0  0  0  0  0  0  0
   41.7008   12.5009  -18.7443 H   0  0  0  0  0  0  0  0  0  0  0  0
   40.1562   12.0407  -19.5379 H   0  0  0  0  0  0  0  0  0  0  0  0
   39.9546   14.2156  -14.2959 C   0  0  0  0  0  0  0  0  0  0  0  0
   39.0164   15.0422  -13.9351 O   0  0  0  0  0  0  0  0  0  0  0  0
   41.1554   14.3097  -13.7635 N   0  0  0  0  0  0  0  0  0  0  0  0
   40.6110   15.0847  -12.7441 H   0  0  0  0  0  0  0  0  0  0  0  0
   42.4132   14.4082  -13.2058 C   0  0  0  0  0  0  0  0  0  0  0  0
   43.4428   13.5498  -13.6577 C   0  0  0  0  0  0  0  0  0  0  0  0
   44.6920   13.5462  -13.0799 C   0  0  0  0  0  0  0  0  0  0  0  0
   44.9945   14.3808  -12.0343 C   0  0  0  0  0  0  0  0  0  0  0  0
   44.0173   15.2271  -11.5787 C   0  0  0  0  0  0  0  0  0  0  0  0
   42.7572   15.2393  -12.1519 C   0  0  0  0  0  0  0  0  0  0  0  0
   46.2780   14.3685  -11.3701 C   0  0  0  0  0  0  0  0  0  0  0  0
   47.2734   15.2665  -11.7068 C   0  0  0  0  0  0  0  0  0  0  0  0
   48.5073   15.2403  -11.1085 C   0  0  0  0  0  0  0  0  0  0  0  0
   48.7637   14.2912  -10.1432 C   0  0  0  0  0  0  0  0  0  0  0  0
   47.7907   13.3945   -9.7954 C   0  0  0  0  0  0  0  0  0  0  0  0
   46.5410   13.4274  -10.4051 C   0  0  0  0  0  0  0  0  0  0  0  0
   45.3650   12.2892   -9.8920 S   0  0  0  0  0  0  0  0  0  0  0  0
   46.0145   11.3855   -8.5368 N   0  0  0  0  0  0  0  0  0  0  0  0
   45.1758   11.2270  -10.9619 O   0  0  0  0  0  0  0  0  0  0  0  0
   44.0537   12.8877   -9.4724 O   0  0  0  0  0  0  0  0  0  0  0  0
   46.7602   10.7289   -8.8499 H   0  0  0  0  0  0  0  0  0  0  0  0
   46.4226   12.0447   -7.8534 H   0  0  0  0  0  0  0  0  0  0  0  0
   37.8435   12.0766  -13.9320 O   0  0  0  0  0  0  0  0  0  0  0  0
   34.5992   13.6880  -13.4051 C   0  0  0  0  0  0  0  0  0  0  0  0
   33.8277   13.1406  -14.4090 C   0  0  0  0  0  0  0  0  0  0  0  0
   34.3332   12.2269  -15.2995 C   0  0  0  0  0  0  0  0  0  0  0  0
   35.6830   11.8697  -15.1432 C   0  0  0  0  0  0  0  0  0  0  0  0
   36.4813   12.3667  -14.1860 C   0  0  0  0  0  0  0  0  0  0  0  0
   35.9122   13.3121  -13.2869 C   0  0  0  0  0  0  0  0  0  0  0  0
   32.9542   15.2891  -12.6340 N   0  0  0  0  0  0  0  0  0  0  0  0
   34.0356   14.6547  -12.4545 C   0  0  0  0  0  0  0  0  0  0  0  0
   34.7583   14.9095  -11.2591 N   0  0  0  0  0  0  0  0  0  0  0  0
   32.2936   15.2574  -13.4083 H   0  0  0  0  0  0  0  0  0  0  0  0
   35.1441   15.8841  -11.1628 H   0  0  0  0  0  0  0  0  0  0  0  0
   34.9396   14.2522  -10.4952 H   0  0  0  0  0  0  0  0  0  0  0  0
 39 40  2  0  0  0
 40 41  1  0  0  0
 40 33  1  0  0  0
 33 34  2  0  0  0
 34 35  1  0  0  0
 35 36  2  0  0  0
 36 37  1  0  0  0
 37 32  1  0  0  0
 32  1  1  0  0  0
  1  2  2  0  0  0
  2  3  1  0  0  0
  3  4  2  0  0  0
  4  5  1  0  0  0
  4  6  1  0  0  0
  6  7  2  0  0  0
  7 10  1  0  0  0
 10 11  2  0  0  0
 10 12  1  0  0  0
 12 14  1  0  0  0
 14 15  2  0  0  0
 15 16  1  0  0  0
 16 17  2  0  0  0
 17 20  1  0  0  0
 20 21  2  0  0  0
 21 22  1  0  0  0
 22 23  2  0  0  0
 23 24  1  0  0  0
 24 25  2  0  0  0
 25 26  1  0  0  0
 26 27  1  0  0  0
 26 28  2  0  0  0
 26 29  2  0  0  0
 17 18  1  0  0  0
 18 19  2  0  0  0
 37 38  2  0  0  0
 38 33  1  0  0  0
  7  1  1  0  0  0
 19 14  1  0  0  0
 25 20  1  0  0  0
 39 42  1  0  0  0
 41 43  1  0  0  0
 41 44  1  0  0  0
  5  8  1  0  0  0
  5  9  1  0  0  0
 12 13  1  0  0  0
 27 30  1  0  0  0
 27 31  1  0  0  0
M  END
> <minimizedAffinity>
-8.59907

> <CNNscore>
0.2629050612

> <CNNaffinity>
6.7045655251

> <CNN_VS>
1.7626641989

> <CNNaffinity_variance>
0.0840934962

$$$$
[H]N=C(c1c([H])c([H])c([H])c(Oc2c([H])c([H])c(N([H])[H])c([H])c2C(=O)N([H])c2c([H])c([H])c(-c3c([H])c([H])c([H])c([H])c3S(=O)(=O)N([H])[H])c([H])c2[H])c1[H])N([H])[H]


 44 47  0  0  0  0  0  0  0  0999 V2000
   38.4808   12.2327  -15.0075 C   0  0  0  0  0  0  0  0  0  0  0  0
   38.4800   11.1620  -15.9373 C   0  0  0  0  0  0  0  0  0  0  0  0
   39.2376   11.2358  -17.0751 C   0  0  0  0  0  0  0  0  0  0  0  0
   39.9867   12.3669  -17.2826 C   0  0  0  0  0  0  0  0  0  0  0  0
   40.7518   12.4261  -18.4732 N   0  0  0  0  0  0  0  0  0  0  0  0
   39.9913   13.3992  -16.3792 C   0  0  0  0  0  0  0  0  0  0  0  0
   39.2115   13.3425  -15.1760 C   0  0  0  0  0  0  0  0  0  0  0  0
   41.7318   12.7245  -18.4681 H   0  0  0  0  0  0  0  0  0  0  0  0
   40.2700   12.1616  -19.3475 H   0  0  0  0  0  0  0  0  0  0  0  0
   39.6192   14.3293  -14.1392 C   0  0  0  0  0  0  0  0  0  0  0  0
   38.5784   14.9999  -13.7381 O   0  0  0  0  0  0  0  0  0  0  0  0
   40.8036   14.5797  -13.6207 N   0  0  0  0  0  0  0  0  0  0  0  0
   40.1721   15.2359  -12.5687 H   0  0  0  0  0  0  0  0  0  0  0  0
   42.0441   14.8419  -13.0776 C   0  0  0  0  0  0  0  0  0  0  0  0
   42.2344   16.0185  -12.3158 C   0  0  0  0  0  0  0  0  0  0  0  0
   43.4691   16.3728  -11.8217 C   0  0  0  0  0  0  0  0  0  0  0  0
   44.5758   15.5948  -12.0480 C   0  0  0  0  0  0  0  0  0  0  0  0
   44.4201   14.4459  -12.7792 C   0  0  0  0  0  0  0  0  0  0  0  0
   43.1830   14.0796  -13.2814 C   0  0  0  0  0  0  0  0  0  0  0  0
   45.8964   15.9609  -11.5890 C   0  0  0  0  0  0  0  0  0  0  0  0
   46.4189   15.4526  -10.4146 C   0  0  0  0  0  0  0  0  0  0  0  0
   47.6560   15.8214   -9.9512 C   0  0  0  0  0  0  0  0  0  0  0  0
   48.4010   16.7255  -10.6765 C   0  0  0  0  0  0  0  0  0  0  0  0
   47.9013   17.2388  -11.8420 C   0  0  0  0  0  0  0  0  0  0  0  0
   46.6465   16.8596  -12.3072 C   0  0  0  0  0  0  0  0  0  0  0  0
   46.1041   17.5243  -13.7923 S   0  0  0  0  0  0  0  0  0  0  0  0
   47.4330   18.3949  -14.5345 N   0  0  0  0  0  0  0  0  0  0  0  0
   45.0788   18.6134  -13.5246 O   0  0  0  0  0  0  0  0  0  0  0  0
   45.5919   16.5171  -14.7808 O   0  0  0  0  0  0  0  0  0  0  0  0
   47.6352   19.2769  -14.0183 H   0  0  0  0  0  0  0  0  0  0  0  0
   48.2793   17.8022  -14.5168 H   0  0  0  0  0  0  0  0  0  0  0  0
   37.6358   12.0562  -13.8862 O   0  0  0  0  0  0  0  0  0  0  0  0
   34.3187   13.5611  -13.5238 C   0  0  0  0  0  0  0  0  0  0  0  0
   33.6177   12.9929  -14.5669 C   0  0  0  0  0  0  0  0  0  0  0  0
   34.1973   12.0990  -15.4320 C   0  0  0  0  0  0  0  0  0  0  0  0
   35.5481   11.7846  -15.2072 C   0  0  0  0  0  0  0  0  0  0  0  0
   36.2799   12.3034  -14.2094 C   0  0  0  0  0  0  0  0  0  0  0  0
   35.6353   13.2270  -13.3389 C   0  0  0  0  0  0  0  0  0  0  0  0
   32.4450   14.4926  -12.3048 N   0  0  0  0  0  0  0  0  0  0  0  0
   33.6763   14.5059  -12.6015 C   0  0  0  0  0  0  0  0  0  0  0  0
   34.4849   15.5140  -12.0134 N   0  0  0  0  0  0  0  0  0  0  0  0
   31.7015   13.8672  -12.6097 H   0  0  0  0  0  0  0  0  0  0  0  0
   34.2562   16.5010  -12.2988 H   0  0  0  0  0  0  0  0  0  0  0  0
   35.2550   15.3801  -11.3520 H   0  0  0  0  0  0  0  0  0  0  0  0
 39 40  2  0  0  0
 40 41  1  0  0  0
 40 33  1  0  0  0
 33 34  2  0  0  0
 34 35  1  0  0  0
 35 36  2  0  0  0
 36 37  1  0  0  0
 37 32  1  0  0  0
 32  1  1  0  0  0
  1  2  2  0  0  0
  2  3  1  0  0  0
  3  4  2  0  0  0
  4  5  1  0  0  0
  4  6  1  0  0  0
  6  7  2  0  0  0
  7 10  1  0  0  0
 10 11  2  0  0  0
 10 12  1  0  0  0
 12 14  1  0  0  0
 14 15  2  0  0  0
 15 16  1  0  0  0
 16 17  2  0  0  0
 17 20  1  0  0  0
 20 21  2  0  0  0
 21 22  1  0  0  0
 22 23  2  0  0  0
 23 24  1  0  0  0
 24 25  2  0  0  0
 25 26  1  0  0  0
 26 27  1  0  0  0
 26 28  2  0  0  0
 26 29  2  0  0  0
 17 18  1  0  0  0
 18 19  2  0  0  0
 37 38  2  0  0  0
 38 33  1  0  0  0
  7  1  1  0  0  0
 19 14  1  0  0  0
 25 20  1  0  0  0
 39 42  1  0  0  0
 41 43  1  0  0  0
 41 44  1  0  0  0
  5  8  1  0  0  0
  5  9  1  0  0  0
 12 13  1  0  0  0
 27 30  1  0  0  0
 27 31  1  0  0  0
M  END
> <minimizedAffinity>
-9.11304

> <CNNscore>
0.2545173168

> <CNNaffinity>
6.4953727722

> <CNN_VS>
1.6531848907

> <CNNaffinity_variance>
0.0820450559

$$$$
[H]N=C(c1c([H])c([H])c([H])c(Oc2c([H])c([H])c(N([H])[H])c([H])c2C(=O)N([H])c2c([H])c([H])c(-c3c([H])c([H])c([H])c([H])c3S(=O)(=O)N([H])[H])c([H])c2[H])c1[H])N([H])[H]


 44 47  0  0  0  0  0  0  0  0999 V2000
   36.9529   12.6124  -14.0203 C   0  0  0  0  0  0  0  0  0  0  0  0
   36.2312   11.9419  -15.0403 C   0  0  0  0  0  0  0  0  0  0  0  0
   34.9165   12.2469  -15.2697 C   0  0  0  0  0  0  0  0  0  0  0  0
   34.3288   13.2098  -14.4881 C   0  0  0  0  0  0  0  0  0  0  0  0
   32.9642   13.4985  -14.7349 N   0  0  0  0  0  0  0  0  0  0  0  0
   35.0299   13.8620  -13.5058 C   0  0  0  0  0  0  0  0  0  0  0  0
   36.4106   13.5653  -13.2510 C   0  0  0  0  0  0  0  0  0  0  0  0
   32.6234   14.4619  -14.8083 H   0  0  0  0  0  0  0  0  0  0  0  0
   32.3288   12.6898  -14.8288 H   0  0  0  0  0  0  0  0  0  0  0  0
   37.1189   14.6027  -12.4530 C   0  0  0  0  0  0  0  0  0  0  0  0
   38.0400   15.1638  -13.1814 O   0  0  0  0  0  0  0  0  0  0  0  0
   36.9375   14.9904  -11.2076 N   0  0  0  0  0  0  0  0  0  0  0  0
   37.6562   16.1471  -11.4935 H   0  0  0  0  0  0  0  0  0  0  0  0
   36.7475   15.3965   -9.9031 C   0  0  0  0  0  0  0  0  0  0  0  0
   35.8787   16.4795   -9.6321 C   0  0  0  0  0  0  0  0  0  0  0  0
   35.7166   16.9806   -8.3606 C   0  0  0  0  0  0  0  0  0  0  0  0
   36.3946   16.4476   -7.2941 C   0  0  0  0  0  0  0  0  0  0  0  0
   37.2399   15.3939   -7.5264 C   0  0  0  0  0  0  0  0  0  0  0  0
   37.4111   14.8817   -8.8011 C   0  0  0  0  0  0  0  0  0  0  0  0
   36.2887   16.9802   -5.9547 C   0  0  0  0  0  0  0  0  0  0  0  0
   37.0513   18.0573   -5.5440 C   0  0  0  0  0  0  0  0  0  0  0  0
   36.9853   18.5476   -4.2648 C   0  0  0  0  0  0  0  0  0  0  0  0
   36.1343   17.9496   -3.3612 C   0  0  0  0  0  0  0  0  0  0  0  0
   35.3705   16.8830   -3.7493 C   0  0  0  0  0  0  0  0  0  0  0  0
   35.4412   16.3915   -5.0485 C   0  0  0  0  0  0  0  0  0  0  0  0
   34.4289   15.0712   -5.4657 S   0  0  0  0  0  0  0  0  0  0  0  0
   33.4655   14.6402   -4.0654 N   0  0  0  0  0  0  0  0  0  0  0  0
   35.2735   13.8307   -5.7042 O   0  0  0  0  0  0  0  0  0  0  0  0
   33.4981   15.3325   -6.6142 O   0  0  0  0  0  0  0  0  0  0  0  0
   34.0515   14.1806   -3.3370 H   0  0  0  0  0  0  0  0  0  0  0  0
   33.0510   15.4965   -3.6618 H   0  0  0  0  0  0  0  0  0  0  0  0
   38.2938   12.1910  -13.8558 O   0  0  0  0  0  0  0  0  0  0  0  0
   39.4122   11.9145  -17.3303 C   0  0  0  0  0  0  0  0  0  0  0  0
   40.4375   12.8352  -17.3879 C   0  0  0  0  0  0  0  0  0  0  0  0
   40.8045   13.5852  -16.2987 C   0  0  0  0  0  0  0  0  0  0  0  0
   40.0840   13.3727  -15.1114 C   0  0  0  0  0  0  0  0  0  0  0  0
   39.0794   12.4909  -14.9948 C   0  0  0  0  0  0  0  0  0  0  0  0
   38.7345   11.7372  -16.1520 C   0  0  0  0  0  0  0  0  0  0  0  0
   39.7580   10.9928  -19.5429 N   0  0  0  0  0  0  0  0  0  0  0  0
   39.0436   11.1128  -18.5039 C   0  0  0  0  0  0  0  0  0  0  0  0
   37.7944   10.4381  -18.4818 N   0  0  0  0  0  0  0  0  0  0  0  0
   40.6712   11.3862  -19.7624 H   0  0  0  0  0  0  0  0  0  0  0  0
   37.0863   10.7740  -19.1844 H   0  0  0  0  0  0  0  0  0  0  0  0
   37.5175    9.6718  -17.8617 H   0  0  0  0  0  0  0  0  0  0  0  0
 39 40  2  0  0  0
 40 41  1  0  0  0
 40 33  1  0  0  0
 33 34  2  0  0  0
 34 35  1  0  0  0
 35 36  2  0  0  0
 36 37  1  0  0  0
 37 32  1  0  0  0
 32  1  1  0  0  0
  1  2  2  0  0  0
  2  3  1  0  0  0
  3  4  2  0  0  0
  4  5  1  0  0  0
  4  6  1  0  0  0
  6  7  2  0  0  0
  7 10  1  0  0  0
 10 11  2  0  0  0
 10 12  1  0  0  0
 12 14  1  0  0  0
 14 15  2  0  0  0
 15 16  1  0  0  0
 16 17  2  0  0  0
 17 20  1  0  0  0
 20 21  2  0  0  0
 21 22  1  0  0  0
 22 23  2  0  0  0
 23 24  1  0  0  0
 24 25  2  0  0  0
 25 26  1  0  0  0
 26 27  1  0  0  0
 26 28  2  0  0  0
 26 29  2  0  0  0
 17 18  1  0  0  0
 18 19  2  0  0  0
 37 38  2  0  0  0
 38 33  1  0  0  0
  7  1  1  0  0  0
 19 14  1  0  0  0
 25 20  1  0  0  0
 39 42  1  0  0  0
 41 43  1  0  0  0
 41 44  1  0  0  0
  5  8  1  0  0  0
  5  9  1  0  0  0
 12 13  1  0  0  0
 27 30  1  0  0  0
 27 31  1  0  0  0
M  END
> <minimizedAffinity>
-9.21123

> <CNNscore>
0.2491649091

> <CNNaffinity>
6.6258821487

> <CNN_VS>
1.6509373188

> <CNNaffinity_variance>
0.1748677790

$$$$
[H]N=C(c1c([H])c([H])c([H])c(Oc2c([H])c([H])c(N([H])[H])c([H])c2C(=O)N([H])c2c([H])c([H])c(-c3c([H])c([H])c([H])c([H])c3S(=O)(=O)N([H])[H])c([H])c2[H])c1[H])N([H])[H]


 44 47  0  0  0  0  0  0  0  0999 V2000
   39.2202   11.8751  -15.9221 C   0  0  0  0  0  0  0  0  0  0  0  0
   38.1688   11.1642  -16.5546 C   0  0  0  0  0  0  0  0  0  0  0  0
   38.2235   10.9013  -17.8970 C   0  0  0  0  0  0  0  0  0  0  0  0
   39.3155   11.3448  -18.6001 C   0  0  0  0  0  0  0  0  0  0  0  0
   39.3434   11.0729  -19.9900 N   0  0  0  0  0  0  0  0  0  0  0  0
   40.3348   12.0270  -17.9857 C   0  0  0  0  0  0  0  0  0  0  0  0
   40.3041   12.3084  -16.5790 C   0  0  0  0  0  0  0  0  0  0  0  0
   40.1805   10.6998  -20.4479 H   0  0  0  0  0  0  0  0  0  0  0  0
   38.4809   11.2774  -20.5198 H   0  0  0  0  0  0  0  0  0  0  0  0
   41.6234   12.6894  -16.0053 C   0  0  0  0  0  0  0  0  0  0  0  0
   42.5771   12.2962  -16.7988 O   0  0  0  0  0  0  0  0  0  0  0  0
   41.9153   13.3260  -14.8901 N   0  0  0  0  0  0  0  0  0  0  0  0
   43.1874   13.5718  -15.3976 H   0  0  0  0  0  0  0  0  0  0  0  0
   42.2212   13.9928  -13.7219 C   0  0  0  0  0  0  0  0  0  0  0  0
   43.2593   13.5043  -12.8945 C   0  0  0  0  0  0  0  0  0  0  0  0
   43.5511   14.0793  -11.6785 C   0  0  0  0  0  0  0  0  0  0  0  0
   42.8433   15.1583  -11.2138 C   0  0  0  0  0  0  0  0  0  0  0  0
   41.8345   15.6560  -11.9970 C   0  0  0  0  0  0  0  0  0  0  0  0
   41.5319   15.0857  -13.2216 C   0  0  0  0  0  0  0  0  0  0  0  0
   43.0874   15.7555   -9.9205 C   0  0  0  0  0  0  0  0  0  0  0  0
   42.2412   15.5314   -8.8509 C   0  0  0  0  0  0  0  0  0  0  0  0
   42.4431   16.1220   -7.6296 C   0  0  0  0  0  0  0  0  0  0  0  0
   43.5208   16.9642   -7.4626 C   0  0  0  0  0  0  0  0  0  0  0  0
   44.3703   17.1975   -8.5093 C   0  0  0  0  0  0  0  0  0  0  0  0
   44.1606   16.5943   -9.7449 C   0  0  0  0  0  0  0  0  0  0  0  0
   45.2878   16.9131  -10.9977 S   0  0  0  0  0  0  0  0  0  0  0  0
   46.3416   18.2172  -10.4841 N   0  0  0  0  0  0  0  0  0  0  0  0
   44.5677   17.4988  -12.2009 O   0  0  0  0  0  0  0  0  0  0  0  0
   46.1437   15.7421  -11.3849 O   0  0  0  0  0  0  0  0  0  0  0  0
   45.8334   19.1266  -10.4782 H   0  0  0  0  0  0  0  0  0  0  0  0
   46.6800   18.0234   -9.5271 H   0  0  0  0  0  0  0  0  0  0  0  0
   39.0379   12.1141  -14.5393 O   0  0  0  0  0  0  0  0  0  0  0  0
   36.8104   14.6289  -13.0855 C   0  0  0  0  0  0  0  0  0  0  0  0
   35.5757   14.2487  -13.5686 C   0  0  0  0  0  0  0  0  0  0  0  0
   35.4188   13.1600  -14.3893 C   0  0  0  0  0  0  0  0  0  0  0  0
   36.5809   12.4426  -14.7193 C   0  0  0  0  0  0  0  0  0  0  0  0
   37.8071   12.7632  -14.2788 C   0  0  0  0  0  0  0  0  0  0  0  0
   37.9196   13.9012  -13.4312 C   0  0  0  0  0  0  0  0  0  0  0  0
   36.0456   16.6444  -11.9823 N   0  0  0  0  0  0  0  0  0  0  0  0
   36.9550   15.7897  -12.1981 C   0  0  0  0  0  0  0  0  0  0  0  0
   38.2038   15.9781  -11.5490 N   0  0  0  0  0  0  0  0  0  0  0  0
   35.0940   16.6973  -12.3409 H   0  0  0  0  0  0  0  0  0  0  0  0
   38.7395   16.8365  -11.8393 H   0  0  0  0  0  0  0  0  0  0  0  0
   38.6287   15.3736  -10.8403 H   0  0  0  0  0  0  0  0  0  0  0  0
 39 40  2  0  0  0
 40 41  1  0  0  0
 40 33  1  0  0  0
 33 34  2  0  0  0
 34 35  1  0  0  0
 35 36  2  0  0  0
 36 37  1  0  0  0
 37 32  1  0  0  0
 32  1  1  0  0  0
  1  2  2  0  0  0
  2  3  1  0  0  0
  3  4  2  0  0  0
  4  5  1  0  0  0
  4  6  1  0  0  0
  6  7  2  0  0  0
  7 10  1  0  0  0
 10 11  2  0  0  0
 10 12  1  0  0  0
 12 14  1  0  0  0
 14 15  2  0  0  0
 15 16  1  0  0  0
 16 17  2  0  0  0
 17 20  1  0  0  0
 20 21  2  0  0  0
 21 22  1  0  0  0
 22 23  2  0  0  0
 23 24  1  0  0  0
 24 25  2  0  0  0
 25 26  1  0  0  0
 26 27  1  0  0  0
 26 28  2  0  0  0
 26 29  2  0  0  0
 17 18  1  0  0  0
 18 19  2  0  0  0
 37 38  2  0  0  0
 38 33  1  0  0  0
  7  1  1  0  0  0
 19 14  1  0  0  0
 25 20  1  0  0  0
 39 42  1  0  0  0
 41 43  1  0  0  0
 41 44  1  0  0  0
  5  8  1  0  0  0
  5  9  1  0  0  0
 12 13  1  0  0  0
 27 30  1  0  0  0
 27 31  1  0  0  0
M  END
> <minimizedAffinity>
-9.26579

> <CNNscore>
0.2380527407

> <CNNaffinity>
6.5919694901

> <CNN_VS>
1.5692363977

> <CNNaffinity_variance>
0.0942961946

$$$$
[H]N=C(c1c([H])c([H])c([H])c(Oc2c([H])c([H])c(N([H])[H])c([H])c2C(=O)N([H])c2c([H])c([H])c(-c3c([H])c([H])c([H])c([H])c3S(=O)(=O)N([H])[H])c([H])c2[H])c1[H])N([H])[H]


 44 47  0  0  0  0  0  0  0  0999 V2000
   38.6905   12.3960  -15.0485 C   0  0  0  0  0  0  0  0  0  0  0  0
   38.3805   11.3158  -15.9133 C   0  0  0  0  0  0  0  0  0  0  0  0
   38.9772   11.2225  -17.1419 C   0  0  0  0  0  0  0  0  0  0  0  0
   39.8724   12.1979  -17.5032 C   0  0  0  0  0  0  0  0  0  0  0  0
   40.4666   12.0875  -18.7843 N   0  0  0  0  0  0  0  0  0  0  0  0
   40.1760   13.2389  -16.6630 C   0  0  0  0  0  0  0  0  0  0  0  0
   39.5695   13.3549  -15.3677 C   0  0  0  0  0  0  0  0  0  0  0  0
   41.4746   12.2090  -18.9215 H   0  0  0  0  0  0  0  0  0  0  0  0
   39.8321   11.8867  -19.5739 H   0  0  0  0  0  0  0  0  0  0  0  0
   40.2770   14.2840  -14.4452 C   0  0  0  0  0  0  0  0  0  0  0  0
   41.3822   14.6935  -14.9970 O   0  0  0  0  0  0  0  0  0  0  0  0
   39.9446   14.7083  -13.2436 N   0  0  0  0  0  0  0  0  0  0  0  0
   40.8654   15.7417  -13.3855 H   0  0  0  0  0  0  0  0  0  0  0  0
   39.5964   15.1527  -11.9850 C   0  0  0  0  0  0  0  0  0  0  0  0
   40.4667   16.0256  -11.2910 C   0  0  0  0  0  0  0  0  0  0  0  0
   40.2111   16.4330  -10.0015 C   0  0  0  0  0  0  0  0  0  0  0  0
   39.0938   16.0076   -9.3293 C   0  0  0  0  0  0  0  0  0  0  0  0
   38.2299   15.1648   -9.9791 C   0  0  0  0  0  0  0  0  0  0  0  0
   38.4768   14.7482  -11.2761 C   0  0  0  0  0  0  0  0  0  0  0  0
   38.8193   16.3733   -7.9583 C   0  0  0  0  0  0  0  0  0  0  0  0
   39.4188   15.7139   -6.9018 C   0  0  0  0  0  0  0  0  0  0  0  0
   39.1379   16.0284   -5.5966 C   0  0  0  0  0  0  0  0  0  0  0  0
   38.2312   17.0307   -5.3292 C   0  0  0  0  0  0  0  0  0  0  0  0
   37.6282   17.6957   -6.3617 C   0  0  0  0  0  0  0  0  0  0  0  0
   37.9186   17.3728   -7.6831 C   0  0  0  0  0  0  0  0  0  0  0  0
   37.1443   18.2735   -8.9204 S   0  0  0  0  0  0  0  0  0  0  0  0
   36.0725   19.4435   -8.1740 N   0  0  0  0  0  0  0  0  0  0  0  0
   36.1952   17.3739   -9.6945 O   0  0  0  0  0  0  0  0  0  0  0  0
   38.0769   19.0092   -9.8384 O   0  0  0  0  0  0  0  0  0  0  0  0
   35.2396   18.9747   -7.7596 H   0  0  0  0  0  0  0  0  0  0  0  0
   36.5802   19.9374   -7.4215 H   0  0  0  0  0  0  0  0  0  0  0  0
   37.9889   12.4031  -13.8196 O   0  0  0  0  0  0  0  0  0  0  0  0
   34.7086   13.8774  -13.1373 C   0  0  0  0  0  0  0  0  0  0  0  0
   33.9144   13.2990  -14.1053 C   0  0  0  0  0  0  0  0  0  0  0  0
   34.4152   12.4077  -15.0209 C   0  0  0  0  0  0  0  0  0  0  0  0
   35.7845   12.1070  -14.9289 C   0  0  0  0  0  0  0  0  0  0  0  0
   36.6054   12.6362  -14.0088 C   0  0  0  0  0  0  0  0  0  0  0  0
   36.0402   13.5565  -13.0816 C   0  0  0  0  0  0  0  0  0  0  0  0
   34.6966   15.1128  -11.0545 N   0  0  0  0  0  0  0  0  0  0  0  0
   34.1504   14.8191  -12.1588 C   0  0  0  0  0  0  0  0  0  0  0  0
   32.9055   15.4313  -12.4615 N   0  0  0  0  0  0  0  0  0  0  0  0
   35.5739   14.7924  -10.6487 H   0  0  0  0  0  0  0  0  0  0  0  0
   32.1062   15.1676  -11.8295 H   0  0  0  0  0  0  0  0  0  0  0  0
   32.7101   16.0912  -13.2196 H   0  0  0  0  0  0  0  0  0  0  0  0
 39 40  2  0  0  0
 40 41  1  0  0  0
 40 33  1  0  0  0
 33 34  2  0  0  0
 34 35  1  0  0  0
 35 36  2  0  0  0
 36 37  1  0  0  0
 37 32  1  0  0  0
 32  1  1  0  0  0
  1  2  2  0  0  0
  2  3  1  0  0  0
  3  4  2  0  0  0
  4  5  1  0  0  0
  4  6  1  0  0  0
  6  7  2  0  0  0
  7 10  1  0  0  0
 10 11  2  0  0  0
 10 12  1  0  0  0
 12 14  1  0  0  0
 14 15  2  0  0  0
 15 16  1  0  0  0
 16 17  2  0  0  0
 17 20  1  0  0  0
 20 21  2  0  0  0
 21 22  1  0  0  0
 22 23  2  0  0  0
 23 24  1  0  0  0
 24 25  2  0  0  0
 25 26  1  0  0  0
 26 27  1  0  0  0
 26 28  2  0  0  0
 26 29  2  0  0  0
 17 18  1  0  0  0
 18 19  2  0  0  0
 37 38  2  0  0  0
 38 33  1  0  0  0
  7  1  1  0  0  0
 19 14  1  0  0  0
 25 20  1  0  0  0
 39 42  1  0  0  0
 41 43  1  0  0  0
 41 44  1  0  0  0
  5  8  1  0  0  0
  5  9  1  0  0  0
 12 13  1  0  0  0
 27 30  1  0  0  0
 27 31  1  0  0  0
M  END
> <minimizedAffinity>
-8.36386

> <CNNscore>
0.2362651825

> <CNNaffinity>
6.6287293434

> <CNN_VS>
1.5661379099

> <CNNaffinity_variance>
0.3846034110

$$$$
[H]N1C(=NC2([H])C([H])([H])C([H])([H])C([H])([H])C([H])([H])C([H])([H])C([H])([H])C2([H])[H])O[C@@]2([H])C([H])([H])C([H])([H])C([H])([H])C([H])([H])[C@@]2([H])S1(=O)=O


 22 24  0  0  0  0  0  0  0  0999 V2000
   40.4128   11.4736   -7.5716 O   0  0  0  0  0  0  0  0  0  0  0  0
   40.5170   12.7270   -6.7598 S   0  0  0  0  0  0  0  0  0  0  0  0
   39.9962   12.5368   -5.3625 O   0  0  0  0  0  0  0  0  0  0  0  0
   39.6544   14.0400   -7.5226 N   0  0  0  0  0  0  0  0  0  0  0  0
   40.1486   15.3503   -7.3473 C   0  0  0  0  0  0  0  0  0  0  0  0
   39.3471   16.3384   -7.4236 N   0  0  0  0  0  0  0  0  0  0  0  0
   41.4716   15.5766   -7.0970 O   0  0  0  0  0  0  0  0  0  0  0  0
   42.3653   14.7165   -6.4850 C   0  0  0  0  0  0  0  0  0  0  0  0
   42.4147   15.0989   -4.9980 C   0  0  0  0  0  0  0  0  0  0  0  0
   43.7380   14.6203   -4.4718 C   0  0  0  0  0  0  0  0  0  0  0  0
   44.1019   13.2954   -5.0558 C   0  0  0  0  0  0  0  0  0  0  0  0
   42.8369   12.5475   -5.4814 C   0  0  0  0  0  0  0  0  0  0  0  0
   42.1923   13.2655   -6.6490 C   0  0  0  0  0  0  0  0  0  0  0  0
   38.8348   13.7801   -8.0596 H   0  0  0  0  0  0  0  0  0  0  0  0
   37.9407   16.2164   -7.6812 C   0  0  0  0  0  0  0  0  0  0  0  0
   37.0990   16.9297   -6.6505 C   0  0  0  0  0  0  0  0  0  0  0  0
   36.7102   18.3197   -7.0246 C   0  0  0  0  0  0  0  0  0  0  0  0
   37.8397   19.2846   -7.1522 C   0  0  0  0  0  0  0  0  0  0  0  0
   37.8538   19.9850   -8.5059 C   0  0  0  0  0  0  0  0  0  0  0  0
   37.6140   19.0474   -9.6443 C   0  0  0  0  0  0  0  0  0  0  0  0
   38.4875   17.8426   -9.5090 C   0  0  0  0  0  0  0  0  0  0  0  0
   37.6281   16.6738   -9.0858 C   0  0  0  0  0  0  0  0  0  0  0  0
  1  2  2  0  0  0
  2  3  2  0  0  0
  2  4  1  0  0  0
  4  5  1  0  0  0
  5  6  2  0  0  0
  6 15  1  0  0  0
 15 16  1  0  0  0
 16 17  1  0  0  0
 17 18  1  0  0  0
 18 19  1  0  0  0
 19 20  1  0  0  0
 20 21  1  0  0  0
 21 22  1  0  0  0
  5  7  1  0  0  0
  7  8  1  0  0  0
  8  9  1  0  0  0
  9 10  1  0  0  0
 10 11  1  0  0  0
 11 12  1  0  0  0
 12 13  1  0  0  0
 13  2  1  0  0  0
 22 15  1  0  0  0
 13  8  1  0  0  0
  4 14  1  0  0  0
M  END
> <minimizedAffinity>
-5.01496

> <CNNscore>
0.5583147407

> <CNNaffinity>
4.9221687317

> <CNN_VS>
2.7481193542

> <CNNaffinity_variance>
0.2363359183

$$$$
[H]N1C(=NC2([H])C([H])([H])C([H])([H])C([H])([H])C([H])([H])C([H])([H])C([H])([H])C2([H])[H])O[C@@]2([H])C([H])([H])C([H])([H])C([H])([H])C([H])([H])[C@@]2([H])S1(=O)=O


 22 24  0  0  0  0  0  0  0  0999 V2000
   41.6437   17.3992   -5.9633 O   0  0  0  0  0  0  0  0  0  0  0  0
   40.7527   16.2646   -6.3624 S   0  0  0  0  0  0  0  0  0  0  0  0
   40.6474   16.1308   -7.8561 O   0  0  0  0  0  0  0  0  0  0  0  0
   39.1538   16.4570   -5.6869 N   0  0  0  0  0  0  0  0  0  0  0  0
   38.4277   15.2928   -5.3564 C   0  0  0  0  0  0  0  0  0  0  0  0
   37.1535   15.3284   -5.3520 N   0  0  0  0  0  0  0  0  0  0  0  0
   39.0679   14.1288   -5.0414 O   0  0  0  0  0  0  0  0  0  0  0  0
   40.3211   13.7236   -5.4640 C   0  0  0  0  0  0  0  0  0  0  0  0
   40.1153   12.8272   -6.6944 C   0  0  0  0  0  0  0  0  0  0  0  0
   41.3254   11.9423   -6.7924 C   0  0  0  0  0  0  0  0  0  0  0  0
   42.5690   12.6906   -6.4425 C   0  0  0  0  0  0  0  0  0  0  0  0
   42.3687   14.1853   -6.7003 C   0  0  0  0  0  0  0  0  0  0  0  0
   41.3552   14.7374   -5.7192 C   0  0  0  0  0  0  0  0  0  0  0  0
   38.8347   17.4116   -5.5664 H   0  0  0  0  0  0  0  0  0  0  0  0
   36.3795   16.4950   -5.6667 C   0  0  0  0  0  0  0  0  0  0  0  0
   35.6704   16.3787   -6.9946 C   0  0  0  0  0  0  0  0  0  0  0  0
   34.2685   15.8788   -6.9048 C   0  0  0  0  0  0  0  0  0  0  0  0
   34.1213   14.4811   -6.4072 C   0  0  0  0  0  0  0  0  0  0  0  0
   33.1794   14.3872   -5.2124 C   0  0  0  0  0  0  0  0  0  0  0  0
   33.4212   15.4592   -4.2001 C   0  0  0  0  0  0  0  0  0  0  0  0
   34.8803   15.5536   -3.8918 C   0  0  0  0  0  0  0  0  0  0  0  0
   35.4258   16.8060   -4.5381 C   0  0  0  0  0  0  0  0  0  0  0  0
  1  2  2  0  0  0
  2  3  2  0  0  0
  2  4  1  0  0  0
  4  5  1  0  0  0
  5  6  2  0  0  0
  6 15  1  0  0  0
 15 16  1  0  0  0
 16 17  1  0  0  0
 17 18  1  0  0  0
 18 19  1  0  0  0
 19 20  1  0  0  0
 20 21  1  0  0  0
 21 22  1  0  0  0
  5  7  1  0  0  0
  7  8  1  0  0  0
  8  9  1  0  0  0
  9 10  1  0  0  0
 10 11  1  0  0  0
 11 12  1  0  0  0
 12 13  1  0  0  0
 13  2  1  0  0  0
 22 15  1  0  0  0
 13  8  1  0  0  0
  4 14  1  0  0  0
M  END
> <minimizedAffinity>
-4.54574

> <CNNscore>
0.5439435244

> <CNNaffinity>
4.9866833687

> <CNN_VS>
2.7124741077

> <CNNaffinity_variance>
0.5540975928

$$$$
[H]N1C(=NC2([H])C([H])([H])C([H])([H])C([H])([H])C([H])([H])C([H])([H])C([H])([H])C2([H])[H])O[C@@]2([H])C([H])([H])C([H])([H])C([H])([H])C([H])([H])[C@@]2([H])S1(=O)=O


 22 24  0  0  0  0  0  0  0  0999 V2000
   36.6709   13.6057   -4.3982 O   0  0  0  0  0  0  0  0  0  0  0  0
   37.0642   13.8588   -5.8202 S   0  0  0  0  0  0  0  0  0  0  0  0
   36.9056   12.6319   -6.6743 O   0  0  0  0  0  0  0  0  0  0  0  0
   38.7139   14.4228   -5.9222 N   0  0  0  0  0  0  0  0  0  0  0  0
   39.0472   15.3168   -6.9622 C   0  0  0  0  0  0  0  0  0  0  0  0
   40.2466   15.3604   -7.3914 N   0  0  0  0  0  0  0  0  0  0  0  0
   38.1057   16.1357   -7.5161 O   0  0  0  0  0  0  0  0  0  0  0  0
   36.7427   15.9120   -7.5896 C   0  0  0  0  0  0  0  0  0  0  0  0
   36.4596   15.2945   -8.9674 C   0  0  0  0  0  0  0  0  0  0  0  0
   35.0221   15.5914   -9.2875 C   0  0  0  0  0  0  0  0  0  0  0  0
   34.1639   15.4703   -8.0719 C   0  0  0  0  0  0  0  0  0  0  0  0
   34.8146   14.5181   -7.0666 C   0  0  0  0  0  0  0  0  0  0  0  0
   36.0827   15.1437   -6.5236 C   0  0  0  0  0  0  0  0  0  0  0  0
   39.3479   14.0709   -5.2138 H   0  0  0  0  0  0  0  0  0  0  0  0
   41.3137   14.5464   -6.8835 C   0  0  0  0  0  0  0  0  0  0  0  0
   41.8935   13.6299   -7.9339 C   0  0  0  0  0  0  0  0  0  0  0  0
   43.0890   14.1756   -8.6385 C   0  0  0  0  0  0  0  0  0  0  0  0
   42.8419   15.3934   -9.4624 C   0  0  0  0  0  0  0  0  0  0  0  0
   43.7701   16.5436   -9.0897 C   0  0  0  0  0  0  0  0  0  0  0  0
   43.9026   16.7240   -7.6124 C   0  0  0  0  0  0  0  0  0  0  0  0
   42.5521   16.7242   -6.9727 C   0  0  0  0  0  0  0  0  0  0  0  0
   42.3691   15.4145   -6.2412 C   0  0  0  0  0  0  0  0  0  0  0  0
  1  2  2  0  0  0
  2  3  2  0  0  0
  2  4  1  0  0  0
  4  5  1  0  0  0
  5  6  2  0  0  0
  6 15  1  0  0  0
 15 16  1  0  0  0
 16 17  1  0  0  0
 17 18  1  0  0  0
 18 19  1  0  0  0
 19 20  1  0  0  0
 20 21  1  0  0  0
 21 22  1  0  0  0
  5  7  1  0  0  0
  7  8  1  0  0  0
  8  9  1  0  0  0
  9 10  1  0  0  0
 10 11  1  0  0  0
 11 12  1  0  0  0
 12 13  1  0  0  0
 13  2  1  0  0  0
 22 15  1  0  0  0
 13  8  1  0  0  0
  4 14  1  0  0  0
M  END
> <minimizedAffinity>
-4.79569

> <CNNscore>
0.5430682302

> <CNNaffinity>
5.0901656151

> <CNN_VS>
2.7643072605

> <CNNaffinity_variance>
0.2159322947

$$$$
[H]N1C(=NC2([H])C([H])([H])C([H])([H])C([H])([H])C([H])([H])C([H])([H])C([H])([H])C2([H])[H])O[C@@]2([H])C([H])([H])C([H])([H])C([H])([H])C([H])([H])[C@@]2([H])S1(=O)=O


 22 24  0  0  0  0  0  0  0  0999 V2000
   35.9119   14.2697   -8.9587 O   0  0  0  0  0  0  0  0  0  0  0  0
   36.5701   14.6909   -7.6820 S   0  0  0  0  0  0  0  0  0  0  0  0
   36.6320   16.1870   -7.5482 O   0  0  0  0  0  0  0  0  0  0  0  0
   38.1840   14.0344   -7.5638 N   0  0  0  0  0  0  0  0  0  0  0  0
   38.6828   13.7242   -6.2804 C   0  0  0  0  0  0  0  0  0  0  0  0
   39.9410   13.7360   -6.0768 N   0  0  0  0  0  0  0  0  0  0  0  0
   37.8392   13.4118   -5.2534 O   0  0  0  0  0  0  0  0  0  0  0  0
   36.5277   13.8218   -5.0949 C   0  0  0  0  0  0  0  0  0  0  0  0
   36.5484   15.0631   -4.1902 C   0  0  0  0  0  0  0  0  0  0  0  0
   35.1929   15.1535   -3.5487 C   0  0  0  0  0  0  0  0  0  0  0  0
   34.1154   14.7806   -4.5125 C   0  0  0  0  0  0  0  0  0  0  0  0
   34.5895   15.0271   -5.9461 C   0  0  0  0  0  0  0  0  0  0  0  0
   35.6992   14.0541   -6.2873 C   0  0  0  0  0  0  0  0  0  0  0  0
   38.6776   13.9092   -8.4403 H   0  0  0  0  0  0  0  0  0  0  0  0
   40.9164   14.0499   -7.0814 C   0  0  0  0  0  0  0  0  0  0  0  0
   41.9265   15.0682   -6.6098 C   0  0  0  0  0  0  0  0  0  0  0  0
   43.1781   14.4832   -6.0489 C   0  0  0  0  0  0  0  0  0  0  0  0
   43.0054   13.6888   -4.7990 C   0  0  0  0  0  0  0  0  0  0  0  0
   43.5814   12.2829   -4.9214 C   0  0  0  0  0  0  0  0  0  0  0  0
   43.2260   11.6232   -6.2141 C   0  0  0  0  0  0  0  0  0  0  0  0
   41.7624   11.7685   -6.4785 C   0  0  0  0  0  0  0  0  0  0  0  0
   41.5740   12.7855   -7.5802 C   0  0  0  0  0  0  0  0  0  0  0  0
  1  2  2  0  0  0
  2  3  2  0  0  0
  2  4  1  0  0  0
  4  5  1  0  0  0
  5  6  2  0  0  0
  6 15  1  0  0  0
 15 16  1  0  0  0
 16 17  1  0  0  0
 17 18  1  0  0  0
 18 19  1  0  0  0
 19 20  1  0  0  0
 20 21  1  0  0  0
 21 22  1  0  0  0
  5  7  1  0  0  0
  7  8  1  0  0  0
  8  9  1  0  0  0
  9 10  1  0  0  0
 10 11  1  0  0  0
 11 12  1  0  0  0
 12 13  1  0  0  0
 13  2  1  0  0  0
 22 15  1  0  0  0
 13  8  1  0  0  0
  4 14  1  0  0  0
M  END
> <minimizedAffinity>
-4.95927

> <CNNscore>
0.4840236902

> <CNNaffinity>
4.8919944763

> <CNN_VS>
2.3678412437

> <CNNaffinity_variance>
0.2479579896

$$$$
[H]N1C(=NC2([H])C([H])([H])C([H])([H])C([H])([H])C([H])([H])C([H])([H])C([H])([H])C2([H])[H])O[C@@]2([H])C([H])([H])C([H])([H])C([H])([H])C([H])([H])[C@@]2([H])S1(=O)=O


 22 24  0  0  0  0  0  0  0  0999 V2000
   40.6208   11.7284   -7.4780 O   0  0  0  0  0  0  0  0  0  0  0  0
   40.1791   12.7657   -6.4933 S   0  0  0  0  0  0  0  0  0  0  0  0
   40.2555   12.2658   -5.0776 O   0  0  0  0  0  0  0  0  0  0  0  0
   38.5492   13.2947   -6.8305 N   0  0  0  0  0  0  0  0  0  0  0  0
   38.2075   14.6296   -6.5253 C   0  0  0  0  0  0  0  0  0  0  0  0
   36.9940   14.9236   -6.2692 N   0  0  0  0  0  0  0  0  0  0  0  0
   39.1559   15.6114   -6.4999 O   0  0  0  0  0  0  0  0  0  0  0  0
   40.5052   15.4632   -6.2343 C   0  0  0  0  0  0  0  0  0  0  0  0
   40.7076   15.7628   -4.7413 C   0  0  0  0  0  0  0  0  0  0  0  0
   42.1409   16.1807   -4.5742 C   0  0  0  0  0  0  0  0  0  0  0  0
   43.0433   15.3678   -5.4424 C   0  0  0  0  0  0  0  0  0  0  0  0
   42.3988   14.0125   -5.7404 C   0  0  0  0  0  0  0  0  0  0  0  0
   41.1788   14.2129   -6.6155 C   0  0  0  0  0  0  0  0  0  0  0  0
   37.9320   12.6003   -7.2359 H   0  0  0  0  0  0  0  0  0  0  0  0
   35.9185   13.9735   -6.2671 C   0  0  0  0  0  0  0  0  0  0  0  0
   35.4100   13.6773   -4.8767 C   0  0  0  0  0  0  0  0  0  0  0  0
   34.2411   14.5028   -4.4574 C   0  0  0  0  0  0  0  0  0  0  0  0
   34.5058   15.9647   -4.3325 C   0  0  0  0  0  0  0  0  0  0  0  0
   33.5382   16.8019   -5.1609 C   0  0  0  0  0  0  0  0  0  0  0  0
   33.3282   16.2526   -6.5344 C   0  0  0  0  0  0  0  0  0  0  0  0
   34.6446   15.9361   -7.1668 C   0  0  0  0  0  0  0  0  0  0  0  0
   34.8158   14.4348   -7.1896 C   0  0  0  0  0  0  0  0  0  0  0  0
  1  2  2  0  0  0
  2  3  2  0  0  0
  2  4  1  0  0  0
  4  5  1  0  0  0
  5  6  2  0  0  0
  6 15  1  0  0  0
 15 16  1  0  0  0
 16 17  1  0  0  0
 17 18  1  0  0  0
 18 19  1  0  0  0
 19 20  1  0  0  0
 20 21  1  0  0  0
 21 22  1  0  0  0
  5  7  1  0  0  0
  7  8  1  0  0  0
  8  9  1  0  0  0
  9 10  1  0  0  0
 10 11  1  0  0  0
 11 12  1  0  0  0
 12 13  1  0  0  0
 13  2  1  0  0  0
 22 15  1  0  0  0
 13  8  1  0  0  0
  4 14  1  0  0  0
M  END
> <minimizedAffinity>
-5.13089

> <CNNscore>
0.4762005806

> <CNNaffinity>
4.7876291275

> <CNN_VS>
2.2798717022

> <CNNaffinity_variance>
0.0830304027

$$$$
[H]N1C(=NC2([H])C([H])([H])C([H])([H])C([H])([H])C([H])([H])C([H])([H])C([H])([H])C2([H])[H])O[C@@]2([H])C([H])([H])C([H])([H])C([H])([H])C([H])([H])[C@@]2([H])S1(=O)=O


 22 24  0  0  0  0  0  0  0  0999 V2000
   36.8196   12.6251   -6.4947 O   0  0  0  0  0  0  0  0  0  0  0  0
   37.8808   13.6763   -6.5915 S   0  0  0  0  0  0  0  0  0  0  0  0
   37.8411   14.3956   -7.9110 O   0  0  0  0  0  0  0  0  0  0  0  0
   39.4681   12.9864   -6.3588 N   0  0  0  0  0  0  0  0  0  0  0  0
   40.4589   13.7885   -5.7532 C   0  0  0  0  0  0  0  0  0  0  0  0
   41.6881   13.5643   -6.0055 N   0  0  0  0  0  0  0  0  0  0  0  0
   40.1222   14.8010   -4.9014 O   0  0  0  0  0  0  0  0  0  0  0  0
   38.9445   15.5265   -4.8899 C   0  0  0  0  0  0  0  0  0  0  0  0
   39.1952   16.8080   -5.6990 C   0  0  0  0  0  0  0  0  0  0  0  0
   38.1988   17.8247   -5.2188 C   0  0  0  0  0  0  0  0  0  0  0  0
   36.8724   17.1938   -4.9516 C   0  0  0  0  0  0  0  0  0  0  0  0
   36.7182   15.9262   -5.7943 C   0  0  0  0  0  0  0  0  0  0  0  0
   37.6956   14.8746   -5.3113 C   0  0  0  0  0  0  0  0  0  0  0  0
   39.5877   12.0309   -6.6756 H   0  0  0  0  0  0  0  0  0  0  0  0
   42.1541   12.5294   -6.8835 C   0  0  0  0  0  0  0  0  0  0  0  0
   43.1668   13.0315   -7.8844 C   0  0  0  0  0  0  0  0  0  0  0  0
   44.5875   12.8585   -7.4659 C   0  0  0  0  0  0  0  0  0  0  0  0
   44.9975   13.6412   -6.2650 C   0  0  0  0  0  0  0  0  0  0  0  0
   45.6091   12.7615   -5.1808 C   0  0  0  0  0  0  0  0  0  0  0  0
   44.8373   11.5023   -4.9545 C   0  0  0  0  0  0  0  0  0  0  0  0
   43.3814   11.8106   -4.8192 C   0  0  0  0  0  0  0  0  0  0  0  0
   42.6785   11.3634   -6.0801 C   0  0  0  0  0  0  0  0  0  0  0  0
  1  2  2  0  0  0
  2  3  2  0  0  0
  2  4  1  0  0  0
  4  5  1  0  0  0
  5  6  2  0  0  0
  6 15  1  0  0  0
 15 16  1  0  0  0
 16 17  1  0  0  0
 17 18  1  0  0  0
 18 19  1  0  0  0
 19 20  1  0  0  0
 20 21  1  0  0  0
 21 22  1  0  0  0
  5  7  1  0  0  0
  7  8  1  0  0  0
  8  9  1  0  0  0
  9 10  1  0  0  0
 10 11  1  0  0  0
 11 12  1  0  0  0
 12 13  1  0  0  0
 13  2  1  0  0  0
 22 15  1  0  0  0
 13  8  1  0  0  0
  4 14  1  0  0  0
M  END
> <minimizedAffinity>
-4.65708

> <CNNscore>
0.4535402358

> <CNNaffinity>
4.8651361465

> <CNN_VS>
2.2065351009

> <CNNaffinity_variance>
0.2214198858

$$$$
[H]N1C(=NC2([H])C([H])([H])C([H])([H])C([H])([H])C([H])([H])C([H])([H])C([H])([H])C2([H])[H])O[C@@]2([H])C([H])([H])C([H])([H])C([H])([H])C([H])([H])[C@@]2([H])S1(=O)=O


 22 24  0  0  0  0  0  0  0  0999 V2000
   37.0979   14.2429  -11.4154 O   0  0  0  0  0  0  0  0  0  0  0  0
   37.6447   15.2894  -10.4954 S   0  0  0  0  0  0  0  0  0  0  0  0
   37.7793   16.6226  -11.1769 O   0  0  0  0  0  0  0  0  0  0  0  0
   39.1972   14.8103   -9.8549 N   0  0  0  0  0  0  0  0  0  0  0  0
   39.5425   15.2430   -8.5567 C   0  0  0  0  0  0  0  0  0  0  0  0
   40.7716   15.3708   -8.2444 N   0  0  0  0  0  0  0  0  0  0  0  0
   38.5812   15.5272   -7.6298 O   0  0  0  0  0  0  0  0  0  0  0  0
   37.2863   15.9495   -7.8713 C   0  0  0  0  0  0  0  0  0  0  0  0
   37.2858   17.4828   -7.7765 C   0  0  0  0  0  0  0  0  0  0  0  0
   35.8792   17.8955   -7.4481 C   0  0  0  0  0  0  0  0  0  0  0  0
   34.8867   17.0554   -8.1816 C   0  0  0  0  0  0  0  0  0  0  0  0
   35.5191   16.4944   -9.4568 C   0  0  0  0  0  0  0  0  0  0  0  0
   36.5996   15.4980   -9.0906 C   0  0  0  0  0  0  0  0  0  0  0  0
   39.7701   14.2361  -10.4628 H   0  0  0  0  0  0  0  0  0  0  0  0
   41.8617   15.1008   -9.1377 C   0  0  0  0  0  0  0  0  0  0  0  0
   42.6327   16.3462   -9.5038 C   0  0  0  0  0  0  0  0  0  0  0  0
   43.8291   16.6050   -8.6523 C   0  0  0  0  0  0  0  0  0  0  0  0
   43.5403   16.8892   -7.2174 C   0  0  0  0  0  0  0  0  0  0  0  0
   44.3044   15.9636   -6.2779 C   0  0  0  0  0  0  0  0  0  0  0  0
   44.2722   14.5367   -6.7197 C   0  0  0  0  0  0  0  0  0  0  0  0
   42.8727   14.1357   -7.0566 C   0  0  0  0  0  0  0  0  0  0  0  0
   42.7543   14.0289   -8.5594 C   0  0  0  0  0  0  0  0  0  0  0  0
  1  2  2  0  0  0
  2  3  2  0  0  0
  2  4  1  0  0  0
  4  5  1  0  0  0
  5  6  2  0  0  0
  6 15  1  0  0  0
 15 16  1  0  0  0
 16 17  1  0  0  0
 17 18  1  0  0  0
 18 19  1  0  0  0
 19 20  1  0  0  0
 20 21  1  0  0  0
 21 22  1  0  0  0
  5  7  1  0  0  0
  7  8  1  0  0  0
  8  9  1  0  0  0
  9 10  1  0  0  0
 10 11  1  0  0  0
 11 12  1  0  0  0
 12 13  1  0  0  0
 13  2  1  0  0  0
 22 15  1  0  0  0
 13  8  1  0  0  0
  4 14  1  0  0  0
M  END
> <minimizedAffinity>
-4.63050

> <CNNscore>
0.3898684382

> <CNNaffinity>
5.1046881676

> <CNN_VS>
1.9901567698

> <CNNaffinity_variance>
0.5636255741

$$$$
[H]N1C(=NC2([H])C([H])([H])C([H])([H])C([H])([H])C([H])([H])C([H])([H])C([H])([H])C2([H])[H])O[C@@]2([H])C([H])([H])C([H])([H])C([H])([H])C([H])([H])[C@@]2([H])S1(=O)=O


 22 24  0  0  0  0  0  0  0  0999 V2000
   37.7619   13.9617   -4.5851 O   0  0  0  0  0  0  0  0  0  0  0  0
   38.7956   13.8084   -5.6568 S   0  0  0  0  0  0  0  0  0  0  0  0
   38.3472   12.8674   -6.7401 O   0  0  0  0  0  0  0  0  0  0  0  0
   40.3078   13.2423   -4.9913 N   0  0  0  0  0  0  0  0  0  0  0  0
   41.5047   13.6623   -5.6102 C   0  0  0  0  0  0  0  0  0  0  0  0
   42.5462   12.9329   -5.5212 N   0  0  0  0  0  0  0  0  0  0  0  0
   41.5650   14.8372   -6.3029 O   0  0  0  0  0  0  0  0  0  0  0  0
   40.5238   15.4836   -6.9442 C   0  0  0  0  0  0  0  0  0  0  0  0
   40.5674   15.0576   -8.4194 C   0  0  0  0  0  0  0  0  0  0  0  0
   39.8818   16.1406   -9.2030 C   0  0  0  0  0  0  0  0  0  0  0  0
   38.6916   16.6644   -8.4695 C   0  0  0  0  0  0  0  0  0  0  0  0
   38.1576   15.5973   -7.5120 C   0  0  0  0  0  0  0  0  0  0  0  0
   39.1620   15.3636   -6.4025 C   0  0  0  0  0  0  0  0  0  0  0  0
   40.2373   12.6357   -4.1822 H   0  0  0  0  0  0  0  0  0  0  0  0
   42.5956   11.6818   -4.8201 C   0  0  0  0  0  0  0  0  0  0  0  0
   42.6182   10.4953   -5.7535 C   0  0  0  0  0  0  0  0  0  0  0  0
   43.9830    9.9893   -6.0769 C   0  0  0  0  0  0  0  0  0  0  0  0
   44.8496   10.9354   -6.8365 C   0  0  0  0  0  0  0  0  0  0  0  0
   46.1852   11.1813   -6.1444 C   0  0  0  0  0  0  0  0  0  0  0  0
   46.0419   11.4043   -4.6740 C   0  0  0  0  0  0  0  0  0  0  0  0
   44.9613   12.4021   -4.4096 C   0  0  0  0  0  0  0  0  0  0  0  0
   43.7594   11.6707   -3.8581 C   0  0  0  0  0  0  0  0  0  0  0  0
  1  2  2  0  0  0
  2  3  2  0  0  0
  2  4  1  0  0  0
  4  5  1  0  0  0
  5  6  2  0  0  0
  6 15  1  0  0  0
 15 16  1  0  0  0
 16 17  1  0  0  0
 17 18  1  0  0  0
 18 19  1  0  0  0
 19 20  1  0  0  0
 20 21  1  0  0  0
 21 22  1  0  0  0
  5  7  1  0  0  0
  7  8  1  0  0  0
  8  9  1  0  0  0
  9 10  1  0  0  0
 10 11  1  0  0  0
 11 12  1  0  0  0
 12 13  1  0  0  0
 13  2  1  0  0  0
 22 15  1  0  0  0
 13  8  1  0  0  0
  4 14  1  0  0  0
M  END
> <minimizedAffinity>
-4.97832

> <CNNscore>
0.3724324405

> <CNNaffinity>
4.7223138809

> <CNN_VS>
1.7587429285

> <CNNaffinity_variance>
0.1482193768

$$$$
[H]N1C(=NC2([H])C([H])([H])C([H])([H])C([H])([H])C([H])([H])C([H])([H])C([H])([H])C2([H])[H])O[C@@]2([H])C([H])([H])C([H])([H])C([H])([H])C([H])([H])[C@@]2([H])S1(=O)=O


 22 24  0  0  0  0  0  0  0  0999 V2000
   39.7789   14.2991   -8.0948 O   0  0  0  0  0  0  0  0  0  0  0  0
   38.5942   15.2075   -8.2055 S   0  0  0  0  0  0  0  0  0  0  0  0
   39.0006   16.6506   -8.3154 O   0  0  0  0  0  0  0  0  0  0  0  0
   37.5260   15.0122   -6.8378 N   0  0  0  0  0  0  0  0  0  0  0  0
   36.1429   15.2049   -7.0422 C   0  0  0  0  0  0  0  0  0  0  0  0
   35.4096   15.5709   -6.0660 N   0  0  0  0  0  0  0  0  0  0  0  0
   35.5776   15.0057   -8.2689 O   0  0  0  0  0  0  0  0  0  0  0  0
   36.1938   15.1217   -9.5018 C   0  0  0  0  0  0  0  0  0  0  0  0
   35.8994   16.5364  -10.0230 C   0  0  0  0  0  0  0  0  0  0  0  0
   36.0267   16.4816  -11.5189 C   0  0  0  0  0  0  0  0  0  0  0  0
   37.1649   15.6075  -11.9305 C   0  0  0  0  0  0  0  0  0  0  0  0
   38.2049   15.5430  -10.8102 C   0  0  0  0  0  0  0  0  0  0  0  0
   37.6246   14.8044   -9.6219 C   0  0  0  0  0  0  0  0  0  0  0  0
   37.9690   14.7644   -5.9603 H   0  0  0  0  0  0  0  0  0  0  0  0
   35.8973   15.8089   -4.7376 C   0  0  0  0  0  0  0  0  0  0  0  0
   36.4087   17.2173   -4.5520 C   0  0  0  0  0  0  0  0  0  0  0  0
   35.4053   18.1712   -3.9981 C   0  0  0  0  0  0  0  0  0  0  0  0
   34.2266   18.4347   -4.8722 C   0  0  0  0  0  0  0  0  0  0  0  0
   32.9054   18.1759   -4.1575 C   0  0  0  0  0  0  0  0  0  0  0  0
   32.9126   16.9051   -3.3718 C   0  0  0  0  0  0  0  0  0  0  0  0
   33.4470   15.7881   -4.2081 C   0  0  0  0  0  0  0  0  0  0  0  0
   34.8379   15.4504   -3.7231 C   0  0  0  0  0  0  0  0  0  0  0  0
  1  2  2  0  0  0
  2  3  2  0  0  0
  2  4  1  0  0  0
  4  5  1  0  0  0
  5  6  2  0  0  0
  6 15  1  0  0  0
 15 16  1  0  0  0
 16 17  1  0  0  0
 17 18  1  0  0  0
 18 19  1  0  0  0
 19 20  1  0  0  0
 20 21  1  0  0  0
 21 22  1  0  0  0
  5  7  1  0  0  0
  7  8  1  0  0  0
  8  9  1  0  0  0
  9 10  1  0  0  0
 10 11  1  0  0  0
 11 12  1  0  0  0
 12 13  1  0  0  0
 13  2  1  0  0  0
 22 15  1  0  0  0
 13  8  1  0  0  0
  4 14  1  0  0  0
M  END
> <minimizedAffinity>
-4.81849

> <CNNscore>
0.3657394648

> <CNNaffinity>
4.8127427101

> <CNN_VS>
1.7602099180

> <CNNaffinity_variance>
0.2371298969

$$$$
[H]C(=NN([H])C(=S)N([H])C([H])([H])c1c([H])c([H])c(OC([H])(C([H])([H])[H])C([H])([H])[H])c([H])c1[H])c1c([H])c([H])c([N+](=O)[O-])c([H])c1[H]


 28 29  0  0  0  0  0  0  0  0999 V2000
   34.7995   11.6733  -16.0360 C   0  0  0  0  0  0  0  0  0  0  0  0
   33.8871   10.5732  -16.8127 S   0  0  0  0  0  0  0  0  0  0  0  0
   34.2308   12.4377  -14.9997 N   0  0  0  0  0  0  0  0  0  0  0  0
   33.5358   13.1784  -15.2088 H   0  0  0  0  0  0  0  0  0  0  0  0
   34.6094   12.1991  -13.6269 C   0  0  0  0  0  0  0  0  0  0  0  0
   37.4831   15.0760  -12.2546 C   0  0  0  0  0  0  0  0  0  0  0  0
   36.1157   15.3538  -12.2699 C   0  0  0  0  0  0  0  0  0  0  0  0
   35.2090   14.4194  -12.7132 C   0  0  0  0  0  0  0  0  0  0  0  0
   35.6153   13.1801  -13.1566 C   0  0  0  0  0  0  0  0  0  0  0  0
   36.9666   12.9406  -13.1279 C   0  0  0  0  0  0  0  0  0  0  0  0
   37.9108   13.8625  -12.6861 C   0  0  0  0  0  0  0  0  0  0  0  0
   38.3471   16.0405  -11.8034 O   0  0  0  0  0  0  0  0  0  0  0  0
   39.8083   16.6810   -9.9824 C   0  0  0  0  0  0  0  0  0  0  0  0
   39.5957   15.8450  -11.2438 C   0  0  0  0  0  0  0  0  0  0  0  0
   40.6723   16.2758  -12.2411 C   0  0  0  0  0  0  0  0  0  0  0  0
   36.1649   11.8682  -16.3957 N   0  0  0  0  0  0  0  0  0  0  0  0
   36.7390   12.6470  -15.9589 H   0  0  0  0  0  0  0  0  0  0  0  0
   36.7864   11.0772  -17.3049 N   0  0  0  0  0  0  0  0  0  0  0  0
   37.9372   10.8740  -17.6777 C   0  0  0  0  0  0  0  0  0  0  0  0
   39.1496   11.4956  -17.2023 C   0  0  0  0  0  0  0  0  0  0  0  0
   40.3564   11.4901  -17.8626 C   0  0  0  0  0  0  0  0  0  0  0  0
   41.4978   12.1080  -17.3559 C   0  0  0  0  0  0  0  0  0  0  0  0
   41.4737   12.7659  -16.1483 C   0  0  0  0  0  0  0  0  0  0  0  0
   40.2809   12.7883  -15.4644 C   0  0  0  0  0  0  0  0  0  0  0  0
   39.1660   12.1776  -15.9726 C   0  0  0  0  0  0  0  0  0  0  0  0
   42.6496   13.3968  -15.6364 N   0  0  0  0  0  0  0  0  0  0  0  0
   43.5704   13.6908  -16.4216 O   0  0  0  0  0  0  0  0  0  0  0  0
   42.6970   13.6460  -14.2888 O   0  0  0  0  0  0  0  0  0  0  0  0
 13 14  1  0  0  0
 14 15  1  0  0  0
 14 12  1  0  0  0
 12  6  1  0  0  0
  6  7  2  0  0  0
  7  8  1  0  0  0
  8  9  2  0  0  0
  9  5  1  0  0  0
  5  3  1  0  0  0
  3  1  1  0  0  0
  1  2  2  0  0  0
  1 16  1  0  0  0
 16 18  1  0  0  0
 18 19  2  0  0  0
 19 20  1  0  0  0
 20 21  2  0  0  0
 21 22  1  0  0  0
 22 23  2  0  0  0
 23 26  1  0  0  0
 26 27  2  0  0  0
 26 28  1  0  0  0
 23 24  1  0  0  0
 24 25  2  0  0  0
  9 10  1  0  0  0
 10 11  2  0  0  0
 11  6  1  0  0  0
 25 20  1  0  0  0
  3  4  1  0  0  0
 16 17  1  0  0  0
M  CHG 1  26   1
M  CHG 1  28  -1
M  END
> <minimizedAffinity>
-7.50449

> <CNNscore>
0.6467652321

> <CNNaffinity>
6.6705741882

> <CNN_VS>
4.3142952919

> <CNNaffinity_variance>
0.0383110419

$$$$
[H]C(=NN([H])C(=S)N([H])C([H])([H])c1c([H])c([H])c(OC([H])(C([H])([H])[H])C([H])([H])[H])c([H])c1[H])c1c([H])c([H])c([N+](=O)[O-])c([H])c1[H]


 28 29  0  0  0  0  0  0  0  0999 V2000
   39.6535   15.6143  -11.3863 C   0  0  0  0  0  0  0  0  0  0  0  0
   40.1932   16.5594  -10.1775 S   0  0  0  0  0  0  0  0  0  0  0  0
   38.4981   14.8339  -11.1926 N   0  0  0  0  0  0  0  0  0  0  0  0
   38.5233   13.9928  -10.5863 H   0  0  0  0  0  0  0  0  0  0  0  0
   37.2582   15.1959  -11.8379 C   0  0  0  0  0  0  0  0  0  0  0  0
   36.1776   12.4389  -14.9442 C   0  0  0  0  0  0  0  0  0  0  0  0
   36.1028   13.8200  -15.1294 C   0  0  0  0  0  0  0  0  0  0  0  0
   36.4533   14.6887  -14.1224 C   0  0  0  0  0  0  0  0  0  0  0  0
   36.8892   14.2298  -12.8989 C   0  0  0  0  0  0  0  0  0  0  0  0
   36.9507   12.8665  -12.7513 C   0  0  0  0  0  0  0  0  0  0  0  0
   36.6040   11.9596  -13.7482 C   0  0  0  0  0  0  0  0  0  0  0  0
   35.8172   11.6142  -15.9787 O   0  0  0  0  0  0  0  0  0  0  0  0
   33.5429   11.3719  -15.1847 C   0  0  0  0  0  0  0  0  0  0  0  0
   34.5363   11.2394  -16.3383 C   0  0  0  0  0  0  0  0  0  0  0  0
   34.5350    9.7664  -16.7502 C   0  0  0  0  0  0  0  0  0  0  0  0
   40.3392   15.5707  -12.6351 N   0  0  0  0  0  0  0  0  0  0  0  0
   39.8940   15.9601  -13.5167 H   0  0  0  0  0  0  0  0  0  0  0  0
   41.5783   15.0331  -12.7539 N   0  0  0  0  0  0  0  0  0  0  0  0
   42.1461   14.2483  -13.5065 C   0  0  0  0  0  0  0  0  0  0  0  0
   41.6006   13.5610  -14.6521 C   0  0  0  0  0  0  0  0  0  0  0  0
   42.3341   13.0724  -15.7083 C   0  0  0  0  0  0  0  0  0  0  0  0
   41.7539   12.4150  -16.7912 C   0  0  0  0  0  0  0  0  0  0  0  0
   40.3942   12.2188  -16.8586 C   0  0  0  0  0  0  0  0  0  0  0  0
   39.6342   12.6964  -15.8169 C   0  0  0  0  0  0  0  0  0  0  0  0
   40.2158   13.3407  -14.7582 C   0  0  0  0  0  0  0  0  0  0  0  0
   39.8078   11.5433  -17.9734 N   0  0  0  0  0  0  0  0  0  0  0  0
   40.4500   11.4589  -19.0371 O   0  0  0  0  0  0  0  0  0  0  0  0
   38.5521   11.0190  -17.8050 O   0  0  0  0  0  0  0  0  0  0  0  0
 13 14  1  0  0  0
 14 15  1  0  0  0
 14 12  1  0  0  0
 12  6  1  0  0  0
  6  7  2  0  0  0
  7  8  1  0  0  0
  8  9  2  0  0  0
  9  5  1  0  0  0
  5  3  1  0  0  0
  3  1  1  0  0  0
  1  2  2  0  0  0
  1 16  1  0  0  0
 16 18  1  0  0  0
 18 19  2  0  0  0
 19 20  1  0  0  0
 20 21  2  0  0  0
 21 22  1  0  0  0
 22 23  2  0  0  0
 23 26  1  0  0  0
 26 27  2  0  0  0
 26 28  1  0  0  0
 23 24  1  0  0  0
 24 25  2  0  0  0
  9 10  1  0  0  0
 10 11  2  0  0  0
 11  6  1  0  0  0
 25 20  1  0  0  0
  3  4  1  0  0  0
 16 17  1  0  0  0
M  CHG 1  26   1
M  CHG 1  28  -1
M  END
> <minimizedAffinity>
-7.26719

> <CNNscore>
0.4330404997

> <CNNaffinity>
6.3342599869

> <CNN_VS>
2.7429912090

> <CNNaffinity_variance>
0.0370708480

$$$$
[H]C(=NN([H])C(=S)N([H])C([H])([H])c1c([H])c([H])c(OC([H])(C([H])([H])[H])C([H])([H])[H])c([H])c1[H])c1c([H])c([H])c([N+](=O)[O-])c([H])c1[H]


 28 29  0  0  0  0  0  0  0  0999 V2000
   35.8540   14.4028  -12.9644 C   0  0  0  0  0  0  0  0  0  0  0  0
   35.3956   12.8455  -13.0665 S   0  0  0  0  0  0  0  0  0  0  0  0
   35.1134   15.2918  -12.1626 N   0  0  0  0  0  0  0  0  0  0  0  0
   34.0805   15.2177  -12.1057 H   0  0  0  0  0  0  0  0  0  0  0  0
   35.7850   16.3222  -11.4062 C   0  0  0  0  0  0  0  0  0  0  0  0
   37.7342   14.7526   -7.9198 C   0  0  0  0  0  0  0  0  0  0  0  0
   38.4498   15.3743   -8.9439 C   0  0  0  0  0  0  0  0  0  0  0  0
   37.8082   15.8715  -10.0542 C   0  0  0  0  0  0  0  0  0  0  0  0
   36.4414   15.7748  -10.1958 C   0  0  0  0  0  0  0  0  0  0  0  0
   35.7692   15.1579   -9.1703 C   0  0  0  0  0  0  0  0  0  0  0  0
   36.3863   14.6440   -8.0338 C   0  0  0  0  0  0  0  0  0  0  0  0
   38.4196   14.2732   -6.8331 O   0  0  0  0  0  0  0  0  0  0  0  0
   40.1374   12.5840   -7.0728 C   0  0  0  0  0  0  0  0  0  0  0  0
   39.7777   14.0325   -6.7444 C   0  0  0  0  0  0  0  0  0  0  0  0
   40.2456   14.2854   -5.3103 C   0  0  0  0  0  0  0  0  0  0  0  0
   36.9953   14.8719  -13.6778 N   0  0  0  0  0  0  0  0  0  0  0  0
   36.8906   15.5334  -14.5015 H   0  0  0  0  0  0  0  0  0  0  0  0
   38.2543   14.4968  -13.3422 N   0  0  0  0  0  0  0  0  0  0  0  0
   39.1450   13.8098  -13.8314 C   0  0  0  0  0  0  0  0  0  0  0  0
   39.1291   13.0910  -15.0825 C   0  0  0  0  0  0  0  0  0  0  0  0
   38.2331   12.1030  -15.4192 C   0  0  0  0  0  0  0  0  0  0  0  0
   38.2640   11.4406  -16.6446 C   0  0  0  0  0  0  0  0  0  0  0  0
   39.2094   11.7473  -17.5953 C   0  0  0  0  0  0  0  0  0  0  0  0
   40.1193   12.7313  -17.2873 C   0  0  0  0  0  0  0  0  0  0  0  0
   40.0788   13.3752  -16.0799 C   0  0  0  0  0  0  0  0  0  0  0  0
   39.2335   11.0625  -18.8496 N   0  0  0  0  0  0  0  0  0  0  0  0
   38.1802   10.5627  -19.2876 O   0  0  0  0  0  0  0  0  0  0  0  0
   40.4338   10.9938  -19.5088 O   0  0  0  0  0  0  0  0  0  0  0  0
 13 14  1  0  0  0
 14 15  1  0  0  0
 14 12  1  0  0  0
 12  6  1  0  0  0
  6  7  2  0  0  0
  7  8  1  0  0  0
  8  9  2  0  0  0
  9  5  1  0  0  0
  5  3  1  0  0  0
  3  1  1  0  0  0
  1  2  2  0  0  0
  1 16  1  0  0  0
 16 18  1  0  0  0
 18 19  2  0  0  0
 19 20  1  0  0  0
 20 21  2  0  0  0
 21 22  1  0  0  0
 22 23  2  0  0  0
 23 26  1  0  0  0
 26 27  2  0  0  0
 26 28  1  0  0  0
 23 24  1  0  0  0
 24 25  2  0  0  0
  9 10  1  0  0  0
 10 11  2  0  0  0
 11  6  1  0  0  0
 25 20  1  0  0  0
  3  4  1  0  0  0
 16 17  1  0  0  0
M  CHG 1  26   1
M  CHG 1  28  -1
M  END
> <minimizedAffinity>
-6.57458

> <CNNscore>
0.3832389116

> <CNNaffinity>
5.8327813148

> <CNN_VS>
2.2353487015

> <CNNaffinity_variance>
0.0849059597

$$$$
[H]C(=NN([H])C(=S)N([H])C([H])([H])c1c([H])c([H])c(OC([H])(C([H])([H])[H])C([H])([H])[H])c([H])c1[H])c1c([H])c([H])c([N+](=O)[O-])c([H])c1[H]


 28 29  0  0  0  0  0  0  0  0999 V2000
   42.2716   12.8697  -16.3423 C   0  0  0  0  0  0  0  0  0  0  0  0
   43.7334   12.1989  -16.5853 S   0  0  0  0  0  0  0  0  0  0  0  0
   41.2825   12.7548  -17.3374 N   0  0  0  0  0  0  0  0  0  0  0  0
   41.0383   13.5653  -17.9366 H   0  0  0  0  0  0  0  0  0  0  0  0
   40.5928   11.5021  -17.5374 C   0  0  0  0  0  0  0  0  0  0  0  0
   36.6470   11.6100  -15.8533 C   0  0  0  0  0  0  0  0  0  0  0  0
   37.7713   11.9793  -15.1138 C   0  0  0  0  0  0  0  0  0  0  0  0
   39.0285   11.9385  -15.6702 C   0  0  0  0  0  0  0  0  0  0  0  0
   39.2236   11.5333  -16.9722 C   0  0  0  0  0  0  0  0  0  0  0  0
   38.0965   11.1773  -17.6701 C   0  0  0  0  0  0  0  0  0  0  0  0
   36.8107   11.2067  -17.1387 C   0  0  0  0  0  0  0  0  0  0  0  0
   35.4150   11.6679  -15.2538 O   0  0  0  0  0  0  0  0  0  0  0  0
   35.5302   14.0690  -14.9659 C   0  0  0  0  0  0  0  0  0  0  0  0
   34.8597   12.7474  -14.5930 C   0  0  0  0  0  0  0  0  0  0  0  0
   35.0475   12.5713  -13.0854 C   0  0  0  0  0  0  0  0  0  0  0  0
   41.9860   13.5701  -15.1342 N   0  0  0  0  0  0  0  0  0  0  0  0
   41.3024   14.3822  -15.1221 H   0  0  0  0  0  0  0  0  0  0  0  0
   42.5703   13.2363  -13.9570 N   0  0  0  0  0  0  0  0  0  0  0  0
   43.3368   13.7617  -13.1564 C   0  0  0  0  0  0  0  0  0  0  0  0
   43.9356   15.0728  -13.2265 C   0  0  0  0  0  0  0  0  0  0  0  0
   43.4837   16.1886  -12.5609 C   0  0  0  0  0  0  0  0  0  0  0  0
   44.1022   17.4328  -12.6652 C   0  0  0  0  0  0  0  0  0  0  0  0
   45.2154   17.6098  -13.4534 C   0  0  0  0  0  0  0  0  0  0  0  0
   45.6907   16.5120  -14.1316 C   0  0  0  0  0  0  0  0  0  0  0  0
   45.0745   15.2946  -14.0210 C   0  0  0  0  0  0  0  0  0  0  0  0
   45.8433   18.8898  -13.5544 N   0  0  0  0  0  0  0  0  0  0  0  0
   45.1658   19.9149  -13.3511 O   0  0  0  0  0  0  0  0  0  0  0  0
   47.1763   18.9160  -13.8744 O   0  0  0  0  0  0  0  0  0  0  0  0
 13 14  1  0  0  0
 14 15  1  0  0  0
 14 12  1  0  0  0
 12  6  1  0  0  0
  6  7  2  0  0  0
  7  8  1  0  0  0
  8  9  2  0  0  0
  9  5  1  0  0  0
  5  3  1  0  0  0
  3  1  1  0  0  0
  1  2  2  0  0  0
  1 16  1  0  0  0
 16 18  1  0  0  0
 18 19  2  0  0  0
 19 20  1  0  0  0
 20 21  2  0  0  0
 21 22  1  0  0  0
 22 23  2  0  0  0
 23 26  1  0  0  0
 26 27  2  0  0  0
 26 28  1  0  0  0
 23 24  1  0  0  0
 24 25  2  0  0  0
  9 10  1  0  0  0
 10 11  2  0  0  0
 11  6  1  0  0  0
 25 20  1  0  0  0
  3  4  1  0  0  0
 16 17  1  0  0  0
M  CHG 1  26   1
M  CHG 1  28  -1
M  END
> <minimizedAffinity>
-7.11920

> <CNNscore>
0.3780772388

> <CNNaffinity>
5.9167270660

> <CNN_VS>
2.2369797230

> <CNNaffinity_variance>
0.0949371904

$$$$
[H]C(=NN([H])C(=S)N([H])C([H])([H])c1c([H])c([H])c(OC([H])(C([H])([H])[H])C([H])([H])[H])c([H])c1[H])c1c([H])c([H])c([N+](=O)[O-])c([H])c1[H]


 28 29  0  0  0  0  0  0  0  0999 V2000
   34.6912   13.1972  -14.7717 C   0  0  0  0  0  0  0  0  0  0  0  0
   33.9254   11.7761  -14.9706 S   0  0  0  0  0  0  0  0  0  0  0  0
   36.0630   13.2931  -15.0729 N   0  0  0  0  0  0  0  0  0  0  0  0
   36.5475   14.2097  -15.0470 H   0  0  0  0  0  0  0  0  0  0  0  0
   36.8160   12.1118  -15.4230 C   0  0  0  0  0  0  0  0  0  0  0  0
   40.9490   13.0514  -16.0963 C   0  0  0  0  0  0  0  0  0  0  0  0
   40.2096   13.6719  -15.0885 C   0  0  0  0  0  0  0  0  0  0  0  0
   38.8857   13.3582  -14.8872 C   0  0  0  0  0  0  0  0  0  0  0  0
   38.2433   12.4239  -15.6695 C   0  0  0  0  0  0  0  0  0  0  0  0
   39.0001   11.8333  -16.6507 C   0  0  0  0  0  0  0  0  0  0  0  0
   40.3406   12.1268  -16.8817 C   0  0  0  0  0  0  0  0  0  0  0  0
   42.2658   13.3984  -16.2571 O   0  0  0  0  0  0  0  0  0  0  0  0
   44.3712   13.7695  -15.1208 C   0  0  0  0  0  0  0  0  0  0  0  0
   43.3661   12.7746  -15.6997 C   0  0  0  0  0  0  0  0  0  0  0  0
   44.1047   11.9855  -16.7817 C   0  0  0  0  0  0  0  0  0  0  0  0
   33.9865   14.3414  -14.2967 N   0  0  0  0  0  0  0  0  0  0  0  0
   33.7706   15.1566  -14.9415 H   0  0  0  0  0  0  0  0  0  0  0  0
   33.5656   14.4413  -13.0116 N   0  0  0  0  0  0  0  0  0  0  0  0
   34.0521   14.7605  -11.9317 C   0  0  0  0  0  0  0  0  0  0  0  0
   35.4030   15.1854  -11.6548 C   0  0  0  0  0  0  0  0  0  0  0  0
   35.7655   16.4311  -11.1975 C   0  0  0  0  0  0  0  0  0  0  0  0
   37.0887   16.7882  -10.9462 C   0  0  0  0  0  0  0  0  0  0  0  0
   38.1164   15.8965  -11.1470 C   0  0  0  0  0  0  0  0  0  0  0  0
   37.7850   14.6426  -11.6042 C   0  0  0  0  0  0  0  0  0  0  0  0
   36.4812   14.3034  -11.8473 C   0  0  0  0  0  0  0  0  0  0  0  0
   39.4707   16.2716  -10.8866 N   0  0  0  0  0  0  0  0  0  0  0  0
   39.8639   16.3424   -9.7070 O   0  0  0  0  0  0  0  0  0  0  0  0
   40.2719   16.5364  -11.9675 O   0  0  0  0  0  0  0  0  0  0  0  0
 13 14  1  0  0  0
 14 15  1  0  0  0
 14 12  1  0  0  0
 12  6  1  0  0  0
  6  7  2  0  0  0
  7  8  1  0  0  0
  8  9  2  0  0  0
  9  5  1  0  0  0
  5  3  1  0  0  0
  3  1  1  0  0  0
  1  2  2  0  0  0
  1 16  1  0  0  0
 16 18  1  0  0  0
 18 19  2  0  0  0
 19 20  1  0  0  0
 20 21  2  0  0  0
 21 22  1  0  0  0
 22 23  2  0  0  0
 23 26  1  0  0  0
 26 27  2  0  0  0
 26 28  1  0  0  0
 23 24  1  0  0  0
 24 25  2  0  0  0
  9 10  1  0  0  0
 10 11  2  0  0  0
 11  6  1  0  0  0
 25 20  1  0  0  0
  3  4  1  0  0  0
 16 17  1  0  0  0
M  CHG 1  26   1
M  CHG 1  28  -1
M  END
> <minimizedAffinity>
-7.24797

> <CNNscore>
0.3566426933

> <CNNaffinity>
6.1213541031

> <CNN_VS>
2.1831362247

> <CNNaffinity_variance>
0.1205727085

$$$$
[H]C(=NN([H])C(=S)N([H])C([H])([H])c1c([H])c([H])c(OC([H])(C([H])([H])[H])C([H])([H])[H])c([H])c1[H])c1c([H])c([H])c([N+](=O)[O-])c([H])c1[H]


 28 29  0  0  0  0  0  0  0  0999 V2000
   34.6132   14.8199  -12.2537 C   0  0  0  0  0  0  0  0  0  0  0  0
   33.2881   15.4442  -11.5466 S   0  0  0  0  0  0  0  0  0  0  0  0
   35.7635   15.6188  -12.3971 N   0  0  0  0  0  0  0  0  0  0  0  0
   35.8117   16.3498  -13.1312 H   0  0  0  0  0  0  0  0  0  0  0  0
   36.8952   15.4298  -11.5206 C   0  0  0  0  0  0  0  0  0  0  0  0
   40.4994   14.5684  -13.6852 C   0  0  0  0  0  0  0  0  0  0  0  0
   40.4642   15.5227  -12.6676 C   0  0  0  0  0  0  0  0  0  0  0  0
   39.2998   15.7857  -11.9845 C   0  0  0  0  0  0  0  0  0  0  0  0
   38.1303   15.1197  -12.2781 C   0  0  0  0  0  0  0  0  0  0  0  0
   38.2008   14.1883  -13.2838 C   0  0  0  0  0  0  0  0  0  0  0  0
   39.3611   13.8975  -13.9949 C   0  0  0  0  0  0  0  0  0  0  0  0
   41.6846   14.3423  -14.3367 O   0  0  0  0  0  0  0  0  0  0  0  0
   43.5262   13.1586  -15.3707 C   0  0  0  0  0  0  0  0  0  0  0  0
   42.0275   13.2290  -15.0806 C   0  0  0  0  0  0  0  0  0  0  0  0
   41.3214   13.2869  -16.4361 C   0  0  0  0  0  0  0  0  0  0  0  0
   34.6183   13.4756  -12.7274 N   0  0  0  0  0  0  0  0  0  0  0  0
   35.3539   12.7838  -12.3999 H   0  0  0  0  0  0  0  0  0  0  0  0
   33.6944   13.0236  -13.6110 N   0  0  0  0  0  0  0  0  0  0  0  0
   33.6971   12.4691  -14.7051 C   0  0  0  0  0  0  0  0  0  0  0  0
   34.8348   12.0720  -15.4989 C   0  0  0  0  0  0  0  0  0  0  0  0
   36.0498   12.7166  -15.5233 C   0  0  0  0  0  0  0  0  0  0  0  0
   37.1167   12.2884  -16.3105 C   0  0  0  0  0  0  0  0  0  0  0  0
   37.0055   11.1798  -17.1169 C   0  0  0  0  0  0  0  0  0  0  0  0
   35.8023   10.5141  -17.1138 C   0  0  0  0  0  0  0  0  0  0  0  0
   34.7612   10.9444  -16.3359 C   0  0  0  0  0  0  0  0  0  0  0  0
   38.1053   10.7479  -17.9211 N   0  0  0  0  0  0  0  0  0  0  0  0
   39.2182   10.5822  -17.3872 O   0  0  0  0  0  0  0  0  0  0  0  0
   37.8681   10.5376  -19.2551 O   0  0  0  0  0  0  0  0  0  0  0  0
 13 14  1  0  0  0
 14 15  1  0  0  0
 14 12  1  0  0  0
 12  6  1  0  0  0
  6  7  2  0  0  0
  7  8  1  0  0  0
  8  9  2  0  0  0
  9  5  1  0  0  0
  5  3  1  0  0  0
  3  1  1  0  0  0
  1  2  2  0  0  0
  1 16  1  0  0  0
 16 18  1  0  0  0
 18 19  2  0  0  0
 19 20  1  0  0  0
 20 21  2  0  0  0
 21 22  1  0  0  0
 22 23  2  0  0  0
 23 26  1  0  0  0
 26 27  2  0  0  0
 26 28  1  0  0  0
 23 24  1  0  0  0
 24 25  2  0  0  0
  9 10  1  0  0  0
 10 11  2  0  0  0
 11  6  1  0  0  0
 25 20  1  0  0  0
  3  4  1  0  0  0
 16 17  1  0  0  0
M  CHG 1  26   1
M  CHG 1  28  -1
M  END
> <minimizedAffinity>
-7.30061

> <CNNscore>
0.3519175649

> <CNNaffinity>
6.4701371193

> <CNN_VS>
2.2769548893

> <CNNaffinity_variance>
0.0219153762

$$$$
[H]C(=NN([H])C(=S)N([H])C([H])([H])c1c([H])c([H])c(OC([H])(C([H])([H])[H])C([H])([H])[H])c([H])c1[H])c1c([H])c([H])c([N+](=O)[O-])c([H])c1[H]


 28 29  0  0  0  0  0  0  0  0999 V2000
   41.7091   13.1123  -16.0021 C   0  0  0  0  0  0  0  0  0  0  0  0
   43.2981   12.7663  -15.9700 S   0  0  0  0  0  0  0  0  0  0  0  0
   41.0701   13.5441  -14.8244 N   0  0  0  0  0  0  0  0  0  0  0  0
   41.3772   13.1949  -13.8974 H   0  0  0  0  0  0  0  0  0  0  0  0
   39.9749   14.4825  -14.8923 C   0  0  0  0  0  0  0  0  0  0  0  0
   38.7925   15.8640  -11.0050 C   0  0  0  0  0  0  0  0  0  0  0  0
   37.9306   15.1228  -11.8144 C   0  0  0  0  0  0  0  0  0  0  0  0
   38.3268   14.6883  -13.0577 C   0  0  0  0  0  0  0  0  0  0  0  0
   39.5835   14.9674  -13.5480 C   0  0  0  0  0  0  0  0  0  0  0  0
   40.4049   15.6980  -12.7260 C   0  0  0  0  0  0  0  0  0  0  0  0
   40.0366   16.1531  -11.4635 C   0  0  0  0  0  0  0  0  0  0  0  0
   38.3509   16.2742   -9.7733 O   0  0  0  0  0  0  0  0  0  0  0  0
   37.9338   18.6513   -9.5814 C   0  0  0  0  0  0  0  0  0  0  0  0
   37.3851   17.2270   -9.5091 C   0  0  0  0  0  0  0  0  0  0  0  0
   36.8563   17.0332   -8.0871 C   0  0  0  0  0  0  0  0  0  0  0  0
   40.9619   12.9818  -17.2089 N   0  0  0  0  0  0  0  0  0  0  0  0
   40.6270   13.8383  -17.7393 H   0  0  0  0  0  0  0  0  0  0  0  0
   40.6458   11.7700  -17.7286 N   0  0  0  0  0  0  0  0  0  0  0  0
   39.6679   11.0296  -17.7450 C   0  0  0  0  0  0  0  0  0  0  0  0
   38.3778   11.2455  -17.1356 C   0  0  0  0  0  0  0  0  0  0  0  0
   38.1701   11.7685  -15.8804 C   0  0  0  0  0  0  0  0  0  0  0  0
   36.8993   11.9557  -15.3406 C   0  0  0  0  0  0  0  0  0  0  0  0
   35.7692   11.6205  -16.0492 C   0  0  0  0  0  0  0  0  0  0  0  0
   35.9449   11.0949  -17.3077 C   0  0  0  0  0  0  0  0  0  0  0  0
   37.1987   10.9157  -17.8274 C   0  0  0  0  0  0  0  0  0  0  0  0
   34.4696   11.8160  -15.4874 N   0  0  0  0  0  0  0  0  0  0  0  0
   34.3311   12.6186  -14.5452 O   0  0  0  0  0  0  0  0  0  0  0  0
   33.4337   11.0973  -16.0265 O   0  0  0  0  0  0  0  0  0  0  0  0
 13 14  1  0  0  0
 14 15  1  0  0  0
 14 12  1  0  0  0
 12  6  1  0  0  0
  6  7  2  0  0  0
  7  8  1  0  0  0
  8  9  2  0  0  0
  9  5  1  0  0  0
  5  3  1  0  0  0
  3  1  1  0  0  0
  1  2  2  0  0  0
  1 16  1  0  0  0
 16 18  1  0  0  0
 18 19  2  0  0  0
 19 20  1  0  0  0
 20 21  2  0  0  0
 21 22  1  0  0  0
 22 23  2  0  0  0
 23 26  1  0  0  0
 26 27  2  0  0  0
 26 28  1  0  0  0
 23 24  1  0  0  0
 24 25  2  0  0  0
  9 10  1  0  0  0
 10 11  2  0  0  0
 11  6  1  0  0  0
 25 20  1  0  0  0
  3  4  1  0  0  0
 16 17  1  0  0  0
M  CHG 1  26   1
M  CHG 1  28  -1
M  END
> <minimizedAffinity>
-7.66836

> <CNNscore>
0.3473094106

> <CNNaffinity>
6.1404013634

> <CNN_VS>
2.1326191425

> <CNNaffinity_variance>
0.0279474314

$$$$
[H]C(=NN([H])C(=S)N([H])C([H])([H])c1c([H])c([H])c(OC([H])(C([H])([H])[H])C([H])([H])[H])c([H])c1[H])c1c([H])c([H])c([N+](=O)[O-])c([H])c1[H]


 28 29  0  0  0  0  0  0  0  0999 V2000
   34.7288   14.2538  -13.2162 C   0  0  0  0  0  0  0  0  0  0  0  0
   33.8517   13.2087  -14.1017 S   0  0  0  0  0  0  0  0  0  0  0  0
   34.2294   14.7031  -11.9791 N   0  0  0  0  0  0  0  0  0  0  0  0
   33.3341   14.3364  -11.6054 H   0  0  0  0  0  0  0  0  0  0  0  0
   34.9600   15.6839  -11.2117 C   0  0  0  0  0  0  0  0  0  0  0  0
   33.3475   16.1919   -7.2671 C   0  0  0  0  0  0  0  0  0  0  0  0
   34.7209   16.0885   -7.4913 C   0  0  0  0  0  0  0  0  0  0  0  0
   35.2199   15.9260   -8.7626 C   0  0  0  0  0  0  0  0  0  0  0  0
   34.3860   15.8595   -9.8570 C   0  0  0  0  0  0  0  0  0  0  0  0
   33.0417   15.9647   -9.6004 C   0  0  0  0  0  0  0  0  0  0  0  0
   32.5032   16.1296   -8.3279 C   0  0  0  0  0  0  0  0  0  0  0  0
   32.8993   16.3530   -5.9812 O   0  0  0  0  0  0  0  0  0  0  0  0
   33.9595   15.0252   -4.2566 C   0  0  0  0  0  0  0  0  0  0  0  0
   32.6917   15.3617   -5.0407 C   0  0  0  0  0  0  0  0  0  0  0  0
   32.2586   14.0754   -5.7458 C   0  0  0  0  0  0  0  0  0  0  0  0
   35.9941   14.7162  -13.6817 N   0  0  0  0  0  0  0  0  0  0  0  0
   36.0615   15.4069  -14.4851 H   0  0  0  0  0  0  0  0  0  0  0  0
   37.1585   14.2975  -13.1271 N   0  0  0  0  0  0  0  0  0  0  0  0
   38.1193   13.6157  -13.4684 C   0  0  0  0  0  0  0  0  0  0  0  0
   38.3400   12.9592  -14.7343 C   0  0  0  0  0  0  0  0  0  0  0  0
   37.4646   12.0882  -15.3403 C   0  0  0  0  0  0  0  0  0  0  0  0
   37.7294   11.4815  -16.5663 C   0  0  0  0  0  0  0  0  0  0  0  0
   38.9009   11.7281  -17.2434 C   0  0  0  0  0  0  0  0  0  0  0  0
   39.7964   12.5949  -16.6624 C   0  0  0  0  0  0  0  0  0  0  0  0
   39.5248   13.1850  -15.4573 C   0  0  0  0  0  0  0  0  0  0  0  0
   39.1642   11.1012  -18.5006 N   0  0  0  0  0  0  0  0  0  0  0  0
   38.2529   10.4659  -19.0637 O   0  0  0  0  0  0  0  0  0  0  0  0
   40.4248   11.2373  -19.0227 O   0  0  0  0  0  0  0  0  0  0  0  0
 13 14  1  0  0  0
 14 15  1  0  0  0
 14 12  1  0  0  0
 12  6  1  0  0  0
  6  7  2  0  0  0
  7  8  1  0  0  0
  8  9  2  0  0  0
  9  5  1  0  0  0
  5  3  1  0  0  0
  3  1  1  0  0  0
  1  2  2  0  0  0
  1 16  1  0  0  0
 16 18  1  0  0  0
 18 19  2  0  0  0
 19 20  1  0  0  0
 20 21  2  0  0  0
 21 22  1  0  0  0
 22 23  2  0  0  0
 23 26  1  0  0  0
 26 27  2  0  0  0
 26 28  1  0  0  0
 23 24  1  0  0  0
 24 25  2  0  0  0
  9 10  1  0  0  0
 10 11  2  0  0  0
 11  6  1  0  0  0
 25 20  1  0  0  0
  3  4  1  0  0  0
 16 17  1  0  0  0
M  CHG 1  26   1
M  CHG 1  28  -1
M  END
> <minimizedAffinity>
-6.93041

> <CNNscore>
0.3075463176

> <CNNaffinity>
5.5838723183

> <CNN_VS>
1.7172993422

> <CNNaffinity_variance>
0.2724959552

$$$$
[H]C(=NN([H])C(=S)N([H])C([H])([H])c1c([H])c([H])c(OC([H])(C([H])([H])[H])C([H])([H])[H])c([H])c1[H])c1c([H])c([H])c([N+](=O)[O-])c([H])c1[H]


 28 29  0  0  0  0  0  0  0  0999 V2000
   35.1144   11.3224  -16.5584 C   0  0  0  0  0  0  0  0  0  0  0  0
   33.5963   10.8307  -16.8734 S   0  0  0  0  0  0  0  0  0  0  0  0
   36.0527   11.3882  -17.6058 N   0  0  0  0  0  0  0  0  0  0  0  0
   35.9540   12.0920  -18.3611 H   0  0  0  0  0  0  0  0  0  0  0  0
   37.1690   10.4730  -17.6420 C   0  0  0  0  0  0  0  0  0  0  0  0
   40.8651   12.4799  -16.7882 C   0  0  0  0  0  0  0  0  0  0  0  0
   39.8110   12.4620  -15.8739 C   0  0  0  0  0  0  0  0  0  0  0  0
   38.6335   11.8136  -16.1647 C   0  0  0  0  0  0  0  0  0  0  0  0
   38.4516   11.1607  -17.3640 C   0  0  0  0  0  0  0  0  0  0  0  0
   39.5083   11.1984  -18.2394 C   0  0  0  0  0  0  0  0  0  0  0  0
   40.7127   11.8444  -17.9776 C   0  0  0  0  0  0  0  0  0  0  0  0
   42.0190   13.1399  -16.4517 O   0  0  0  0  0  0  0  0  0  0  0  0
   43.7302   13.7107  -14.8368 C   0  0  0  0  0  0  0  0  0  0  0  0
   43.0784   12.6438  -15.7155 C   0  0  0  0  0  0  0  0  0  0  0  0
   44.1639   12.1365  -16.6661 C   0  0  0  0  0  0  0  0  0  0  0  0
   35.5001   11.6855  -15.2352 N   0  0  0  0  0  0  0  0  0  0  0  0
   36.4626   11.4406  -14.8601 H   0  0  0  0  0  0  0  0  0  0  0  0
   34.6630   12.3517  -14.4021 N   0  0  0  0  0  0  0  0  0  0  0  0
   34.7615   13.2093  -13.5306 C   0  0  0  0  0  0  0  0  0  0  0  0
   35.9572   13.8636  -13.0568 C   0  0  0  0  0  0  0  0  0  0  0  0
   36.2879   14.0532  -11.7351 C   0  0  0  0  0  0  0  0  0  0  0  0
   37.4586   14.6932  -11.3334 C   0  0  0  0  0  0  0  0  0  0  0  0
   38.3576   15.1759  -12.2557 C   0  0  0  0  0  0  0  0  0  0  0  0
   38.0542   15.0012  -13.5855 C   0  0  0  0  0  0  0  0  0  0  0  0
   36.9008   14.3706  -13.9678 C   0  0  0  0  0  0  0  0  0  0  0  0
   39.5559   15.8312  -11.8344 N   0  0  0  0  0  0  0  0  0  0  0  0
   40.2809   16.3761  -12.6879 O   0  0  0  0  0  0  0  0  0  0  0  0
   39.8431   15.8218  -10.4936 O   0  0  0  0  0  0  0  0  0  0  0  0
 13 14  1  0  0  0
 14 15  1  0  0  0
 14 12  1  0  0  0
 12  6  1  0  0  0
  6  7  2  0  0  0
  7  8  1  0  0  0
  8  9  2  0  0  0
  9  5  1  0  0  0
  5  3  1  0  0  0
  3  1  1  0  0  0
  1  2  2  0  0  0
  1 16  1  0  0  0
 16 18  1  0  0  0
 18 19  2  0  0  0
 19 20  1  0  0  0
 20 21  2  0  0  0
 21 22  1  0  0  0
 22 23  2  0  0  0
 23 26  1  0  0  0
 26 27  2  0  0  0
 26 28  1  0  0  0
 23 24  1  0  0  0
 24 25  2  0  0  0
  9 10  1  0  0  0
 10 11  2  0  0  0
 11  6  1  0  0  0
 25 20  1  0  0  0
  3  4  1  0  0  0
 16 17  1  0  0  0
M  CHG 1  26   1
M  CHG 1  28  -1
M  END
> <minimizedAffinity>
-7.88435

> <CNNscore>
0.2900405824

> <CNNaffinity>
6.2696466446

> <CNN_VS>
1.8184520006

> <CNNaffinity_variance>
0.1364926994

$$$$
[H]c1nc(N([H])[H])c(C(=O)N([H])c2c([H])nc([H])c([H])c2N2C([H])([H])C([H])([H])C([H])(N([H])[H])C([H])([H])C2([H])[H])nc1-c1c([H])c([H])c(OC([H])([H])[H])c([H])c1[H]


 36 39  0  0  0  0  0  0  0  0999 V2000
   40.6493   13.0158  -16.2420 C   0  0  0  0  0  0  0  0  0  0  0  0
   40.5441   13.7872  -17.2154 O   0  0  0  0  0  0  0  0  0  0  0  0
   39.7430   12.0297  -15.8282 N   0  0  0  0  0  0  0  0  0  0  0  0
   40.0516   11.4706  -14.9718 H   0  0  0  0  0  0  0  0  0  0  0  0
   42.9222   13.9919  -13.4684 C   0  0  0  0  0  0  0  0  0  0  0  0
   44.1260   13.5690  -13.9635 C   0  0  0  0  0  0  0  0  0  0  0  0
   44.2226   12.9676  -15.1887 N   0  0  0  0  0  0  0  0  0  0  0  0
   43.1044   12.7839  -15.9323 C   0  0  0  0  0  0  0  0  0  0  0  0
   43.1684   12.1577  -17.2172 N   0  0  0  0  0  0  0  0  0  0  0  0
   41.8987   13.1981  -15.4554 C   0  0  0  0  0  0  0  0  0  0  0  0
   41.8366   13.7936  -14.2320 N   0  0  0  0  0  0  0  0  0  0  0  0
   43.1581   12.7178  -18.0933 H   0  0  0  0  0  0  0  0  0  0  0  0
   43.2250   11.1373  -17.2698 H   0  0  0  0  0  0  0  0  0  0  0  0
   42.5682   15.8257   -9.6294 C   0  0  0  0  0  0  0  0  0  0  0  0
   41.7463   16.2246  -10.6542 C   0  0  0  0  0  0  0  0  0  0  0  0
   41.8757   15.6231  -11.8818 C   0  0  0  0  0  0  0  0  0  0  0  0
   42.7779   14.6341  -12.1780 C   0  0  0  0  0  0  0  0  0  0  0  0
   43.6026   14.2489  -11.1109 C   0  0  0  0  0  0  0  0  0  0  0  0
   43.5031   14.8295   -9.8624 C   0  0  0  0  0  0  0  0  0  0  0  0
   43.5835   16.6887   -7.6196 C   0  0  0  0  0  0  0  0  0  0  0  0
   42.4410   16.4274   -8.3950 O   0  0  0  0  0  0  0  0  0  0  0  0
   38.5062   11.6706  -16.4024 C   0  0  0  0  0  0  0  0  0  0  0  0
   38.4045   10.9880  -17.5769 C   0  0  0  0  0  0  0  0  0  0  0  0
   37.2149   10.6167  -18.0822 N   0  0  0  0  0  0  0  0  0  0  0  0
   36.0660   10.8985  -17.4571 C   0  0  0  0  0  0  0  0  0  0  0  0
   36.1042   11.5848  -16.2701 C   0  0  0  0  0  0  0  0  0  0  0  0
   37.3283   11.9788  -15.7312 C   0  0  0  0  0  0  0  0  0  0  0  0
   37.3501   12.7201  -14.5274 N   0  0  0  0  0  0  0  0  0  0  0  0
   37.5077   14.1441  -14.4441 C   0  0  0  0  0  0  0  0  0  0  0  0
   36.4430   14.7253  -13.5427 C   0  0  0  0  0  0  0  0  0  0  0  0
   35.3868   13.7078  -13.2499 C   0  0  0  0  0  0  0  0  0  0  0  0
   34.4308   14.2435  -12.2710 N   0  0  0  0  0  0  0  0  0  0  0  0
   35.9005   12.4263  -12.6519 C   0  0  0  0  0  0  0  0  0  0  0  0
   37.1979   11.9977  -13.2719 C   0  0  0  0  0  0  0  0  0  0  0  0
   33.8577   13.4828  -11.8932 H   0  0  0  0  0  0  0  0  0  0  0  0
   33.8985   15.0446  -12.6652 H   0  0  0  0  0  0  0  0  0  0  0  0
 20 21  1  0  0  0
 21 14  1  0  0  0
 14 15  2  0  0  0
 15 16  1  0  0  0
 16 17  2  0  0  0
 17  5  1  0  0  0
  5  6  2  0  0  0
  6  7  1  0  0  0
  7  8  2  0  0  0
  8  9  1  0  0  0
  8 10  1  0  0  0
 10  1  1  0  0  0
  1  2  2  0  0  0
  1  3  1  0  0  0
  3 22  1  0  0  0
 22 23  2  0  0  0
 23 24  1  0  0  0
 24 25  2  0  0  0
 25 26  1  0  0  0
 26 27  2  0  0  0
 27 28  1  0  0  0
 28 29  1  0  0  0
 29 30  1  0  0  0
 30 31  1  0  0  0
 31 32  1  0  0  0
 31 33  1  0  0  0
 33 34  1  0  0  0
 10 11  2  0  0  0
 17 18  1  0  0  0
 18 19  2  0  0  0
 19 14  1  0  0  0
 11  5  1  0  0  0
 27 22  1  0  0  0
 34 28  1  0  0  0
  9 12  1  0  0  0
  9 13  1  0  0  0
  3  4  1  0  0  0
 32 35  1  0  0  0
 32 36  1  0  0  0
M  END
> <minimizedAffinity>
-8.91961

> <CNNscore>
0.3630291522

> <CNNaffinity>
7.0043992996

> <CNN_VS>
2.5428011417

> <CNNaffinity_variance>
0.0280699842

$$$$
[H]c1nc(N([H])[H])c(C(=O)N([H])c2c([H])nc([H])c([H])c2N2C([H])([H])C([H])([H])C([H])(N([H])[H])C([H])([H])C2([H])[H])nc1-c1c([H])c([H])c(OC([H])([H])[H])c([H])c1[H]


 36 39  0  0  0  0  0  0  0  0999 V2000
   40.9893   13.8464  -14.4414 C   0  0  0  0  0  0  0  0  0  0  0  0
   42.1126   13.3112  -14.5145 O   0  0  0  0  0  0  0  0  0  0  0  0
   39.8950   13.6623  -15.2979 N   0  0  0  0  0  0  0  0  0  0  0  0
   39.0201   14.2134  -15.0294 H   0  0  0  0  0  0  0  0  0  0  0  0
   39.3975   15.7785  -11.6946 C   0  0  0  0  0  0  0  0  0  0  0  0
   40.4749   16.4696  -11.2104 C   0  0  0  0  0  0  0  0  0  0  0  0
   41.7207   16.3244  -11.7571 N   0  0  0  0  0  0  0  0  0  0  0  0
   41.8971   15.4784  -12.8013 C   0  0  0  0  0  0  0  0  0  0  0  0
   43.1859   15.3014  -13.3969 N   0  0  0  0  0  0  0  0  0  0  0  0
   40.8366   14.7830  -13.2957 C   0  0  0  0  0  0  0  0  0  0  0  0
   39.6094   14.9502  -12.7290 N   0  0  0  0  0  0  0  0  0  0  0  0
   43.4448   15.7843  -14.2807 H   0  0  0  0  0  0  0  0  0  0  0  0
   43.8635   14.6855  -12.9399 H   0  0  0  0  0  0  0  0  0  0  0  0
   35.4274   16.1442  -10.1679 C   0  0  0  0  0  0  0  0  0  0  0  0
   36.4975   16.2250   -9.3116 C   0  0  0  0  0  0  0  0  0  0  0  0
   37.7667   16.1045   -9.8216 C   0  0  0  0  0  0  0  0  0  0  0  0
   38.0630   15.9056  -11.1455 C   0  0  0  0  0  0  0  0  0  0  0  0
   36.9492   15.8276  -11.9941 C   0  0  0  0  0  0  0  0  0  0  0  0
   35.6579   15.9438  -11.5197 C   0  0  0  0  0  0  0  0  0  0  0  0
   33.7900   15.5668   -8.4943 C   0  0  0  0  0  0  0  0  0  0  0  0
   34.1511   16.2649   -9.6593 O   0  0  0  0  0  0  0  0  0  0  0  0
   39.7947   12.8374  -16.4370 C   0  0  0  0  0  0  0  0  0  0  0  0
   40.6925   12.8748  -17.4609 C   0  0  0  0  0  0  0  0  0  0  0  0
   40.6016   12.0465  -18.5163 N   0  0  0  0  0  0  0  0  0  0  0  0
   39.6229   11.1398  -18.6169 C   0  0  0  0  0  0  0  0  0  0  0  0
   38.6880   11.0547  -17.6168 C   0  0  0  0  0  0  0  0  0  0  0  0
   38.7655   11.9059  -16.5153 C   0  0  0  0  0  0  0  0  0  0  0  0
   37.7724   11.8338  -15.5115 N   0  0  0  0  0  0  0  0  0  0  0  0
   37.9535   12.2432  -14.1479 C   0  0  0  0  0  0  0  0  0  0  0  0
   36.8118   13.1390  -13.7262 C   0  0  0  0  0  0  0  0  0  0  0  0
   36.0084   13.5640  -14.9138 C   0  0  0  0  0  0  0  0  0  0  0  0
   34.8296   14.3246  -14.4767 N   0  0  0  0  0  0  0  0  0  0  0  0
   35.4712   12.4304  -15.7446 C   0  0  0  0  0  0  0  0  0  0  0  0
   36.4624   11.3117  -15.8760 C   0  0  0  0  0  0  0  0  0  0  0  0
   34.1635   14.4080  -15.2508 H   0  0  0  0  0  0  0  0  0  0  0  0
   35.1055   15.2227  -14.0320 H   0  0  0  0  0  0  0  0  0  0  0  0
 20 21  1  0  0  0
 21 14  1  0  0  0
 14 15  2  0  0  0
 15 16  1  0  0  0
 16 17  2  0  0  0
 17  5  1  0  0  0
  5  6  2  0  0  0
  6  7  1  0  0  0
  7  8  2  0  0  0
  8  9  1  0  0  0
  8 10  1  0  0  0
 10  1  1  0  0  0
  1  2  2  0  0  0
  1  3  1  0  0  0
  3 22  1  0  0  0
 22 23  2  0  0  0
 23 24  1  0  0  0
 24 25  2  0  0  0
 25 26  1  0  0  0
 26 27  2  0  0  0
 27 28  1  0  0  0
 28 29  1  0  0  0
 29 30  1  0  0  0
 30 31  1  0  0  0
 31 32  1  0  0  0
 31 33  1  0  0  0
 33 34  1  0  0  0
 10 11  2  0  0  0
 17 18  1  0  0  0
 18 19  2  0  0  0
 19 14  1  0  0  0
 11  5  1  0  0  0
 27 22  1  0  0  0
 34 28  1  0  0  0
  9 12  1  0  0  0
  9 13  1  0  0  0
  3  4  1  0  0  0
 32 35  1  0  0  0
 32 36  1  0  0  0
M  END
> <minimizedAffinity>
-8.47868

> <CNNscore>
0.2981288731

> <CNNaffinity>
6.8242921829

> <CNN_VS>
2.0345184803

> <CNNaffinity_variance>
0.1199253947

$$$$
[H]c1nc(N([H])[H])c(C(=O)N([H])c2c([H])nc([H])c([H])c2N2C([H])([H])C([H])([H])C([H])(N([H])[H])C([H])([H])C2([H])[H])nc1-c1c([H])c([H])c(OC([H])([H])[H])c([H])c1[H]


 36 39  0  0  0  0  0  0  0  0999 V2000
   42.2645   13.8821  -13.8144 C   0  0  0  0  0  0  0  0  0  0  0  0
   41.7291   14.9484  -13.4540 O   0  0  0  0  0  0  0  0  0  0  0  0
   43.3507   13.2248  -13.2202 N   0  0  0  0  0  0  0  0  0  0  0  0
   43.6299   12.3076  -13.6915 H   0  0  0  0  0  0  0  0  0  0  0  0
   39.6837   12.4585  -16.0784 C   0  0  0  0  0  0  0  0  0  0  0  0
   40.4446   12.1555  -17.1748 C   0  0  0  0  0  0  0  0  0  0  0  0
   41.7899   12.4036  -17.2011 N   0  0  0  0  0  0  0  0  0  0  0  0
   42.3871   12.9619  -16.1200 C   0  0  0  0  0  0  0  0  0  0  0  0
   43.7913   13.2359  -16.1131 N   0  0  0  0  0  0  0  0  0  0  0  0
   41.6457   13.2699  -15.0208 C   0  0  0  0  0  0  0  0  0  0  0  0
   40.3086   13.0101  -15.0266 N   0  0  0  0  0  0  0  0  0  0  0  0
   44.4644   12.6008  -15.6389 H   0  0  0  0  0  0  0  0  0  0  0  0
   44.1355   14.0758  -16.5860 H   0  0  0  0  0  0  0  0  0  0  0  0
   35.4784   11.7799  -15.7939 C   0  0  0  0  0  0  0  0  0  0  0  0
   36.1925   11.2144  -16.8211 C   0  0  0  0  0  0  0  0  0  0  0  0
   37.5442   11.4447  -16.8958 C   0  0  0  0  0  0  0  0  0  0  0  0
   38.2582   12.2100  -16.0101 C   0  0  0  0  0  0  0  0  0  0  0  0
   37.5008   12.7734  -14.9729 C   0  0  0  0  0  0  0  0  0  0  0  0
   36.1404   12.5654  -14.8635 C   0  0  0  0  0  0  0  0  0  0  0  0
   33.4674   10.8428  -16.7387 C   0  0  0  0  0  0  0  0  0  0  0  0
   34.1207   11.5507  -15.7155 O   0  0  0  0  0  0  0  0  0  0  0  0
   44.0956   13.6010  -12.0836 C   0  0  0  0  0  0  0  0  0  0  0  0
   43.7652   13.2152  -10.8196 C   0  0  0  0  0  0  0  0  0  0  0  0
   44.5168   13.5488   -9.7556 N   0  0  0  0  0  0  0  0  0  0  0  0
   45.6310   14.2784   -9.8821 C   0  0  0  0  0  0  0  0  0  0  0  0
   46.0151   14.6972  -11.1306 C   0  0  0  0  0  0  0  0  0  0  0  0
   45.2480   14.3618  -12.2455 C   0  0  0  0  0  0  0  0  0  0  0  0
   45.6344   14.8337  -13.5210 N   0  0  0  0  0  0  0  0  0  0  0  0
   45.1879   16.0640  -14.1100 C   0  0  0  0  0  0  0  0  0  0  0  0
   46.3737   16.8410  -14.6335 C   0  0  0  0  0  0  0  0  0  0  0  0
   47.6534   16.2529  -14.1304 C   0  0  0  0  0  0  0  0  0  0  0  0
   48.7977   16.9354  -14.7501 N   0  0  0  0  0  0  0  0  0  0  0  0
   47.8373   14.7928  -14.4433 C   0  0  0  0  0  0  0  0  0  0  0  0
   46.5570   14.0230  -14.3040 C   0  0  0  0  0  0  0  0  0  0  0  0
   49.6515   16.3897  -14.5981 H   0  0  0  0  0  0  0  0  0  0  0  0
   48.8492   17.9297  -14.4511 H   0  0  0  0  0  0  0  0  0  0  0  0
 20 21  1  0  0  0
 21 14  1  0  0  0
 14 15  2  0  0  0
 15 16  1  0  0  0
 16 17  2  0  0  0
 17  5  1  0  0  0
  5  6  2  0  0  0
  6  7  1  0  0  0
  7  8  2  0  0  0
  8  9  1  0  0  0
  8 10  1  0  0  0
 10  1  1  0  0  0
  1  2  2  0  0  0
  1  3  1  0  0  0
  3 22  1  0  0  0
 22 23  2  0  0  0
 23 24  1  0  0  0
 24 25  2  0  0  0
 25 26  1  0  0  0
 26 27  2  0  0  0
 27 28  1  0  0  0
 28 29  1  0  0  0
 29 30  1  0  0  0
 30 31  1  0  0  0
 31 32  1  0  0  0
 31 33  1  0  0  0
 33 34  1  0  0  0
 10 11  2  0  0  0
 17 18  1  0  0  0
 18 19  2  0  0  0
 19 14  1  0  0  0
 11  5  1  0  0  0
 27 22  1  0  0  0
 34 28  1  0  0  0
  9 12  1  0  0  0
  9 13  1  0  0  0
  3  4  1  0  0  0
 32 35  1  0  0  0
 32 36  1  0  0  0
M  END
> <minimizedAffinity>
-8.03679

> <CNNscore>
0.2916056514

> <CNNaffinity>
6.5519151688

> <CNN_VS>
1.9105755091

> <CNNaffinity_variance>
0.1764580607

$$$$
[H]c1nc(N([H])[H])c(C(=O)N([H])c2c([H])nc([H])c([H])c2N2C([H])([H])C([H])([H])C([H])(N([H])[H])C([H])([H])C2([H])[H])nc1-c1c([H])c([H])c(OC([H])([H])[H])c([H])c1[H]


 36 39  0  0  0  0  0  0  0  0999 V2000
   40.3997   13.4997  -15.5972 C   0  0  0  0  0  0  0  0  0  0  0  0
   40.6968   13.9645  -16.7149 O   0  0  0  0  0  0  0  0  0  0  0  0
   39.4029   12.5610  -15.2968 N   0  0  0  0  0  0  0  0  0  0  0  0
   39.3392   12.2918  -14.2649 H   0  0  0  0  0  0  0  0  0  0  0  0
   41.2901   15.1108  -12.3686 C   0  0  0  0  0  0  0  0  0  0  0  0
   42.6554   15.0254  -12.4083 C   0  0  0  0  0  0  0  0  0  0  0  0
   43.3045   14.4517  -13.4674 N   0  0  0  0  0  0  0  0  0  0  0  0
   42.5841   13.9552  -14.5025 C   0  0  0  0  0  0  0  0  0  0  0  0
   43.2297   13.3478  -15.6256 N   0  0  0  0  0  0  0  0  0  0  0  0
   41.2253   14.0316  -14.4798 C   0  0  0  0  0  0  0  0  0  0  0  0
   40.6096   14.6090  -13.4108 N   0  0  0  0  0  0  0  0  0  0  0  0
   43.3717   13.8679  -16.5148 H   0  0  0  0  0  0  0  0  0  0  0  0
   43.5566   12.3812  -15.5472 H   0  0  0  0  0  0  0  0  0  0  0  0
   39.2333   16.8661   -9.0649 C   0  0  0  0  0  0  0  0  0  0  0  0
   38.6031   16.7551  -10.2796 C   0  0  0  0  0  0  0  0  0  0  0  0
   39.2814   16.1881  -11.3303 C   0  0  0  0  0  0  0  0  0  0  0  0
   40.5656   15.7119  -11.2676 C   0  0  0  0  0  0  0  0  0  0  0  0
   41.1817   15.8395  -10.0141 C   0  0  0  0  0  0  0  0  0  0  0  0
   40.5332   16.4037   -8.9338 C   0  0  0  0  0  0  0  0  0  0  0  0
   37.5837   18.4222   -8.2449 C   0  0  0  0  0  0  0  0  0  0  0  0
   38.5551   17.4349   -8.0073 O   0  0  0  0  0  0  0  0  0  0  0  0
   38.5031   11.9184  -16.1718 C   0  0  0  0  0  0  0  0  0  0  0  0
   38.9096   11.1710  -17.2358 C   0  0  0  0  0  0  0  0  0  0  0  0
   38.0339   10.5302  -18.0300 N   0  0  0  0  0  0  0  0  0  0  0  0
   36.7146   10.5924  -17.8168 C   0  0  0  0  0  0  0  0  0  0  0  0
   36.2443   11.3304  -16.7606 C   0  0  0  0  0  0  0  0  0  0  0  0
   37.1371   12.0026  -15.9269 C   0  0  0  0  0  0  0  0  0  0  0  0
   36.6361   12.7916  -14.8660 N   0  0  0  0  0  0  0  0  0  0  0  0
   36.4224   14.2094  -14.9286 C   0  0  0  0  0  0  0  0  0  0  0  0
   35.0377   14.5414  -14.4225 C   0  0  0  0  0  0  0  0  0  0  0  0
   34.2131   13.3008  -14.2898 C   0  0  0  0  0  0  0  0  0  0  0  0
   32.9177   13.6221  -13.6751 N   0  0  0  0  0  0  0  0  0  0  0  0
   34.8201   12.2359  -13.4173 C   0  0  0  0  0  0  0  0  0  0  0  0
   36.3038   12.1281  -13.6127 C   0  0  0  0  0  0  0  0  0  0  0  0
   32.4564   12.7607  -13.3669 H   0  0  0  0  0  0  0  0  0  0  0  0
   32.3480   14.2312  -14.2956 H   0  0  0  0  0  0  0  0  0  0  0  0
 20 21  1  0  0  0
 21 14  1  0  0  0
 14 15  2  0  0  0
 15 16  1  0  0  0
 16 17  2  0  0  0
 17  5  1  0  0  0
  5  6  2  0  0  0
  6  7  1  0  0  0
  7  8  2  0  0  0
  8  9  1  0  0  0
  8 10  1  0  0  0
 10  1  1  0  0  0
  1  2  2  0  0  0
  1  3  1  0  0  0
  3 22  1  0  0  0
 22 23  2  0  0  0
 23 24  1  0  0  0
 24 25  2  0  0  0
 25 26  1  0  0  0
 26 27  2  0  0  0
 27 28  1  0  0  0
 28 29  1  0  0  0
 29 30  1  0  0  0
 30 31  1  0  0  0
 31 32  1  0  0  0
 31 33  1  0  0  0
 33 34  1  0  0  0
 10 11  2  0  0  0
 17 18  1  0  0  0
 18 19  2  0  0  0
 19 14  1  0  0  0
 11  5  1  0  0  0
 27 22  1  0  0  0
 34 28  1  0  0  0
  9 12  1  0  0  0
  9 13  1  0  0  0
  3  4  1  0  0  0
 32 35  1  0  0  0
 32 36  1  0  0  0
M  END
> <minimizedAffinity>
-7.60528

> <CNNscore>
0.2187769115

> <CNNaffinity>
7.0757341385

> <CNN_VS>
1.5480072498

> <CNNaffinity_variance>
0.1819118708

$$$$
[H]c1nc(N([H])[H])c(C(=O)N([H])c2c([H])nc([H])c([H])c2N2C([H])([H])C([H])([H])C([H])(N([H])[H])C([H])([H])C2([H])[H])nc1-c1c([H])c([H])c(OC([H])([H])[H])c([H])c1[H]


 36 39  0  0  0  0  0  0  0  0999 V2000
   40.2168   13.6280  -15.3739 C   0  0  0  0  0  0  0  0  0  0  0  0
   40.3327   14.3096  -16.4110 O   0  0  0  0  0  0  0  0  0  0  0  0
   39.3781   12.5248  -15.1627 N   0  0  0  0  0  0  0  0  0  0  0  0
   39.4599   12.0805  -14.1946 H   0  0  0  0  0  0  0  0  0  0  0  0
   43.1945   13.9279  -13.1703 C   0  0  0  0  0  0  0  0  0  0  0  0
   42.7393   14.8295  -12.2468 C   0  0  0  0  0  0  0  0  0  0  0  0
   41.4762   15.3505  -12.3198 N   0  0  0  0  0  0  0  0  0  0  0  0
   40.6538   14.9687  -13.3272 C   0  0  0  0  0  0  0  0  0  0  0  0
   39.3272   15.4939  -13.4349 N   0  0  0  0  0  0  0  0  0  0  0  0
   41.0899   14.0729  -14.2546 C   0  0  0  0  0  0  0  0  0  0  0  0
   42.3528   13.5729  -14.1535 N   0  0  0  0  0  0  0  0  0  0  0  0
   38.5019   14.9504  -13.1110 H   0  0  0  0  0  0  0  0  0  0  0  0
   39.1930   16.4241  -13.8399 H   0  0  0  0  0  0  0  0  0  0  0  0
   47.1153   12.2389  -13.1419 C   0  0  0  0  0  0  0  0  0  0  0  0
   46.4214   12.3718  -11.9648 C   0  0  0  0  0  0  0  0  0  0  0  0
   45.1618   12.9178  -11.9943 C   0  0  0  0  0  0  0  0  0  0  0  0
   44.5230   13.3519  -13.1272 C   0  0  0  0  0  0  0  0  0  0  0  0
   45.2574   13.2027  -14.3127 C   0  0  0  0  0  0  0  0  0  0  0  0
   46.5261   12.6586  -14.3241 C   0  0  0  0  0  0  0  0  0  0  0  0
   48.8124   10.9725  -11.9882 C   0  0  0  0  0  0  0  0  0  0  0  0
   48.3806   11.6908  -13.1162 O   0  0  0  0  0  0  0  0  0  0  0  0
   38.4715   11.9210  -16.0581 C   0  0  0  0  0  0  0  0  0  0  0  0
   38.8693   11.1529  -17.1105 C   0  0  0  0  0  0  0  0  0  0  0  0
   37.9850   10.5500  -17.9245 N   0  0  0  0  0  0  0  0  0  0  0  0
   36.6650   10.6725  -17.7435 C   0  0  0  0  0  0  0  0  0  0  0  0
   36.2033   11.4341  -16.7004 C   0  0  0  0  0  0  0  0  0  0  0  0
   37.1052   12.0676  -15.8465 C   0  0  0  0  0  0  0  0  0  0  0  0
   36.6150   12.8817  -14.7995 N   0  0  0  0  0  0  0  0  0  0  0  0
   36.3478   14.2874  -14.9103 C   0  0  0  0  0  0  0  0  0  0  0  0
   34.9713   14.5915  -14.3656 C   0  0  0  0  0  0  0  0  0  0  0  0
   34.1978   13.3295  -14.1524 C   0  0  0  0  0  0  0  0  0  0  0  0
   32.9149   13.6304  -13.5022 N   0  0  0  0  0  0  0  0  0  0  0  0
   34.8745   12.3230  -13.2620 C   0  0  0  0  0  0  0  0  0  0  0  0
   36.3531   12.2591  -13.5091 C   0  0  0  0  0  0  0  0  0  0  0  0
   32.4967   12.7668  -13.1427 H   0  0  0  0  0  0  0  0  0  0  0  0
   32.3011   14.1933  -14.1243 H   0  0  0  0  0  0  0  0  0  0  0  0
 20 21  1  0  0  0
 21 14  1  0  0  0
 14 15  2  0  0  0
 15 16  1  0  0  0
 16 17  2  0  0  0
 17  5  1  0  0  0
  5  6  2  0  0  0
  6  7  1  0  0  0
  7  8  2  0  0  0
  8  9  1  0  0  0
  8 10  1  0  0  0
 10  1  1  0  0  0
  1  2  2  0  0  0
  1  3  1  0  0  0
  3 22  1  0  0  0
 22 23  2  0  0  0
 23 24  1  0  0  0
 24 25  2  0  0  0
 25 26  1  0  0  0
 26 27  2  0  0  0
 27 28  1  0  0  0
 28 29  1  0  0  0
 29 30  1  0  0  0
 30 31  1  0  0  0
 31 32  1  0  0  0
 31 33  1  0  0  0
 33 34  1  0  0  0
 10 11  2  0  0  0
 17 18  1  0  0  0
 18 19  2  0  0  0
 19 14  1  0  0  0
 11  5  1  0  0  0
 27 22  1  0  0  0
 34 28  1  0  0  0
  9 12  1  0  0  0
  9 13  1  0  0  0
  3  4  1  0  0  0
 32 35  1  0  0  0
 32 36  1  0  0  0
M  END
> <minimizedAffinity>
-8.02193

> <CNNscore>
0.2166051418

> <CNNaffinity>
6.9892668724

> <CNN_VS>
1.5139111280

> <CNNaffinity_variance>
0.1321328580

$$$$
[H]c1nc(N([H])[H])c(C(=O)N([H])c2c([H])nc([H])c([H])c2N2C([H])([H])C([H])([H])C([H])(N([H])[H])C([H])([H])C2([H])[H])nc1-c1c([H])c([H])c(OC([H])([H])[H])c([H])c1[H]


 36 39  0  0  0  0  0  0  0  0999 V2000
   35.2390   12.7733  -13.5707 C   0  0  0  0  0  0  0  0  0  0  0  0
   34.7536   11.8410  -12.9009 O   0  0  0  0  0  0  0  0  0  0  0  0
   35.1756   14.1471  -13.2992 N   0  0  0  0  0  0  0  0  0  0  0  0
   35.6838   14.7661  -14.0062 H   0  0  0  0  0  0  0  0  0  0  0  0
   38.0171   12.1831  -15.9679 C   0  0  0  0  0  0  0  0  0  0  0  0
   37.3485   11.5571  -16.9848 C   0  0  0  0  0  0  0  0  0  0  0  0
   36.0033   11.3174  -16.9139 N   0  0  0  0  0  0  0  0  0  0  0  0
   35.3129   11.7062  -15.8142 C   0  0  0  0  0  0  0  0  0  0  0  0
   33.9058   11.4708  -15.7059 N   0  0  0  0  0  0  0  0  0  0  0  0
   35.9617   12.3301  -14.7932 C   0  0  0  0  0  0  0  0  0  0  0  0
   37.3014   12.5541  -14.8949 N   0  0  0  0  0  0  0  0  0  0  0  0
   33.2147   12.2240  -15.8968 H   0  0  0  0  0  0  0  0  0  0  0  0
   33.5777   10.5403  -15.4344 H   0  0  0  0  0  0  0  0  0  0  0  0
   42.1987   13.0429  -15.9941 C   0  0  0  0  0  0  0  0  0  0  0  0
   41.6481   12.3033  -17.0113 C   0  0  0  0  0  0  0  0  0  0  0  0
   40.3013   12.0368  -16.9849 C   0  0  0  0  0  0  0  0  0  0  0  0
   39.4390   12.4570  -16.0052 C   0  0  0  0  0  0  0  0  0  0  0  0
   40.0315   13.2098  -14.9809 C   0  0  0  0  0  0  0  0  0  0  0  0
   41.3814   13.4987  -14.9718 C   0  0  0  0  0  0  0  0  0  0  0  0
   44.1833   13.8338  -14.8756 C   0  0  0  0  0  0  0  0  0  0  0  0
   43.5510   13.3126  -16.0173 O   0  0  0  0  0  0  0  0  0  0  0  0
   34.5568   14.8052  -12.2165 C   0  0  0  0  0  0  0  0  0  0  0  0
   33.2239   15.0844  -12.1823 C   0  0  0  0  0  0  0  0  0  0  0  0
   32.6481   15.6724  -11.1189 N   0  0  0  0  0  0  0  0  0  0  0  0
   33.3551   16.0150  -10.0358 C   0  0  0  0  0  0  0  0  0  0  0  0
   34.7025   15.7597  -10.0114 C   0  0  0  0  0  0  0  0  0  0  0  0
   35.3172   15.1515  -11.1052 C   0  0  0  0  0  0  0  0  0  0  0  0
   36.7135   14.9307  -11.0822 N   0  0  0  0  0  0  0  0  0  0  0  0
   37.6068   15.2160  -12.1687 C   0  0  0  0  0  0  0  0  0  0  0  0
   38.7923   16.0052  -11.6631 C   0  0  0  0  0  0  0  0  0  0  0  0
   38.5433   16.4992  -10.2737 C   0  0  0  0  0  0  0  0  0  0  0  0
   39.7510   17.1506   -9.7482 N   0  0  0  0  0  0  0  0  0  0  0  0
   38.2001   15.4239   -9.2789 C   0  0  0  0  0  0  0  0  0  0  0  0
   37.3026   14.3772   -9.8706 C   0  0  0  0  0  0  0  0  0  0  0  0
   39.6666   17.2726   -8.7344 H   0  0  0  0  0  0  0  0  0  0  0  0
   39.9737   18.0151  -10.2807 H   0  0  0  0  0  0  0  0  0  0  0  0
 20 21  1  0  0  0
 21 14  1  0  0  0
 14 15  2  0  0  0
 15 16  1  0  0  0
 16 17  2  0  0  0
 17  5  1  0  0  0
  5  6  2  0  0  0
  6  7  1  0  0  0
  7  8  2  0  0  0
  8  9  1  0  0  0
  8 10  1  0  0  0
 10  1  1  0  0  0
  1  2  2  0  0  0
  1  3  1  0  0  0
  3 22  1  0  0  0
 22 23  2  0  0  0
 23 24  1  0  0  0
 24 25  2  0  0  0
 25 26  1  0  0  0
 26 27  2  0  0  0
 27 28  1  0  0  0
 28 29  1  0  0  0
 29 30  1  0  0  0
 30 31  1  0  0  0
 31 32  1  0  0  0
 31 33  1  0  0  0
 33 34  1  0  0  0
 10 11  2  0  0  0
 17 18  1  0  0  0
 18 19  2  0  0  0
 19 14  1  0  0  0
 11  5  1  0  0  0
 27 22  1  0  0  0
 34 28  1  0  0  0
  9 12  1  0  0  0
  9 13  1  0  0  0
  3  4  1  0  0  0
 32 35  1  0  0  0
 32 36  1  0  0  0
M  END
> <minimizedAffinity>
-8.67128

> <CNNscore>
0.1889636964

> <CNNaffinity>
6.8406934738

> <CNN_VS>
1.2926427126

> <CNNaffinity_variance>
0.0938441977

$$$$
[H]c1nc(N([H])[H])c(C(=O)N([H])c2c([H])nc([H])c([H])c2N2C([H])([H])C([H])([H])C([H])(N([H])[H])C([H])([H])C2([H])[H])nc1-c1c([H])c([H])c(OC([H])([H])[H])c([H])c1[H]


 36 39  0  0  0  0  0  0  0  0999 V2000
   38.8452   15.0708  -12.7444 C   0  0  0  0  0  0  0  0  0  0  0  0
   39.4391   15.9820  -13.3531 O   0  0  0  0  0  0  0  0  0  0  0  0
   38.5606   13.7773  -13.2036 N   0  0  0  0  0  0  0  0  0  0  0  0
   38.0553   13.1540  -12.4982 H   0  0  0  0  0  0  0  0  0  0  0  0
   38.8781   15.4674   -9.0493 C   0  0  0  0  0  0  0  0  0  0  0  0
   37.6746   16.0872   -8.8480 C   0  0  0  0  0  0  0  0  0  0  0  0
   36.8412   16.3845   -9.8916 N   0  0  0  0  0  0  0  0  0  0  0  0
   37.2110   16.0604  -11.1546 C   0  0  0  0  0  0  0  0  0  0  0  0
   36.3647   16.3572  -12.2695 N   0  0  0  0  0  0  0  0  0  0  0  0
   38.4045   15.4437  -11.3733 C   0  0  0  0  0  0  0  0  0  0  0  0
   39.2113   15.1614  -10.3128 N   0  0  0  0  0  0  0  0  0  0  0  0
   35.7632   15.6274  -12.7018 H   0  0  0  0  0  0  0  0  0  0  0  0
   36.3550   17.3088  -12.6457 H   0  0  0  0  0  0  0  0  0  0  0  0
   41.5815   14.5808   -5.8663 C   0  0  0  0  0  0  0  0  0  0  0  0
   40.9007   13.5626   -6.4864 C   0  0  0  0  0  0  0  0  0  0  0  0
   40.0352   13.8679   -7.5079 C   0  0  0  0  0  0  0  0  0  0  0  0
   39.7874   15.1340   -7.9721 C   0  0  0  0  0  0  0  0  0  0  0  0
   40.4977   16.1516   -7.3186 C   0  0  0  0  0  0  0  0  0  0  0  0
   41.3765   15.8851   -6.2878 C   0  0  0  0  0  0  0  0  0  0  0  0
   43.3585   13.2134   -4.9788 C   0  0  0  0  0  0  0  0  0  0  0  0
   42.4517   14.2780   -4.8401 O   0  0  0  0  0  0  0  0  0  0  0  0
   38.8718   13.1945  -14.4493 C   0  0  0  0  0  0  0  0  0  0  0  0
   40.0618   13.3903  -15.0828 C   0  0  0  0  0  0  0  0  0  0  0  0
   40.3536   12.7874  -16.2489 N   0  0  0  0  0  0  0  0  0  0  0  0
   39.4892   11.9616  -16.8496 C   0  0  0  0  0  0  0  0  0  0  0  0
   38.2736   11.7254  -16.2599 C   0  0  0  0  0  0  0  0  0  0  0  0
   37.9530   12.3422  -15.0513 C   0  0  0  0  0  0  0  0  0  0  0  0
   36.6810   12.1206  -14.4751 N   0  0  0  0  0  0  0  0  0  0  0  0
   36.4290   11.9943  -13.0679 C   0  0  0  0  0  0  0  0  0  0  0  0
   35.2790   12.8910  -12.6712 C   0  0  0  0  0  0  0  0  0  0  0  0
   34.9469   13.8428  -13.7758 C   0  0  0  0  0  0  0  0  0  0  0  0
   33.7472   14.6169  -13.4282 N   0  0  0  0  0  0  0  0  0  0  0  0
   34.6358   13.1879  -15.0942 C   0  0  0  0  0  0  0  0  0  0  0  0
   35.5320   12.0153  -15.3641 C   0  0  0  0  0  0  0  0  0  0  0  0
   33.3829   15.0865  -14.2628 H   0  0  0  0  0  0  0  0  0  0  0  0
   33.9236   15.2376  -12.6131 H   0  0  0  0  0  0  0  0  0  0  0  0
 20 21  1  0  0  0
 21 14  1  0  0  0
 14 15  2  0  0  0
 15 16  1  0  0  0
 16 17  2  0  0  0
 17  5  1  0  0  0
  5  6  2  0  0  0
  6  7  1  0  0  0
  7  8  2  0  0  0
  8  9  1  0  0  0
  8 10  1  0  0  0
 10  1  1  0  0  0
  1  2  2  0  0  0
  1  3  1  0  0  0
  3 22  1  0  0  0
 22 23  2  0  0  0
 23 24  1  0  0  0
 24 25  2  0  0  0
 25 26  1  0  0  0
 26 27  2  0  0  0
 27 28  1  0  0  0
 28 29  1  0  0  0
 29 30  1  0  0  0
 30 31  1  0  0  0
 31 32  1  0  0  0
 31 33  1  0  0  0
 33 34  1  0  0  0
 10 11  2  0  0  0
 17 18  1  0  0  0
 18 19  2  0  0  0
 19 14  1  0  0  0
 11  5  1  0  0  0
 27 22  1  0  0  0
 34 28  1  0  0  0
  9 12  1  0  0  0
  9 13  1  0  0  0
  3  4  1  0  0  0
 32 35  1  0  0  0
 32 36  1  0  0  0
M  END
> <minimizedAffinity>
-8.12714

> <CNNscore>
0.1795041710

> <CNNaffinity>
6.3969683647

> <CNN_VS>
1.1482825279

> <CNNaffinity_variance>
0.1205859929

$$$$
[H]c1nc(N([H])[H])c(C(=O)N([H])c2c([H])nc([H])c([H])c2N2C([H])([H])C([H])([H])C([H])(N([H])[H])C([H])([H])C2([H])[H])nc1-c1c([H])c([H])c(OC([H])([H])[H])c([H])c1[H]


 36 39  0  0  0  0  0  0  0  0999 V2000
   42.5724   13.4586  -14.7187 C   0  0  0  0  0  0  0  0  0  0  0  0
   43.4235   12.6200  -15.0733 O   0  0  0  0  0  0  0  0  0  0  0  0
   41.2435   13.5668  -15.1517 N   0  0  0  0  0  0  0  0  0  0  0  0
   40.6876   14.3562  -14.6944 H   0  0  0  0  0  0  0  0  0  0  0  0
   42.6952   15.5876  -11.6749 C   0  0  0  0  0  0  0  0  0  0  0  0
   43.8985   16.2155  -11.8506 C   0  0  0  0  0  0  0  0  0  0  0  0
   44.6823   15.9642  -12.9436 N   0  0  0  0  0  0  0  0  0  0  0  0
   44.2625   15.0743  -13.8757 C   0  0  0  0  0  0  0  0  0  0  0  0
   45.0568   14.7865  -15.0304 N   0  0  0  0  0  0  0  0  0  0  0  0
   43.0684   14.4405  -13.7172 C   0  0  0  0  0  0  0  0  0  0  0  0
   42.3118   14.7131  -12.6179 N   0  0  0  0  0  0  0  0  0  0  0  0
   44.8491   15.2207  -15.9522 H   0  0  0  0  0  0  0  0  0  0  0  0
   45.8445   14.1391  -14.9423 H   0  0  0  0  0  0  0  0  0  0  0  0
   40.2372   16.2692   -8.2516 C   0  0  0  0  0  0  0  0  0  0  0  0
   39.7125   16.4275   -9.5104 C   0  0  0  0  0  0  0  0  0  0  0  0
   40.5191   16.2042  -10.5990 C   0  0  0  0  0  0  0  0  0  0  0  0
   41.8358   15.8273  -10.5338 C   0  0  0  0  0  0  0  0  0  0  0  0
   42.3420   15.6739   -9.2348 C   0  0  0  0  0  0  0  0  0  0  0  0
   41.5630   15.8892   -8.1155 C   0  0  0  0  0  0  0  0  0  0  0  0
   38.3599   15.6237   -6.8826 C   0  0  0  0  0  0  0  0  0  0  0  0
   39.4301   16.4925   -7.1558 O   0  0  0  0  0  0  0  0  0  0  0  0
   40.5501   12.7649  -16.0815 C   0  0  0  0  0  0  0  0  0  0  0  0
   41.1201   12.2958  -17.2264 C   0  0  0  0  0  0  0  0  0  0  0  0
   40.4529   11.4951  -18.0760 N   0  0  0  0  0  0  0  0  0  0  0  0
   39.1915   11.1157  -17.8413 C   0  0  0  0  0  0  0  0  0  0  0  0
   38.5635   11.5567  -16.7044 C   0  0  0  0  0  0  0  0  0  0  0  0
   39.2391   12.3883  -15.8123 C   0  0  0  0  0  0  0  0  0  0  0  0
   38.5663   12.8672  -14.6647 N   0  0  0  0  0  0  0  0  0  0  0  0
   38.6498   14.2104  -14.1660 C   0  0  0  0  0  0  0  0  0  0  0  0
   37.2614   14.7462  -13.9030 C   0  0  0  0  0  0  0  0  0  0  0  0
   36.2272   13.8497  -14.5055 C   0  0  0  0  0  0  0  0  0  0  0  0
   34.8831   14.3108  -14.1313 N   0  0  0  0  0  0  0  0  0  0  0  0
   36.3015   12.4163  -14.0544 C   0  0  0  0  0  0  0  0  0  0  0  0
   37.7187   11.9403  -13.9273 C   0  0  0  0  0  0  0  0  0  0  0  0
   34.1956   13.5789  -14.3349 H   0  0  0  0  0  0  0  0  0  0  0  0
   34.6754   15.2406  -14.5472 H   0  0  0  0  0  0  0  0  0  0  0  0
 20 21  1  0  0  0
 21 14  1  0  0  0
 14 15  2  0  0  0
 15 16  1  0  0  0
 16 17  2  0  0  0
 17  5  1  0  0  0
  5  6  2  0  0  0
  6  7  1  0  0  0
  7  8  2  0  0  0
  8  9  1  0  0  0
  8 10  1  0  0  0
 10  1  1  0  0  0
  1  2  2  0  0  0
  1  3  1  0  0  0
  3 22  1  0  0  0
 22 23  2  0  0  0
 23 24  1  0  0  0
 24 25  2  0  0  0
 25 26  1  0  0  0
 26 27  2  0  0  0
 27 28  1  0  0  0
 28 29  1  0  0  0
 29 30  1  0  0  0
 30 31  1  0  0  0
 31 32  1  0  0  0
 31 33  1  0  0  0
 33 34  1  0  0  0
 10 11  2  0  0  0
 17 18  1  0  0  0
 18 19  2  0  0  0
 19 14  1  0  0  0
 11  5  1  0  0  0
 27 22  1  0  0  0
 34 28  1  0  0  0
  9 12  1  0  0  0
  9 13  1  0  0  0
  3  4  1  0  0  0
 32 35  1  0  0  0
 32 36  1  0  0  0
M  END
> <minimizedAffinity>
-8.15047

> <CNNscore>
0.1580515206

> <CNNaffinity>
6.5183725357

> <CNN_VS>
1.0302387476

> <CNNaffinity_variance>
0.1354711354

$$$$
[H]c1nc(N([H])[H])c(C(=O)N([H])c2c([H])nc([H])c([H])c2N2C([H])([H])C([H])([H])C([H])(N([H])[H])C([H])([H])C2([H])[H])nc1-c1c([H])c([H])c(OC([H])([H])[H])c([H])c1[H]


 36 39  0  0  0  0  0  0  0  0999 V2000
   39.0200   14.7800  -13.4459 C   0  0  0  0  0  0  0  0  0  0  0  0
   39.6359   15.4938  -14.2612 O   0  0  0  0  0  0  0  0  0  0  0  0
   38.3978   13.5469  -13.6853 N   0  0  0  0  0  0  0  0  0  0  0  0
   37.9434   13.1018  -12.8270 H   0  0  0  0  0  0  0  0  0  0  0  0
   37.6987   15.6876  -10.0929 C   0  0  0  0  0  0  0  0  0  0  0  0
   38.7791   16.3364   -9.5594 C   0  0  0  0  0  0  0  0  0  0  0  0
   39.9405   16.4898  -10.2663 N   0  0  0  0  0  0  0  0  0  0  0  0
   40.0282   15.9897  -11.5230 C   0  0  0  0  0  0  0  0  0  0  0  0
   41.2275   16.1309  -12.2905 N   0  0  0  0  0  0  0  0  0  0  0  0
   38.9634   15.3414  -12.0694 C   0  0  0  0  0  0  0  0  0  0  0  0
   37.8215   15.2057  -11.3394 N   0  0  0  0  0  0  0  0  0  0  0  0
   41.3189   16.8646  -13.0217 H   0  0  0  0  0  0  0  0  0  0  0  0
   42.0086   15.4942  -12.1125 H   0  0  0  0  0  0  0  0  0  0  0  0
   33.9788   15.2142   -8.0522 C   0  0  0  0  0  0  0  0  0  0  0  0
   35.1008   14.5784   -7.5813 C   0  0  0  0  0  0  0  0  0  0  0  0
   36.2878   14.7426   -8.2517 C   0  0  0  0  0  0  0  0  0  0  0  0
   36.4515   15.5062   -9.3787 C   0  0  0  0  0  0  0  0  0  0  0  0
   35.2878   16.1425   -9.8344 C   0  0  0  0  0  0  0  0  0  0  0  0
   34.0759   16.0022   -9.1882 C   0  0  0  0  0  0  0  0  0  0  0  0
   32.7733   14.4910   -6.0929 C   0  0  0  0  0  0  0  0  0  0  0  0
   32.7848   15.0518   -7.3814 O   0  0  0  0  0  0  0  0  0  0  0  0
   38.3164   12.8185  -14.8899 C   0  0  0  0  0  0  0  0  0  0  0  0
   39.3318   12.7693  -15.7967 C   0  0  0  0  0  0  0  0  0  0  0  0
   39.2484   12.0310  -16.9175 N   0  0  0  0  0  0  0  0  0  0  0  0
   38.1618   11.3039  -17.2019 C   0  0  0  0  0  0  0  0  0  0  0  0
   37.1058   11.3136  -16.3267 C   0  0  0  0  0  0  0  0  0  0  0  0
   37.1736   12.0739  -15.1599 C   0  0  0  0  0  0  0  0  0  0  0  0
   36.0621   12.1058  -14.2868 N   0  0  0  0  0  0  0  0  0  0  0  0
   36.1435   12.2425  -12.8604 C   0  0  0  0  0  0  0  0  0  0  0  0
   35.1972   13.3251  -12.3950 C   0  0  0  0  0  0  0  0  0  0  0  0
   34.6890   14.1169  -13.5574 C   0  0  0  0  0  0  0  0  0  0  0  0
   33.6732   15.0776  -13.1052 N   0  0  0  0  0  0  0  0  0  0  0  0
   34.0210   13.2984  -14.6286 C   0  0  0  0  0  0  0  0  0  0  0  0
   34.7297   11.9972  -14.8651 C   0  0  0  0  0  0  0  0  0  0  0  0
   33.1594   15.4453  -13.9118 H   0  0  0  0  0  0  0  0  0  0  0  0
   34.0881   15.7968  -12.4798 H   0  0  0  0  0  0  0  0  0  0  0  0
 20 21  1  0  0  0
 21 14  1  0  0  0
 14 15  2  0  0  0
 15 16  1  0  0  0
 16 17  2  0  0  0
 17  5  1  0  0  0
  5  6  2  0  0  0
  6  7  1  0  0  0
  7  8  2  0  0  0
  8  9  1  0  0  0
  8 10  1  0  0  0
 10  1  1  0  0  0
  1  2  2  0  0  0
  1  3  1  0  0  0
  3 22  1  0  0  0
 22 23  2  0  0  0
 23 24  1  0  0  0
 24 25  2  0  0  0
 25 26  1  0  0  0
 26 27  2  0  0  0
 27 28  1  0  0  0
 28 29  1  0  0  0
 29 30  1  0  0  0
 30 31  1  0  0  0
 31 32  1  0  0  0
 31 33  1  0  0  0
 33 34  1  0  0  0
 10 11  2  0  0  0
 17 18  1  0  0  0
 18 19  2  0  0  0
 19 14  1  0  0  0
 11  5  1  0  0  0
 27 22  1  0  0  0
 34 28  1  0  0  0
  9 12  1  0  0  0
  9 13  1  0  0  0
  3  4  1  0  0  0
 32 35  1  0  0  0
 32 36  1  0  0  0
M  END
> <minimizedAffinity>
-8.62450

> <CNNscore>
0.1476615965

> <CNNaffinity>
6.3841462135

> <CNN_VS>
0.9426932335

> <CNNaffinity_variance>
0.3418615460

$$$$
[H]c1c([H])c(N([H])C(=O)N([H])[C@]([H])(C(=O)N([H])[C@]([H])(C(=O)N([H])[H])C([H])([H])C([H])([H])C([H])([H])[H])C([H])([H])C([H])(C([H])([H])[H])C([H])([H])[H])c([H])c([H])c1Br


 31 31  0  0  0  0  0  0  0  0999 V2000
   35.4230   16.0124   -8.9146 C   0  0  0  0  0  0  0  0  0  0  0  0
   34.9720   16.0722  -10.2998 N   0  0  0  0  0  0  0  0  0  0  0  0
   35.3021   15.0200  -11.1853 C   0  0  0  0  0  0  0  0  0  0  0  0
   35.9887   14.0271  -10.7769 O   0  0  0  0  0  0  0  0  0  0  0  0
   34.8815   15.0534  -12.5173 N   0  0  0  0  0  0  0  0  0  0  0  0
   34.4257   16.8686  -10.6141 H   0  0  0  0  0  0  0  0  0  0  0  0
   34.3153   15.9255  -12.7817 H   0  0  0  0  0  0  0  0  0  0  0  0
   35.1014   14.0977  -13.5341 C   0  0  0  0  0  0  0  0  0  0  0  0
   36.2022   14.0229  -14.3425 C   0  0  0  0  0  0  0  0  0  0  0  0
   36.3275   13.0462  -15.3473 C   0  0  0  0  0  0  0  0  0  0  0  0
   35.3430   12.1158  -15.5634 C   0  0  0  0  0  0  0  0  0  0  0  0
   35.5147   10.7891  -16.9297 Br  0  0  0  0  0  0  0  0  0  0  0  0
   34.2334   12.1782  -14.7602 C   0  0  0  0  0  0  0  0  0  0  0  0
   34.1102   13.1316  -13.7791 C   0  0  0  0  0  0  0  0  0  0  0  0
   33.4707   14.8504   -7.8542 N   0  0  0  0  0  0  0  0  0  0  0  0
   34.2226   16.0518   -8.0793 C   0  0  0  0  0  0  0  0  0  0  0  0
   33.8320   17.1477   -7.5564 O   0  0  0  0  0  0  0  0  0  0  0  0
   33.8239   13.9748   -8.2865 H   0  0  0  0  0  0  0  0  0  0  0  0
   32.2656   14.8598   -7.0552 C   0  0  0  0  0  0  0  0  0  0  0  0
   32.6239   14.7305   -5.6219 C   0  0  0  0  0  0  0  0  0  0  0  0
   32.6478   15.9100   -4.8014 N   0  0  0  0  0  0  0  0  0  0  0  0
   32.9096   13.6588   -5.0700 O   0  0  0  0  0  0  0  0  0  0  0  0
   32.8394   16.8112   -5.2695 H   0  0  0  0  0  0  0  0  0  0  0  0
   32.4793   15.8722   -3.7689 H   0  0  0  0  0  0  0  0  0  0  0  0
   31.3725   13.7177   -7.4356 C   0  0  0  0  0  0  0  0  0  0  0  0
   29.3754   15.2853   -7.4014 C   0  0  0  0  0  0  0  0  0  0  0  0
   29.9168   13.9074   -7.3668 C   0  0  0  0  0  0  0  0  0  0  0  0
   36.5055   16.9747   -8.6522 C   0  0  0  0  0  0  0  0  0  0  0  0
   37.2914   17.5513   -9.7439 C   0  0  0  0  0  0  0  0  0  0  0  0
   38.5478   16.6521   -9.9604 C   0  0  0  0  0  0  0  0  0  0  0  0
   37.8854   18.9099   -9.4967 C   0  0  0  0  0  0  0  0  0  0  0  0
 26 27  1  0  0  0
 27 25  1  0  0  0
 25 19  1  0  0  0
 19 15  1  0  0  0
 15 16  1  0  0  0
 16 17  2  0  0  0
 16  1  1  0  0  0
  1 28  1  0  0  0
 28 29  1  0  0  0
 29 30  1  0  0  0
 29 31  1  0  0  0
  1  2  1  0  0  0
  2  3  1  0  0  0
  3  4  2  0  0  0
  3  5  1  0  0  0
  5  8  1  0  0  0
  8  9  2  0  0  0
  9 10  1  0  0  0
 10 11  2  0  0  0
 11 12  1  0  0  0
 11 13  1  0  0  0
 13 14  2  0  0  0
 19 20  1  0  0  0
 20 21  1  0  0  0
 20 22  2  0  0  0
 14  8  1  0  0  0
 15 18  1  0  0  0
  2  6  1  0  0  0
  5  7  1  0  0  0
 21 23  1  0  0  0
 21 24  1  0  0  0
M  END
> <minimizedAffinity>
-6.62490

> <CNNscore>
0.4387208819

> <CNNaffinity>
5.6217412949

> <CNN_VS>
2.4663753510

> <CNNaffinity_variance>
0.3613718748

$$$$
[H]c1c([H])c(N([H])C(=O)N([H])[C@]([H])(C(=O)N([H])[C@]([H])(C(=O)N([H])[H])C([H])([H])C([H])([H])C([H])([H])[H])C([H])([H])C([H])(C([H])([H])[H])C([H])([H])[H])c([H])c([H])c1Br


 31 31  0  0  0  0  0  0  0  0999 V2000
   38.7153   13.0428  -15.2444 C   0  0  0  0  0  0  0  0  0  0  0  0
   39.7159   13.1374  -14.1882 N   0  0  0  0  0  0  0  0  0  0  0  0
   41.0099   13.6179  -14.4963 C   0  0  0  0  0  0  0  0  0  0  0  0
   41.3003   13.9654  -15.6875 O   0  0  0  0  0  0  0  0  0  0  0  0
   41.9863   13.7186  -13.5021 N   0  0  0  0  0  0  0  0  0  0  0  0
   39.4732   12.8573  -13.2426 H   0  0  0  0  0  0  0  0  0  0  0  0
   41.6636   13.3999  -12.5298 H   0  0  0  0  0  0  0  0  0  0  0  0
   43.3153   14.1835  -13.6173 C   0  0  0  0  0  0  0  0  0  0  0  0
   43.7863   15.3893  -13.1753 C   0  0  0  0  0  0  0  0  0  0  0  0
   45.1263   15.7794  -13.3523 C   0  0  0  0  0  0  0  0  0  0  0  0
   46.0297   14.9608  -13.9811 C   0  0  0  0  0  0  0  0  0  0  0  0
   47.8506   15.4926  -14.2210 Br  0  0  0  0  0  0  0  0  0  0  0  0
   45.5720   13.7484  -14.4292 C   0  0  0  0  0  0  0  0  0  0  0  0
   44.2638   13.3668  -14.2571 C   0  0  0  0  0  0  0  0  0  0  0  0
   36.2365   12.7735  -14.9811 N   0  0  0  0  0  0  0  0  0  0  0  0
   37.4458   13.4770  -14.6613 C   0  0  0  0  0  0  0  0  0  0  0  0
   37.4022   14.4827  -13.8780 O   0  0  0  0  0  0  0  0  0  0  0  0
   36.3110   11.9533  -15.6134 H   0  0  0  0  0  0  0  0  0  0  0  0
   34.9618   13.1925  -14.4423 C   0  0  0  0  0  0  0  0  0  0  0  0
   34.9623   13.0030  -12.9715 C   0  0  0  0  0  0  0  0  0  0  0  0
   34.5852   14.1036  -12.1280 N   0  0  0  0  0  0  0  0  0  0  0  0
   35.2703   11.9444  -12.4063 O   0  0  0  0  0  0  0  0  0  0  0  0
   34.7392   15.0578  -12.4938 H   0  0  0  0  0  0  0  0  0  0  0  0
   34.1698   13.9588  -11.1781 H   0  0  0  0  0  0  0  0  0  0  0  0
   33.8480   12.3823  -15.0341 C   0  0  0  0  0  0  0  0  0  0  0  0
   33.6036   10.8318  -17.0298 C   0  0  0  0  0  0  0  0  0  0  0  0
   34.1743   11.1092  -15.6919 C   0  0  0  0  0  0  0  0  0  0  0  0
   38.7747   11.7449  -15.9363 C   0  0  0  0  0  0  0  0  0  0  0  0
   38.7834   11.6619  -17.3975 C   0  0  0  0  0  0  0  0  0  0  0  0
   37.7049   10.6197  -17.8273 C   0  0  0  0  0  0  0  0  0  0  0  0
   40.0391   11.1311  -18.0307 C   0  0  0  0  0  0  0  0  0  0  0  0
 26 27  1  0  0  0
 27 25  1  0  0  0
 25 19  1  0  0  0
 19 15  1  0  0  0
 15 16  1  0  0  0
 16 17  2  0  0  0
 16  1  1  0  0  0
  1 28  1  0  0  0
 28 29  1  0  0  0
 29 30  1  0  0  0
 29 31  1  0  0  0
  1  2  1  0  0  0
  2  3  1  0  0  0
  3  4  2  0  0  0
  3  5  1  0  0  0
  5  8  1  0  0  0
  8  9  2  0  0  0
  9 10  1  0  0  0
 10 11  2  0  0  0
 11 12  1  0  0  0
 11 13  1  0  0  0
 13 14  2  0  0  0
 19 20  1  0  0  0
 20 21  1  0  0  0
 20 22  2  0  0  0
 14  8  1  0  0  0
 15 18  1  0  0  0
  2  6  1  0  0  0
  5  7  1  0  0  0
 21 23  1  0  0  0
 21 24  1  0  0  0
M  END
> <minimizedAffinity>
-6.83995

> <CNNscore>
0.3579758704

> <CNNaffinity>
6.2150449753

> <CNN_VS>
2.2248361111

> <CNNaffinity_variance>
0.0682643801

$$$$
[H]c1c([H])c(N([H])C(=O)N([H])[C@]([H])(C(=O)N([H])[C@]([H])(C(=O)N([H])[H])C([H])([H])C([H])([H])C([H])([H])[H])C([H])([H])C([H])(C([H])([H])[H])C([H])([H])[H])c([H])c([H])c1Br


 31 31  0  0  0  0  0  0  0  0999 V2000
   36.3758   12.5962  -14.7508 C   0  0  0  0  0  0  0  0  0  0  0  0
   35.9221   13.8998  -14.2811 N   0  0  0  0  0  0  0  0  0  0  0  0
   35.1206   13.9806  -13.1186 C   0  0  0  0  0  0  0  0  0  0  0  0
   34.7966   12.9228  -12.4860 O   0  0  0  0  0  0  0  0  0  0  0  0
   34.6735   15.2177  -12.6478 N   0  0  0  0  0  0  0  0  0  0  0  0
   36.1862   14.7359  -14.7936 H   0  0  0  0  0  0  0  0  0  0  0  0
   34.9840   16.0563  -13.2406 H   0  0  0  0  0  0  0  0  0  0  0  0
   33.8845   15.4933  -11.5089 C   0  0  0  0  0  0  0  0  0  0  0  0
   34.3536   15.7836  -10.2572 C   0  0  0  0  0  0  0  0  0  0  0  0
   33.4909   16.0250   -9.1724 C   0  0  0  0  0  0  0  0  0  0  0  0
   32.1281   15.9805   -9.3221 C   0  0  0  0  0  0  0  0  0  0  0  0
   30.9570   16.3086   -7.8466 Br  0  0  0  0  0  0  0  0  0  0  0  0
   31.6432   15.6910  -10.5716 C   0  0  0  0  0  0  0  0  0  0  0  0
   32.4847   15.4549  -11.6312 C   0  0  0  0  0  0  0  0  0  0  0  0
   38.7793   13.2418  -15.0554 N   0  0  0  0  0  0  0  0  0  0  0  0
   37.7816   12.4758  -14.3644 C   0  0  0  0  0  0  0  0  0  0  0  0
   38.1306   11.6877  -13.4241 O   0  0  0  0  0  0  0  0  0  0  0  0
   38.4580   13.8808  -15.8080 H   0  0  0  0  0  0  0  0  0  0  0  0
   40.1800   13.1267  -14.7156 C   0  0  0  0  0  0  0  0  0  0  0  0
   40.6074   14.3363  -13.9716 C   0  0  0  0  0  0  0  0  0  0  0  0
   41.8160   14.2854  -13.1961 N   0  0  0  0  0  0  0  0  0  0  0  0
   39.9860   15.4081  -13.9701 O   0  0  0  0  0  0  0  0  0  0  0  0
   42.1091   13.3637  -12.8320 H   0  0  0  0  0  0  0  0  0  0  0  0
   42.3870   15.1407  -13.0000 H   0  0  0  0  0  0  0  0  0  0  0  0
   41.0139   13.0011  -15.9549 C   0  0  0  0  0  0  0  0  0  0  0  0
   40.5883   11.6960  -18.0908 C   0  0  0  0  0  0  0  0  0  0  0  0
   40.3351   12.8909  -17.2537 C   0  0  0  0  0  0  0  0  0  0  0  0
   36.0001   12.3620  -16.1545 C   0  0  0  0  0  0  0  0  0  0  0  0
   35.7548   11.0109  -16.6607 C   0  0  0  0  0  0  0  0  0  0  0  0
   36.6888   10.7796  -17.8888 C   0  0  0  0  0  0  0  0  0  0  0  0
   34.3858   10.7438  -17.2210 C   0  0  0  0  0  0  0  0  0  0  0  0
 26 27  1  0  0  0
 27 25  1  0  0  0
 25 19  1  0  0  0
 19 15  1  0  0  0
 15 16  1  0  0  0
 16 17  2  0  0  0
 16  1  1  0  0  0
  1 28  1  0  0  0
 28 29  1  0  0  0
 29 30  1  0  0  0
 29 31  1  0  0  0
  1  2  1  0  0  0
  2  3  1  0  0  0
  3  4  2  0  0  0
  3  5  1  0  0  0
  5  8  1  0  0  0
  8  9  2  0  0  0
  9 10  1  0  0  0
 10 11  2  0  0  0
 11 12  1  0  0  0
 11 13  1  0  0  0
 13 14  2  0  0  0
 19 20  1  0  0  0
 20 21  1  0  0  0
 20 22  2  0  0  0
 14  8  1  0  0  0
 15 18  1  0  0  0
  2  6  1  0  0  0
  5  7  1  0  0  0
 21 23  1  0  0  0
 21 24  1  0  0  0
M  END
> <minimizedAffinity>
-7.42662

> <CNNscore>
0.3429273665

> <CNNaffinity>
6.1335706711

> <CNN_VS>
2.1033692360

> <CNNaffinity_variance>
0.1843516976

$$$$
[H]c1c([H])c(N([H])C(=O)N([H])[C@]([H])(C(=O)N([H])[C@]([H])(C(=O)N([H])[H])C([H])([H])C([H])([H])C([H])([H])[H])C([H])([H])C([H])(C([H])([H])[H])C([H])([H])[H])c([H])c([H])c1Br


 31 31  0  0  0  0  0  0  0  0999 V2000
   35.9617   12.7695  -14.3178 C   0  0  0  0  0  0  0  0  0  0  0  0
   35.7436   14.1349  -13.8551 N   0  0  0  0  0  0  0  0  0  0  0  0
   35.6876   14.3988  -12.4668 C   0  0  0  0  0  0  0  0  0  0  0  0
   35.8262   13.4514  -11.6258 O   0  0  0  0  0  0  0  0  0  0  0  0
   35.4801   15.6985  -11.9980 N   0  0  0  0  0  0  0  0  0  0  0  0
   35.6341   14.8818  -14.5345 H   0  0  0  0  0  0  0  0  0  0  0  0
   35.3665   16.4353  -12.7695 H   0  0  0  0  0  0  0  0  0  0  0  0
   35.4088   16.1515  -10.6618 C   0  0  0  0  0  0  0  0  0  0  0  0
   34.3584   15.9666   -9.8054 C   0  0  0  0  0  0  0  0  0  0  0  0
   34.3653   16.4731   -8.4928 C   0  0  0  0  0  0  0  0  0  0  0  0
   35.4354   17.1810   -8.0078 C   0  0  0  0  0  0  0  0  0  0  0  0
   35.4430   17.8688   -6.2237 Br  0  0  0  0  0  0  0  0  0  0  0  0
   36.4962   17.3739   -8.8550 C   0  0  0  0  0  0  0  0  0  0  0  0
   36.4902   16.8800  -10.1367 C   0  0  0  0  0  0  0  0  0  0  0  0
   38.3431   13.3180  -14.8787 N   0  0  0  0  0  0  0  0  0  0  0  0
   37.3931   12.5017  -14.1782 C   0  0  0  0  0  0  0  0  0  0  0  0
   37.8050   11.5416  -13.4464 O   0  0  0  0  0  0  0  0  0  0  0  0
   37.9727   14.0971  -15.4567 H   0  0  0  0  0  0  0  0  0  0  0  0
   39.7632   13.0640  -14.7829 C   0  0  0  0  0  0  0  0  0  0  0  0
   40.4236   14.2068  -14.1068 C   0  0  0  0  0  0  0  0  0  0  0  0
   41.6898   13.9960  -13.4610 N   0  0  0  0  0  0  0  0  0  0  0  0
   39.9538   15.3521  -14.0575 O   0  0  0  0  0  0  0  0  0  0  0  0
   41.8946   13.0440  -13.1149 H   0  0  0  0  0  0  0  0  0  0  0  0
   42.3868   14.7676  -13.3391 H   0  0  0  0  0  0  0  0  0  0  0  0
   40.3616   12.8974  -16.1472 C   0  0  0  0  0  0  0  0  0  0  0  0
   40.4659   11.6038  -18.3294 C   0  0  0  0  0  0  0  0  0  0  0  0
   39.7610   11.9206  -17.0664 C   0  0  0  0  0  0  0  0  0  0  0  0
   35.3143   12.5246  -15.6168 C   0  0  0  0  0  0  0  0  0  0  0  0
   35.2154   11.1752  -16.1746 C   0  0  0  0  0  0  0  0  0  0  0  0
   36.1653   11.0935  -17.4096 C   0  0  0  0  0  0  0  0  0  0  0  0
   33.8817   10.7829  -16.7463 C   0  0  0  0  0  0  0  0  0  0  0  0
 26 27  1  0  0  0
 27 25  1  0  0  0
 25 19  1  0  0  0
 19 15  1  0  0  0
 15 16  1  0  0  0
 16 17  2  0  0  0
 16  1  1  0  0  0
  1 28  1  0  0  0
 28 29  1  0  0  0
 29 30  1  0  0  0
 29 31  1  0  0  0
  1  2  1  0  0  0
  2  3  1  0  0  0
  3  4  2  0  0  0
  3  5  1  0  0  0
  5  8  1  0  0  0
  8  9  2  0  0  0
  9 10  1  0  0  0
 10 11  2  0  0  0
 11 12  1  0  0  0
 11 13  1  0  0  0
 13 14  2  0  0  0
 19 20  1  0  0  0
 20 21  1  0  0  0
 20 22  2  0  0  0
 14  8  1  0  0  0
 15 18  1  0  0  0
  2  6  1  0  0  0
  5  7  1  0  0  0
 21 23  1  0  0  0
 21 24  1  0  0  0
M  END
> <minimizedAffinity>
-7.58481

> <CNNscore>
0.3412769139

> <CNNaffinity>
5.9709391594

> <CNN_VS>
2.0377438068

> <CNNaffinity_variance>
0.1958711892

$$$$
[H]c1c([H])c(N([H])C(=O)N([H])[C@]([H])(C(=O)N([H])[C@]([H])(C(=O)N([H])[H])C([H])([H])C([H])([H])C([H])([H])[H])C([H])([H])C([H])(C([H])([H])[H])C([H])([H])[H])c([H])c([H])c1Br


 31 31  0  0  0  0  0  0  0  0999 V2000
   37.3206   13.6533  -14.5555 C   0  0  0  0  0  0  0  0  0  0  0  0
   38.5845   13.0494  -14.1512 N   0  0  0  0  0  0  0  0  0  0  0  0
   39.7922   13.7538  -14.3645 C   0  0  0  0  0  0  0  0  0  0  0  0
   39.7770   14.9073  -14.9060 O   0  0  0  0  0  0  0  0  0  0  0  0
   41.0164   13.1972  -13.9856 N   0  0  0  0  0  0  0  0  0  0  0  0
   38.5844   12.1294  -13.7209 H   0  0  0  0  0  0  0  0  0  0  0  0
   40.9425   12.2222  -13.5441 H   0  0  0  0  0  0  0  0  0  0  0  0
   42.3102   13.7515  -14.1054 C   0  0  0  0  0  0  0  0  0  0  0  0
   43.2076   13.4897  -15.1040 C   0  0  0  0  0  0  0  0  0  0  0  0
   44.4874   14.0736  -15.1318 C   0  0  0  0  0  0  0  0  0  0  0  0
   44.8967   14.9401  -14.1505 C   0  0  0  0  0  0  0  0  0  0  0  0
   46.6364   15.7327  -14.1896 Br  0  0  0  0  0  0  0  0  0  0  0  0
   44.0074   15.2125  -13.1429 C   0  0  0  0  0  0  0  0  0  0  0  0
   42.7579   14.6427  -13.1149 C   0  0  0  0  0  0  0  0  0  0  0  0
   35.5065   14.7002  -13.1773 N   0  0  0  0  0  0  0  0  0  0  0  0
   36.4523   13.6397  -13.3782 C   0  0  0  0  0  0  0  0  0  0  0  0
   36.5351   12.6978  -12.5221 O   0  0  0  0  0  0  0  0  0  0  0  0
   35.4591   15.4445  -13.8997 H   0  0  0  0  0  0  0  0  0  0  0  0
   34.6518   14.7303  -12.0114 C   0  0  0  0  0  0  0  0  0  0  0  0
   33.2328   14.7608  -12.4414 C   0  0  0  0  0  0  0  0  0  0  0  0
   32.8289   13.9615  -13.5651 N   0  0  0  0  0  0  0  0  0  0  0  0
   32.3535   15.4386  -11.8916 O   0  0  0  0  0  0  0  0  0  0  0  0
   33.5463   13.7439  -14.2765 H   0  0  0  0  0  0  0  0  0  0  0  0
   31.8497   13.6069  -13.6716 H   0  0  0  0  0  0  0  0  0  0  0  0
   34.9329   15.9481  -11.1838 C   0  0  0  0  0  0  0  0  0  0  0  0
   36.6324   14.8547   -9.6466 C   0  0  0  0  0  0  0  0  0  0  0  0
   36.2030   16.0233  -10.4483 C   0  0  0  0  0  0  0  0  0  0  0  0
   36.8212   13.0796  -15.8157 C   0  0  0  0  0  0  0  0  0  0  0  0
   36.4330   11.6715  -15.9090 C   0  0  0  0  0  0  0  0  0  0  0  0
   37.1007   11.0712  -17.1849 C   0  0  0  0  0  0  0  0  0  0  0  0
   34.9722   11.3925  -16.1277 C   0  0  0  0  0  0  0  0  0  0  0  0
 26 27  1  0  0  0
 27 25  1  0  0  0
 25 19  1  0  0  0
 19 15  1  0  0  0
 15 16  1  0  0  0
 16 17  2  0  0  0
 16  1  1  0  0  0
  1 28  1  0  0  0
 28 29  1  0  0  0
 29 30  1  0  0  0
 29 31  1  0  0  0
  1  2  1  0  0  0
  2  3  1  0  0  0
  3  4  2  0  0  0
  3  5  1  0  0  0
  5  8  1  0  0  0
  8  9  2  0  0  0
  9 10  1  0  0  0
 10 11  2  0  0  0
 11 12  1  0  0  0
 11 13  1  0  0  0
 13 14  2  0  0  0
 19 20  1  0  0  0
 20 21  1  0  0  0
 20 22  2  0  0  0
 14  8  1  0  0  0
 15 18  1  0  0  0
  2  6  1  0  0  0
  5  7  1  0  0  0
 21 23  1  0  0  0
 21 24  1  0  0  0
M  END
> <minimizedAffinity>
-6.60136

> <CNNscore>
0.3233439326

> <CNNaffinity>
6.2614049911

> <CNN_VS>
2.0245873928

> <CNNaffinity_variance>
0.1611520201

$$$$
[H]c1c([H])c(N([H])C(=O)N([H])[C@]([H])(C(=O)N([H])[C@]([H])(C(=O)N([H])[H])C([H])([H])C([H])([H])C([H])([H])[H])C([H])([H])C([H])(C([H])([H])[H])C([H])([H])[H])c([H])c([H])c1Br


 31 31  0  0  0  0  0  0  0  0999 V2000
   35.4411   16.1378   -9.1315 C   0  0  0  0  0  0  0  0  0  0  0  0
   35.1283   16.2036  -10.5540 N   0  0  0  0  0  0  0  0  0  0  0  0
   35.4077   15.0904  -11.3804 C   0  0  0  0  0  0  0  0  0  0  0  0
   35.9291   14.0376  -10.8867 O   0  0  0  0  0  0  0  0  0  0  0  0
   35.1168   15.1281  -12.7464 N   0  0  0  0  0  0  0  0  0  0  0  0
   34.7132   17.0480  -10.9364 H   0  0  0  0  0  0  0  0  0  0  0  0
   34.6867   16.0516  -13.0828 H   0  0  0  0  0  0  0  0  0  0  0  0
   35.3108   14.1192  -13.7160 C   0  0  0  0  0  0  0  0  0  0  0  0
   36.4512   13.9107  -14.4421 C   0  0  0  0  0  0  0  0  0  0  0  0
   36.5483   12.8904  -15.4057 C   0  0  0  0  0  0  0  0  0  0  0  0
   35.4949   12.0503  -15.6628 C   0  0  0  0  0  0  0  0  0  0  0  0
   35.6286   10.6641  -16.9731 Br  0  0  0  0  0  0  0  0  0  0  0  0
   34.3451   12.2471  -14.9421 C   0  0  0  0  0  0  0  0  0  0  0  0
   34.2492   13.2432  -14.0013 C   0  0  0  0  0  0  0  0  0  0  0  0
   32.9442   16.1551   -8.9046 N   0  0  0  0  0  0  0  0  0  0  0  0
   34.2247   15.6899   -8.4535 C   0  0  0  0  0  0  0  0  0  0  0  0
   34.2922   14.8962   -7.4572 O   0  0  0  0  0  0  0  0  0  0  0  0
   32.9264   16.7916   -9.7248 H   0  0  0  0  0  0  0  0  0  0  0  0
   31.7246   15.7522   -8.2406 C   0  0  0  0  0  0  0  0  0  0  0  0
   30.8772   14.9882   -9.1880 C   0  0  0  0  0  0  0  0  0  0  0  0
   30.6633   13.5864   -8.9555 N   0  0  0  0  0  0  0  0  0  0  0  0
   30.3298   15.4803  -10.1845 O   0  0  0  0  0  0  0  0  0  0  0  0
   31.3957   13.0729   -8.4379 H   0  0  0  0  0  0  0  0  0  0  0  0
   29.8039   13.0921   -9.2917 H   0  0  0  0  0  0  0  0  0  0  0  0
   30.9611   16.9524   -7.7680 C   0  0  0  0  0  0  0  0  0  0  0  0
   31.6989   16.5245   -5.3766 C   0  0  0  0  0  0  0  0  0  0  0  0
   31.2193   17.4649   -6.4151 C   0  0  0  0  0  0  0  0  0  0  0  0
   36.1076   17.3638   -8.6631 C   0  0  0  0  0  0  0  0  0  0  0  0
   37.5669   17.4662   -8.6183 C   0  0  0  0  0  0  0  0  0  0  0  0
   38.0163   18.4426   -9.7492 C   0  0  0  0  0  0  0  0  0  0  0  0
   38.3362   16.2124   -8.9277 C   0  0  0  0  0  0  0  0  0  0  0  0
 26 27  1  0  0  0
 27 25  1  0  0  0
 25 19  1  0  0  0
 19 15  1  0  0  0
 15 16  1  0  0  0
 16 17  2  0  0  0
 16  1  1  0  0  0
  1 28  1  0  0  0
 28 29  1  0  0  0
 29 30  1  0  0  0
 29 31  1  0  0  0
  1  2  1  0  0  0
  2  3  1  0  0  0
  3  4  2  0  0  0
  3  5  1  0  0  0
  5  8  1  0  0  0
  8  9  2  0  0  0
  9 10  1  0  0  0
 10 11  2  0  0  0
 11 12  1  0  0  0
 11 13  1  0  0  0
 13 14  2  0  0  0
 19 20  1  0  0  0
 20 21  1  0  0  0
 20 22  2  0  0  0
 14  8  1  0  0  0
 15 18  1  0  0  0
  2  6  1  0  0  0
  5  7  1  0  0  0
 21 23  1  0  0  0
 21 24  1  0  0  0
M  END
> <minimizedAffinity>
-6.58188

> <CNNscore>
0.2880703509

> <CNNaffinity>
5.7484045029

> <CNN_VS>
1.6559449434

> <CNNaffinity_variance>
0.1586739719

$$$$
[H]c1c([H])c(N([H])C(=O)N([H])[C@]([H])(C(=O)N([H])[C@]([H])(C(=O)N([H])[H])C([H])([H])C([H])([H])C([H])([H])[H])C([H])([H])C([H])(C([H])([H])[H])C([H])([H])[H])c([H])c([H])c1Br


 31 31  0  0  0  0  0  0  0  0999 V2000
   36.6416   12.2559  -15.2958 C   0  0  0  0  0  0  0  0  0  0  0  0
   36.4215   13.6326  -14.8693 N   0  0  0  0  0  0  0  0  0  0  0  0
   36.1796   13.9080  -13.5033 C   0  0  0  0  0  0  0  0  0  0  0  0
   36.1536   12.9609  -12.6510 O   0  0  0  0  0  0  0  0  0  0  0  0
   35.9662   15.2187  -13.0692 N   0  0  0  0  0  0  0  0  0  0  0  0
   36.4442   14.3792  -15.5575 H   0  0  0  0  0  0  0  0  0  0  0  0
   35.9975   15.9547  -13.8491 H   0  0  0  0  0  0  0  0  0  0  0  0
   35.7252   15.6832  -11.7570 C   0  0  0  0  0  0  0  0  0  0  0  0
   34.5615   15.5362  -11.0534 C   0  0  0  0  0  0  0  0  0  0  0  0
   34.4027   16.0516   -9.7540 C   0  0  0  0  0  0  0  0  0  0  0  0
   35.4169   16.7305   -9.1279 C   0  0  0  0  0  0  0  0  0  0  0  0
   35.1994   17.4306   -7.3619 Br  0  0  0  0  0  0  0  0  0  0  0  0
   36.5898   16.8854   -9.8210 C   0  0  0  0  0  0  0  0  0  0  0  0
   36.7456   16.3827  -11.0897 C   0  0  0  0  0  0  0  0  0  0  0  0
   38.6265   12.9804  -16.6455 N   0  0  0  0  0  0  0  0  0  0  0  0
   38.0615   12.1403  -15.6283 C   0  0  0  0  0  0  0  0  0  0  0  0
   38.8011   11.2916  -15.0286 O   0  0  0  0  0  0  0  0  0  0  0  0
   37.9975   13.6670  -17.1051 H   0  0  0  0  0  0  0  0  0  0  0  0
   40.0200   12.8737  -17.0161 C   0  0  0  0  0  0  0  0  0  0  0  0
   40.1883   11.7640  -17.9854 C   0  0  0  0  0  0  0  0  0  0  0  0
   39.1096   10.8334  -18.1721 N   0  0  0  0  0  0  0  0  0  0  0  0
   41.2114   11.5776  -18.6589 O   0  0  0  0  0  0  0  0  0  0  0  0
   38.4623   10.6903  -17.3792 H   0  0  0  0  0  0  0  0  0  0  0  0
   38.9728   10.3139  -19.0706 H   0  0  0  0  0  0  0  0  0  0  0  0
   40.8658   12.5953  -15.8103 C   0  0  0  0  0  0  0  0  0  0  0  0
   43.3892   12.6024  -16.0914 C   0  0  0  0  0  0  0  0  0  0  0  0
   42.1501   13.2964  -15.6724 C   0  0  0  0  0  0  0  0  0  0  0  0
   35.6407   11.8257  -16.2856 C   0  0  0  0  0  0  0  0  0  0  0  0
   34.5087   10.9801  -15.9041 C   0  0  0  0  0  0  0  0  0  0  0  0
   33.5706   10.8431  -17.1432 C   0  0  0  0  0  0  0  0  0  0  0  0
   33.5927   11.5253  -14.8442 C   0  0  0  0  0  0  0  0  0  0  0  0
 26 27  1  0  0  0
 27 25  1  0  0  0
 25 19  1  0  0  0
 19 15  1  0  0  0
 15 16  1  0  0  0
 16 17  2  0  0  0
 16  1  1  0  0  0
  1 28  1  0  0  0
 28 29  1  0  0  0
 29 30  1  0  0  0
 29 31  1  0  0  0
  1  2  1  0  0  0
  2  3  1  0  0  0
  3  4  2  0  0  0
  3  5  1  0  0  0
  5  8  1  0  0  0
  8  9  2  0  0  0
  9 10  1  0  0  0
 10 11  2  0  0  0
 11 12  1  0  0  0
 11 13  1  0  0  0
 13 14  2  0  0  0
 19 20  1  0  0  0
 20 21  1  0  0  0
 20 22  2  0  0  0
 14  8  1  0  0  0
 15 18  1  0  0  0
  2  6  1  0  0  0
  5  7  1  0  0  0
 21 23  1  0  0  0
 21 24  1  0  0  0
M  END
> <minimizedAffinity>
-6.57516

> <CNNscore>
0.2683602571

> <CNNaffinity>
6.2532949448

> <CNN_VS>
1.6781358719

> <CNNaffinity_variance>
0.0250811074

$$$$
[H]c1c([H])c(N([H])C(=O)N([H])[C@]([H])(C(=O)N([H])[C@]([H])(C(=O)N([H])[H])C([H])([H])C([H])([H])C([H])([H])[H])C([H])([H])C([H])(C([H])([H])[H])C([H])([H])[H])c([H])c([H])c1Br


 31 31  0  0  0  0  0  0  0  0999 V2000
   36.2624   15.0078  -11.4598 C   0  0  0  0  0  0  0  0  0  0  0  0
   37.4026   15.7364  -12.0028 N   0  0  0  0  0  0  0  0  0  0  0  0
   38.6676   15.6118  -11.3828 C   0  0  0  0  0  0  0  0  0  0  0  0
   38.8109   14.8690  -10.3572 O   0  0  0  0  0  0  0  0  0  0  0  0
   39.7760   16.2991  -11.8841 N   0  0  0  0  0  0  0  0  0  0  0  0
   37.2765   16.3257  -12.8203 H   0  0  0  0  0  0  0  0  0  0  0  0
   39.5692   16.9069  -12.7436 H   0  0  0  0  0  0  0  0  0  0  0  0
   41.1070   16.2874  -11.4109 C   0  0  0  0  0  0  0  0  0  0  0  0
   41.4938   16.2117  -10.1011 C   0  0  0  0  0  0  0  0  0  0  0  0
   42.8477   16.2275   -9.7188 C   0  0  0  0  0  0  0  0  0  0  0  0
   43.8501   16.3197  -10.6505 C   0  0  0  0  0  0  0  0  0  0  0  0
   45.6898   16.3412  -10.1292 Br  0  0  0  0  0  0  0  0  0  0  0  0
   43.4775   16.3959  -11.9679 C   0  0  0  0  0  0  0  0  0  0  0  0
   42.1559   16.3808  -12.3419 C   0  0  0  0  0  0  0  0  0  0  0  0
   35.7033   14.4166  -13.8313 N   0  0  0  0  0  0  0  0  0  0  0  0
   35.8798   14.0159  -12.4647 C   0  0  0  0  0  0  0  0  0  0  0  0
   35.6916   12.7981  -12.1351 O   0  0  0  0  0  0  0  0  0  0  0  0
   35.8753   15.4135  -14.0654 H   0  0  0  0  0  0  0  0  0  0  0  0
   35.3005   13.4666  -14.8442 C   0  0  0  0  0  0  0  0  0  0  0  0
   33.9849   12.8868  -14.4805 C   0  0  0  0  0  0  0  0  0  0  0  0
   32.9757   13.7456  -13.9248 N   0  0  0  0  0  0  0  0  0  0  0  0
   33.6871   11.6928  -14.6236 O   0  0  0  0  0  0  0  0  0  0  0  0
   33.2944   14.5840  -13.4114 H   0  0  0  0  0  0  0  0  0  0  0  0
   31.9540   13.5420  -14.0285 H   0  0  0  0  0  0  0  0  0  0  0  0
   36.3036   12.3582  -14.9553 C   0  0  0  0  0  0  0  0  0  0  0  0
   38.4207   11.7024  -16.1941 C   0  0  0  0  0  0  0  0  0  0  0  0
   37.6726   12.6857  -15.3777 C   0  0  0  0  0  0  0  0  0  0  0  0
   35.2349   15.9197  -10.9314 C   0  0  0  0  0  0  0  0  0  0  0  0
   35.0482   16.1022   -9.4913 C   0  0  0  0  0  0  0  0  0  0  0  0
   36.0524   17.1949   -9.0100 C   0  0  0  0  0  0  0  0  0  0  0  0
   35.3834   14.9255   -8.6180 C   0  0  0  0  0  0  0  0  0  0  0  0
 26 27  1  0  0  0
 27 25  1  0  0  0
 25 19  1  0  0  0
 19 15  1  0  0  0
 15 16  1  0  0  0
 16 17  2  0  0  0
 16  1  1  0  0  0
  1 28  1  0  0  0
 28 29  1  0  0  0
 29 30  1  0  0  0
 29 31  1  0  0  0
  1  2  1  0  0  0
  2  3  1  0  0  0
  3  4  2  0  0  0
  3  5  1  0  0  0
  5  8  1  0  0  0
  8  9  2  0  0  0
  9 10  1  0  0  0
 10 11  2  0  0  0
 11 12  1  0  0  0
 11 13  1  0  0  0
 13 14  2  0  0  0
 19 20  1  0  0  0
 20 21  1  0  0  0
 20 22  2  0  0  0
 14  8  1  0  0  0
 15 18  1  0  0  0
  2  6  1  0  0  0
  5  7  1  0  0  0
 21 23  1  0  0  0
 21 24  1  0  0  0
M  END
> <minimizedAffinity>
-6.82830

> <CNNscore>
0.2484500110

> <CNNaffinity>
5.6528010368

> <CNN_VS>
1.4044384956

> <CNNaffinity_variance>
0.1917459071

$$$$
[H]c1c([H])c(N([H])C(=O)N([H])[C@]([H])(C(=O)N([H])[C@]([H])(C(=O)N([H])[H])C([H])([H])C([H])([H])C([H])([H])[H])C([H])([H])C([H])(C([H])([H])[H])C([H])([H])[H])c([H])c([H])c1Br


 31 31  0  0  0  0  0  0  0  0999 V2000
   38.3047   13.2371  -14.7955 C   0  0  0  0  0  0  0  0  0  0  0  0
   39.5843   12.9940  -14.1404 N   0  0  0  0  0  0  0  0  0  0  0  0
   40.4519   14.0808  -13.8826 C   0  0  0  0  0  0  0  0  0  0  0  0
   40.1190   15.2637  -14.2202 O   0  0  0  0  0  0  0  0  0  0  0  0
   41.6833   13.8743  -13.2558 N   0  0  0  0  0  0  0  0  0  0  0  0
   39.8392   12.0470  -13.8762 H   0  0  0  0  0  0  0  0  0  0  0  0
   41.8901   12.8504  -13.0109 H   0  0  0  0  0  0  0  0  0  0  0  0
   42.6651   14.8286  -12.9079 C   0  0  0  0  0  0  0  0  0  0  0  0
   42.5386   15.8010  -11.9543 C   0  0  0  0  0  0  0  0  0  0  0  0
   43.5648   16.7259  -11.6883 C   0  0  0  0  0  0  0  0  0  0  0  0
   44.7496   16.6939  -12.3788 C   0  0  0  0  0  0  0  0  0  0  0  0
   46.1432   17.9520  -12.0162 Br  0  0  0  0  0  0  0  0  0  0  0  0
   44.8909   15.7242  -13.3378 C   0  0  0  0  0  0  0  0  0  0  0  0
   43.8895   14.8209  -13.5984 C   0  0  0  0  0  0  0  0  0  0  0  0
   36.2102   14.0377  -13.6735 N   0  0  0  0  0  0  0  0  0  0  0  0
   37.2712   13.0764  -13.7726 C   0  0  0  0  0  0  0  0  0  0  0  0
   37.3099   12.0938  -12.9603 O   0  0  0  0  0  0  0  0  0  0  0  0
   36.2044   14.8186  -14.3579 H   0  0  0  0  0  0  0  0  0  0  0  0
   35.1878   13.9223  -12.6577 C   0  0  0  0  0  0  0  0  0  0  0  0
   33.8528   14.0924  -13.2808 C   0  0  0  0  0  0  0  0  0  0  0  0
   33.0030   15.1580  -12.8256 N   0  0  0  0  0  0  0  0  0  0  0  0
   33.4085   13.3684  -14.1826 O   0  0  0  0  0  0  0  0  0  0  0  0
   33.1292   15.4847  -11.8533 H   0  0  0  0  0  0  0  0  0  0  0  0
   32.2804   15.5954  -13.4440 H   0  0  0  0  0  0  0  0  0  0  0  0
   35.3688   14.9754  -11.6064 C   0  0  0  0  0  0  0  0  0  0  0  0
   37.6171   16.0036  -11.0281 C   0  0  0  0  0  0  0  0  0  0  0  0
   36.3707   16.0277  -11.8272 C   0  0  0  0  0  0  0  0  0  0  0  0
   38.1850   12.4830  -16.0539 C   0  0  0  0  0  0  0  0  0  0  0  0
   39.3362   11.7955  -16.6407 C   0  0  0  0  0  0  0  0  0  0  0  0
   40.1659   12.8447  -17.4437 C   0  0  0  0  0  0  0  0  0  0  0  0
   39.0342   10.7425  -17.6700 C   0  0  0  0  0  0  0  0  0  0  0  0
 26 27  1  0  0  0
 27 25  1  0  0  0
 25 19  1  0  0  0
 19 15  1  0  0  0
 15 16  1  0  0  0
 16 17  2  0  0  0
 16  1  1  0  0  0
  1 28  1  0  0  0
 28 29  1  0  0  0
 29 30  1  0  0  0
 29 31  1  0  0  0
  1  2  1  0  0  0
  2  3  1  0  0  0
  3  4  2  0  0  0
  3  5  1  0  0  0
  5  8  1  0  0  0
  8  9  2  0  0  0
  9 10  1  0  0  0
 10 11  2  0  0  0
 11 12  1  0  0  0
 11 13  1  0  0  0
 13 14  2  0  0  0
 19 20  1  0  0  0
 20 21  1  0  0  0
 20 22  2  0  0  0
 14  8  1  0  0  0
 15 18  1  0  0  0
  2  6  1  0  0  0
  5  7  1  0  0  0
 21 23  1  0  0  0
 21 24  1  0  0  0
M  END
> <minimizedAffinity>
-6.84418

> <CNNscore>
0.2346889675

> <CNNaffinity>
5.8631362915

> <CNN_VS>
1.3760133982

> <CNNaffinity_variance>
0.2321955711

$$$$
[H]OC(C([H])([H])[H])(C([H])([H])[H])C([H])([H])C(=O)N([H])C([H])([H])C([H])([H])c1c([H])c([H])c2nc([H])nc(N([H])c3c([H])c([H])c(Oc4c([H])c([H])c([H])c(C(F)(F)F)c4[H])c(Cl)c3[H])c2c1[H]


 42 45  0  0  0  0  0  0  0  0999 V2000
   36.4972   11.9415  -15.7591 C   0  0  0  0  0  0  0  0  0  0  0  0
   36.2075   11.0215  -16.7266 C   0  0  0  0  0  0  0  0  0  0  0  0
   37.1493   10.6423  -17.6323 C   0  0  0  0  0  0  0  0  0  0  0  0
   38.4300   11.1774  -17.6085 C   0  0  0  0  0  0  0  0  0  0  0  0
   39.3036   10.7629  -18.5481 N   0  0  0  0  0  0  0  0  0  0  0  0
   40.5387   11.2842  -18.5518 C   0  0  0  0  0  0  0  0  0  0  0  0
   40.8170   12.1855  -17.6178 N   0  0  0  0  0  0  0  0  0  0  0  0
   40.0206   12.6429  -16.6647 C   0  0  0  0  0  0  0  0  0  0  0  0
   38.7262   12.1094  -16.6373 C   0  0  0  0  0  0  0  0  0  0  0  0
   37.7981   12.4933  -15.7252 C   0  0  0  0  0  0  0  0  0  0  0  0
   40.3967   13.6554  -15.7637 N   0  0  0  0  0  0  0  0  0  0  0  0
   39.7907   14.4924  -15.5658 H   0  0  0  0  0  0  0  0  0  0  0  0
   41.6269   13.6363  -15.0551 C   0  0  0  0  0  0  0  0  0  0  0  0
   41.7686   13.8908  -13.7265 C   0  0  0  0  0  0  0  0  0  0  0  0
   42.9917   13.7476  -13.0650 C   0  0  0  0  0  0  0  0  0  0  0  0
   44.1299   13.3294  -13.7771 C   0  0  0  0  0  0  0  0  0  0  0  0
   44.0075   13.0721  -15.1231 C   0  0  0  0  0  0  0  0  0  0  0  0
   45.4032   12.5640  -16.0938 Cl  0  0  0  0  0  0  0  0  0  0  0  0
   42.7783   13.2277  -15.7230 C   0  0  0  0  0  0  0  0  0  0  0  0
   45.2713   13.2041  -13.0808 O   0  0  0  0  0  0  0  0  0  0  0  0
   45.7989   12.3524  -12.1858 C   0  0  0  0  0  0  0  0  0  0  0  0
   46.7010   11.3776  -12.6434 C   0  0  0  0  0  0  0  0  0  0  0  0
   47.2520   10.5023  -11.7510 C   0  0  0  0  0  0  0  0  0  0  0  0
   46.9173   10.5848  -10.4171 C   0  0  0  0  0  0  0  0  0  0  0  0
   46.0356   11.5261   -9.9367 C   0  0  0  0  0  0  0  0  0  0  0  0
   45.4799   12.4083  -10.8233 C   0  0  0  0  0  0  0  0  0  0  0  0
   45.7109   11.5309   -8.4855 C   0  0  0  0  0  0  0  0  0  0  0  0
   45.4195   10.2191   -8.0633 F   0  0  0  0  0  0  0  0  0  0  0  0
   46.8492   11.9074   -7.8028 F   0  0  0  0  0  0  0  0  0  0  0  0
   44.6959   12.3937   -8.1842 F   0  0  0  0  0  0  0  0  0  0  0  0
   35.5122   12.4075  -14.8108 C   0  0  0  0  0  0  0  0  0  0  0  0
   35.3310   13.9067  -14.6863 C   0  0  0  0  0  0  0  0  0  0  0  0
   36.8235   15.0300  -12.6673 C   0  0  0  0  0  0  0  0  0  0  0  0
   38.0067   14.7709  -12.3721 O   0  0  0  0  0  0  0  0  0  0  0  0
   36.0764   14.4698  -13.6757 N   0  0  0  0  0  0  0  0  0  0  0  0
   37.1869   13.8089  -14.1224 H   0  0  0  0  0  0  0  0  0  0  0  0
   36.1843   16.0814  -11.7901 C   0  0  0  0  0  0  0  0  0  0  0  0
   33.8692   15.4377  -11.2617 C   0  0  0  0  0  0  0  0  0  0  0  0
   35.2693   15.5839  -10.7530 C   0  0  0  0  0  0  0  0  0  0  0  0
   35.3461   16.3503   -9.4430 C   0  0  0  0  0  0  0  0  0  0  0  0
   35.7211   14.2501  -10.4498 O   0  0  0  0  0  0  0  0  0  0  0  0
   36.7147   14.3001  -10.4639 H   0  0  0  0  0  0  0  0  0  0  0  0
 38 39  1  0  0  0
 39 40  1  0  0  0
 39 41  1  0  0  0
 39 37  1  0  0  0
 37 33  1  0  0  0
 33 34  2  0  0  0
 33 35  1  0  0  0
 35 32  1  0  0  0
 32 31  1  0  0  0
 31  1  1  0  0  0
  1  2  2  0  0  0
  2  3  1  0  0  0
  3  4  2  0  0  0
  4  5  1  0  0  0
  5  6  2  0  0  0
  6  7  1  0  0  0
  7  8  2  0  0  0
  8 11  1  0  0  0
 11 13  1  0  0  0
 13 14  2  0  0  0
 14 15  1  0  0  0
 15 16  2  0  0  0
 16 20  1  0  0  0
 20 21  1  0  0  0
 21 22  2  0  0  0
 22 23  1  0  0  0
 23 24  2  0  0  0
 24 25  1  0  0  0
 25 27  1  0  0  0
 27 28  1  0  0  0
 27 29  1  0  0  0
 27 30  1  0  0  0
 25 26  2  0  0  0
 16 17  1  0  0  0
 17 18  1  0  0  0
 17 19  2  0  0  0
  8  9  1  0  0  0
  9 10  2  0  0  0
 10  1  1  0  0  0
  9  4  1  0  0  0
 19 13  1  0  0  0
 26 21  1  0  0  0
 41 42  1  0  0  0
 35 36  1  0  0  0
 11 12  1  0  0  0
M  END
> <minimizedAffinity>
-9.09082

> <CNNscore>
0.5773040056

> <CNNaffinity>
7.7138724327

> <CNN_VS>
4.4532494545

> <CNNaffinity_variance>
0.0449601337

$$$$
[H]OC(C([H])([H])[H])(C([H])([H])[H])C([H])([H])C(=O)N([H])C([H])([H])C([H])([H])c1c([H])c([H])c2nc([H])nc(N([H])c3c([H])c([H])c(Oc4c([H])c([H])c([H])c(C(F)(F)F)c4[H])c(Cl)c3[H])c2c1[H]


 42 45  0  0  0  0  0  0  0  0999 V2000
   36.4554   11.9839  -15.6094 C   0  0  0  0  0  0  0  0  0  0  0  0
   35.9869   11.1264  -16.5642 C   0  0  0  0  0  0  0  0  0  0  0  0
   36.7865   10.7165  -17.5858 C   0  0  0  0  0  0  0  0  0  0  0  0
   38.0986   11.1564  -17.6963 C   0  0  0  0  0  0  0  0  0  0  0  0
   38.8241   10.7176  -18.7447 N   0  0  0  0  0  0  0  0  0  0  0  0
   40.0866   11.1482  -18.8776 C   0  0  0  0  0  0  0  0  0  0  0  0
   40.5385   11.9891  -17.9553 N   0  0  0  0  0  0  0  0  0  0  0  0
   39.8943   12.4646  -16.9013 C   0  0  0  0  0  0  0  0  0  0  0  0
   38.5748   12.0253  -16.7383 C   0  0  0  0  0  0  0  0  0  0  0  0
   37.7898   12.4385  -15.7117 C   0  0  0  0  0  0  0  0  0  0  0  0
   40.4478   13.4107  -16.0199 N   0  0  0  0  0  0  0  0  0  0  0  0
   39.9310   14.2765  -15.7195 H   0  0  0  0  0  0  0  0  0  0  0  0
   41.7507   13.2804  -15.4708 C   0  0  0  0  0  0  0  0  0  0  0  0
   42.8562   12.8939  -16.1626 C   0  0  0  0  0  0  0  0  0  0  0  0
   44.1320   12.8920  -15.5910 C   0  0  0  0  0  0  0  0  0  0  0  0
   44.3031   13.2972  -14.2554 C   0  0  0  0  0  0  0  0  0  0  0  0
   43.1958   13.6869  -13.5378 C   0  0  0  0  0  0  0  0  0  0  0  0
   43.3282   14.1883  -11.8410 Cl  0  0  0  0  0  0  0  0  0  0  0  0
   41.9637   13.6712  -14.1515 C   0  0  0  0  0  0  0  0  0  0  0  0
   45.5550   13.2797  -13.7698 O   0  0  0  0  0  0  0  0  0  0  0  0
   46.5443   14.1605  -13.5451 C   0  0  0  0  0  0  0  0  0  0  0  0
   47.6074   13.7721  -12.7130 C   0  0  0  0  0  0  0  0  0  0  0  0
   48.6258   14.6503  -12.4723 C   0  0  0  0  0  0  0  0  0  0  0  0
   48.5982   15.9027  -13.0457 C   0  0  0  0  0  0  0  0  0  0  0  0
   47.5709   16.3150  -13.8635 C   0  0  0  0  0  0  0  0  0  0  0  0
   46.5471   15.4413  -14.1117 C   0  0  0  0  0  0  0  0  0  0  0  0
   47.6073   17.6925  -14.4228 C   0  0  0  0  0  0  0  0  0  0  0  0
   48.9340   18.0334  -14.7503 F   0  0  0  0  0  0  0  0  0  0  0  0
   46.9115   17.6792  -15.6142 F   0  0  0  0  0  0  0  0  0  0  0  0
   47.0454   18.6091  -13.5804 F   0  0  0  0  0  0  0  0  0  0  0  0
   35.6246   12.4817  -14.5377 C   0  0  0  0  0  0  0  0  0  0  0  0
   35.5302   13.9858  -14.3810 C   0  0  0  0  0  0  0  0  0  0  0  0
   37.2449   15.0058  -12.4877 C   0  0  0  0  0  0  0  0  0  0  0  0
   38.3695   15.5072  -12.6826 O   0  0  0  0  0  0  0  0  0  0  0  0
   36.3870   14.4958  -13.4325 N   0  0  0  0  0  0  0  0  0  0  0  0
   37.2199   14.9425  -14.4205 H   0  0  0  0  0  0  0  0  0  0  0  0
   36.8244   14.9779  -11.0365 C   0  0  0  0  0  0  0  0  0  0  0  0
   36.6129   16.7261   -9.3184 C   0  0  0  0  0  0  0  0  0  0  0  0
   36.0455   16.1338  -10.5704 C   0  0  0  0  0  0  0  0  0  0  0  0
   34.5510   15.8740  -10.4778 C   0  0  0  0  0  0  0  0  0  0  0  0
   36.2025   17.1392  -11.5900 O   0  0  0  0  0  0  0  0  0  0  0  0
   36.1706   16.6449  -12.4529 H   0  0  0  0  0  0  0  0  0  0  0  0
 38 39  1  0  0  0
 39 40  1  0  0  0
 39 41  1  0  0  0
 39 37  1  0  0  0
 37 33  1  0  0  0
 33 34  2  0  0  0
 33 35  1  0  0  0
 35 32  1  0  0  0
 32 31  1  0  0  0
 31  1  1  0  0  0
  1  2  2  0  0  0
  2  3  1  0  0  0
  3  4  2  0  0  0
  4  5  1  0  0  0
  5  6  2  0  0  0
  6  7  1  0  0  0
  7  8  2  0  0  0
  8 11  1  0  0  0
 11 13  1  0  0  0
 13 14  2  0  0  0
 14 15  1  0  0  0
 15 16  2  0  0  0
 16 20  1  0  0  0
 20 21  1  0  0  0
 21 22  2  0  0  0
 22 23  1  0  0  0
 23 24  2  0  0  0
 24 25  1  0  0  0
 25 27  1  0  0  0
 27 28  1  0  0  0
 27 29  1  0  0  0
 27 30  1  0  0  0
 25 26  2  0  0  0
 16 17  1  0  0  0
 17 18  1  0  0  0
 17 19  2  0  0  0
  8  9  1  0  0  0
  9 10  2  0  0  0
 10  1  1  0  0  0
  9  4  1  0  0  0
 19 13  1  0  0  0
 26 21  1  0  0  0
 41 42  1  0  0  0
 35 36  1  0  0  0
 11 12  1  0  0  0
M  END
> <minimizedAffinity>
-8.96754

> <CNNscore>
0.3576792181

> <CNNaffinity>
7.5441284180

> <CNN_VS>
2.6983778477

> <CNNaffinity_variance>
0.0459710583

$$$$
[H]OC(C([H])([H])[H])(C([H])([H])[H])C([H])([H])C(=O)N([H])C([H])([H])C([H])([H])c1c([H])c([H])c2nc([H])nc(N([H])c3c([H])c([H])c(Oc4c([H])c([H])c([H])c(C(F)(F)F)c4[H])c(Cl)c3[H])c2c1[H]


 42 45  0  0  0  0  0  0  0  0999 V2000
   38.1137   13.0309  -14.6095 C   0  0  0  0  0  0  0  0  0  0  0  0
   37.2400   12.1640  -15.2025 C   0  0  0  0  0  0  0  0  0  0  0  0
   37.5899   11.4820  -16.3265 C   0  0  0  0  0  0  0  0  0  0  0  0
   38.8388   11.6452  -16.9103 C   0  0  0  0  0  0  0  0  0  0  0  0
   39.1065   10.9457  -18.0315 N   0  0  0  0  0  0  0  0  0  0  0  0
   40.3005   11.1064  -18.6194 C   0  0  0  0  0  0  0  0  0  0  0  0
   41.1456   11.9562  -18.0486 N   0  0  0  0  0  0  0  0  0  0  0  0
   40.9607   12.6766  -16.9537 C   0  0  0  0  0  0  0  0  0  0  0  0
   39.7222   12.5220  -16.3186 C   0  0  0  0  0  0  0  0  0  0  0  0
   39.3882   13.2052  -15.1951 C   0  0  0  0  0  0  0  0  0  0  0  0
   41.9016   13.6040  -16.4713 N   0  0  0  0  0  0  0  0  0  0  0  0
   41.9170   14.6095  -16.7806 H   0  0  0  0  0  0  0  0  0  0  0  0
   42.9122   13.2585  -15.5357 C   0  0  0  0  0  0  0  0  0  0  0  0
   44.1090   12.6934  -15.8497 C   0  0  0  0  0  0  0  0  0  0  0  0
   45.1070   12.4790  -14.8947 C   0  0  0  0  0  0  0  0  0  0  0  0
   44.8885   12.8498  -13.5560 C   0  0  0  0  0  0  0  0  0  0  0  0
   43.6821   13.4183  -13.2180 C   0  0  0  0  0  0  0  0  0  0  0  0
   43.3233   13.8904  -11.5457 Cl  0  0  0  0  0  0  0  0  0  0  0  0
   42.7358   13.6081  -14.1996 C   0  0  0  0  0  0  0  0  0  0  0  0
   45.8904   12.6240  -12.6907 O   0  0  0  0  0  0  0  0  0  0  0  0
   46.2252   11.6932  -11.7816 C   0  0  0  0  0  0  0  0  0  0  0  0
   46.7943   10.4917  -12.2352 C   0  0  0  0  0  0  0  0  0  0  0  0
   47.1450    9.5317  -11.3288 C   0  0  0  0  0  0  0  0  0  0  0  0
   46.9365    9.7519   -9.9848 C   0  0  0  0  0  0  0  0  0  0  0  0
   46.3795   10.9165   -9.5078 C   0  0  0  0  0  0  0  0  0  0  0  0
   46.0265   11.8846  -10.4086 C   0  0  0  0  0  0  0  0  0  0  0  0
   46.1673   11.0635   -8.0433 C   0  0  0  0  0  0  0  0  0  0  0  0
   47.3058   10.6033   -7.3535 F   0  0  0  0  0  0  0  0  0  0  0  0
   46.0730   12.4120   -7.7670 F   0  0  0  0  0  0  0  0  0  0  0  0
   45.0324   10.4337   -7.6180 F   0  0  0  0  0  0  0  0  0  0  0  0
   37.7636   13.8109  -13.4451 C   0  0  0  0  0  0  0  0  0  0  0  0
   36.3653   14.3928  -13.4007 C   0  0  0  0  0  0  0  0  0  0  0  0
   35.7425   15.5885  -11.0033 C   0  0  0  0  0  0  0  0  0  0  0  0
   34.6268   16.0090  -10.6391 O   0  0  0  0  0  0  0  0  0  0  0  0
   36.0553   14.9909  -12.2007 N   0  0  0  0  0  0  0  0  0  0  0  0
   34.7294   14.9801  -12.5342 H   0  0  0  0  0  0  0  0  0  0  0  0
   36.8387   15.7812   -9.9812 C   0  0  0  0  0  0  0  0  0  0  0  0
   38.8070   17.2544   -9.8926 C   0  0  0  0  0  0  0  0  0  0  0  0
   37.3160   17.1597   -9.8023 C   0  0  0  0  0  0  0  0  0  0  0  0
   36.7522   17.8535   -8.5734 C   0  0  0  0  0  0  0  0  0  0  0  0
   36.8041   17.8931  -10.9315 O   0  0  0  0  0  0  0  0  0  0  0  0
   35.8844   17.5422  -11.0771 H   0  0  0  0  0  0  0  0  0  0  0  0
 38 39  1  0  0  0
 39 40  1  0  0  0
 39 41  1  0  0  0
 39 37  1  0  0  0
 37 33  1  0  0  0
 33 34  2  0  0  0
 33 35  1  0  0  0
 35 32  1  0  0  0
 32 31  1  0  0  0
 31  1  1  0  0  0
  1  2  2  0  0  0
  2  3  1  0  0  0
  3  4  2  0  0  0
  4  5  1  0  0  0
  5  6  2  0  0  0
  6  7  1  0  0  0
  7  8  2  0  0  0
  8 11  1  0  0  0
 11 13  1  0  0  0
 13 14  2  0  0  0
 14 15  1  0  0  0
 15 16  2  0  0  0
 16 20  1  0  0  0
 20 21  1  0  0  0
 21 22  2  0  0  0
 22 23  1  0  0  0
 23 24  2  0  0  0
 24 25  1  0  0  0
 25 27  1  0  0  0
 27 28  1  0  0  0
 27 29  1  0  0  0
 27 30  1  0  0  0
 25 26  2  0  0  0
 16 17  1  0  0  0
 17 18  1  0  0  0
 17 19  2  0  0  0
  8  9  1  0  0  0
  9 10  2  0  0  0
 10  1  1  0  0  0
  9  4  1  0  0  0
 19 13  1  0  0  0
 26 21  1  0  0  0
 41 42  1  0  0  0
 35 36  1  0  0  0
 11 12  1  0  0  0
M  END
> <minimizedAffinity>
-8.67015

> <CNNscore>
0.2954396307

> <CNNaffinity>
7.0968656540

> <CNN_VS>
2.0966954231

> <CNNaffinity_variance>
0.1032696143

$$$$
[H]OC(C([H])([H])[H])(C([H])([H])[H])C([H])([H])C(=O)N([H])C([H])([H])C([H])([H])c1c([H])c([H])c2nc([H])nc(N([H])c3c([H])c([H])c(Oc4c([H])c([H])c([H])c(C(F)(F)F)c4[H])c(Cl)c3[H])c2c1[H]


 42 45  0  0  0  0  0  0  0  0999 V2000
   36.5020   11.9835  -15.4932 C   0  0  0  0  0  0  0  0  0  0  0  0
   36.0741   11.1761  -16.5088 C   0  0  0  0  0  0  0  0  0  0  0  0
   36.9226   10.7968  -17.5024 C   0  0  0  0  0  0  0  0  0  0  0  0
   38.2452   11.2183  -17.5219 C   0  0  0  0  0  0  0  0  0  0  0  0
   39.0207   10.8125  -18.5476 N   0  0  0  0  0  0  0  0  0  0  0  0
   40.2949   11.2265  -18.5925 C   0  0  0  0  0  0  0  0  0  0  0  0
   40.7078   12.0191  -17.6110 N   0  0  0  0  0  0  0  0  0  0  0  0
   40.0136   12.4598  -16.5737 C   0  0  0  0  0  0  0  0  0  0  0  0
   38.6807   12.0368  -16.5022 C   0  0  0  0  0  0  0  0  0  0  0  0
   37.8466   12.4190  -15.5027 C   0  0  0  0  0  0  0  0  0  0  0  0
   40.5318   13.3574  -15.6228 N   0  0  0  0  0  0  0  0  0  0  0  0
   39.9527   14.1217  -15.1897 H   0  0  0  0  0  0  0  0  0  0  0  0
   41.8788   13.3121  -15.1763 C   0  0  0  0  0  0  0  0  0  0  0  0
   42.9609   13.1054  -15.9740 C   0  0  0  0  0  0  0  0  0  0  0  0
   44.2704   13.1824  -15.4908 C   0  0  0  0  0  0  0  0  0  0  0  0
   44.5022   13.4800  -14.1361 C   0  0  0  0  0  0  0  0  0  0  0  0
   43.4199   13.6874  -13.3124 C   0  0  0  0  0  0  0  0  0  0  0  0
   43.6312   14.0436  -11.5871 Cl  0  0  0  0  0  0  0  0  0  0  0  0
   42.1522   13.6013  -13.8420 C   0  0  0  0  0  0  0  0  0  0  0  0
   45.7830   13.5470  -13.7383 O   0  0  0  0  0  0  0  0  0  0  0  0
   46.7171   12.7103  -13.2561 C   0  0  0  0  0  0  0  0  0  0  0  0
   48.0632   12.9603  -13.5707 C   0  0  0  0  0  0  0  0  0  0  0  0
   49.0306   12.1244  -13.0895 C   0  0  0  0  0  0  0  0  0  0  0  0
   48.6761   11.0490  -12.3045 C   0  0  0  0  0  0  0  0  0  0  0  0
   47.3670   10.7750  -11.9798 C   0  0  0  0  0  0  0  0  0  0  0  0
   46.3912   11.6080  -12.4561 C   0  0  0  0  0  0  0  0  0  0  0  0
   47.0692    9.5798  -11.1465 C   0  0  0  0  0  0  0  0  0  0  0  0
   45.9439    9.8364  -10.3393 F   0  0  0  0  0  0  0  0  0  0  0  0
   46.7035    8.5569  -11.9970 F   0  0  0  0  0  0  0  0  0  0  0  0
   48.1441    9.1866  -10.4011 F   0  0  0  0  0  0  0  0  0  0  0  0
   35.6209   12.4490  -14.4475 C   0  0  0  0  0  0  0  0  0  0  0  0
   36.1125   12.3122  -13.0207 C   0  0  0  0  0  0  0  0  0  0  0  0
   37.5543   14.4835  -12.1421 C   0  0  0  0  0  0  0  0  0  0  0  0
   38.4683   15.0758  -12.7489 O   0  0  0  0  0  0  0  0  0  0  0  0
   36.8330   13.3986  -12.5797 N   0  0  0  0  0  0  0  0  0  0  0  0
   37.4400   13.4957  -13.8010 H   0  0  0  0  0  0  0  0  0  0  0  0
   37.2435   15.0589  -10.7799 C   0  0  0  0  0  0  0  0  0  0  0  0
   36.9437   17.3842  -10.0341 C   0  0  0  0  0  0  0  0  0  0  0  0
   36.3451   16.2220  -10.7630 C   0  0  0  0  0  0  0  0  0  0  0  0
   34.9307   15.9028  -10.3079 C   0  0  0  0  0  0  0  0  0  0  0  0
   36.2266   16.6360  -12.1377 O   0  0  0  0  0  0  0  0  0  0  0  0
   36.1802   15.7920  -12.6627 H   0  0  0  0  0  0  0  0  0  0  0  0
 38 39  1  0  0  0
 39 40  1  0  0  0
 39 41  1  0  0  0
 39 37  1  0  0  0
 37 33  1  0  0  0
 33 34  2  0  0  0
 33 35  1  0  0  0
 35 32  1  0  0  0
 32 31  1  0  0  0
 31  1  1  0  0  0
  1  2  2  0  0  0
  2  3  1  0  0  0
  3  4  2  0  0  0
  4  5  1  0  0  0
  5  6  2  0  0  0
  6  7  1  0  0  0
  7  8  2  0  0  0
  8 11  1  0  0  0
 11 13  1  0  0  0
 13 14  2  0  0  0
 14 15  1  0  0  0
 15 16  2  0  0  0
 16 20  1  0  0  0
 20 21  1  0  0  0
 21 22  2  0  0  0
 22 23  1  0  0  0
 23 24  2  0  0  0
 24 25  1  0  0  0
 25 27  1  0  0  0
 27 28  1  0  0  0
 27 29  1  0  0  0
 27 30  1  0  0  0
 25 26  2  0  0  0
 16 17  1  0  0  0
 17 18  1  0  0  0
 17 19  2  0  0  0
  8  9  1  0  0  0
  9 10  2  0  0  0
 10  1  1  0  0  0
  9  4  1  0  0  0
 19 13  1  0  0  0
 26 21  1  0  0  0
 41 42  1  0  0  0
 35 36  1  0  0  0
 11 12  1  0  0  0
M  END
> <minimizedAffinity>
-9.70305

> <CNNscore>
0.2641627491

> <CNNaffinity>
7.3832559586

> <CNN_VS>
1.9503811598

> <CNNaffinity_variance>
0.0260986798

$$$$
[H]OC(C([H])([H])[H])(C([H])([H])[H])C([H])([H])C(=O)N([H])C([H])([H])C([H])([H])c1c([H])c([H])c2nc([H])nc(N([H])c3c([H])c([H])c(Oc4c([H])c([H])c([H])c(C(F)(F)F)c4[H])c(Cl)c3[H])c2c1[H]


 42 45  0  0  0  0  0  0  0  0999 V2000
   36.2745   12.0125  -15.2999 C   0  0  0  0  0  0  0  0  0  0  0  0
   35.8819   11.2815  -16.3852 C   0  0  0  0  0  0  0  0  0  0  0  0
   36.7723   10.9425  -17.3563 C   0  0  0  0  0  0  0  0  0  0  0  0
   38.1035   11.3291  -17.2817 C   0  0  0  0  0  0  0  0  0  0  0  0
   38.9221   10.9676  -18.2902 N   0  0  0  0  0  0  0  0  0  0  0  0
   40.2063   11.3496  -18.2438 C   0  0  0  0  0  0  0  0  0  0  0  0
   40.5854   12.0683  -17.1942 N   0  0  0  0  0  0  0  0  0  0  0  0
   39.8482   12.4619  -16.1676 C   0  0  0  0  0  0  0  0  0  0  0  0
   38.5039   12.0707  -16.1911 C   0  0  0  0  0  0  0  0  0  0  0  0
   37.6276   12.4119  -15.2132 C   0  0  0  0  0  0  0  0  0  0  0  0
   40.3364   13.2844  -15.1365 N   0  0  0  0  0  0  0  0  0  0  0  0
   39.7032   13.8408  -14.5067 H   0  0  0  0  0  0  0  0  0  0  0  0
   41.7217   13.4389  -14.8665 C   0  0  0  0  0  0  0  0  0  0  0  0
   42.2439   13.9185  -13.7057 C   0  0  0  0  0  0  0  0  0  0  0  0
   43.6198   13.9424  -13.4594 C   0  0  0  0  0  0  0  0  0  0  0  0
   44.5151   13.4616  -14.4314 C   0  0  0  0  0  0  0  0  0  0  0  0
   44.0060   12.9771  -15.6142 C   0  0  0  0  0  0  0  0  0  0  0  0
   45.0732   12.3758  -16.8979 Cl  0  0  0  0  0  0  0  0  0  0  0  0
   42.6424   12.9754  -15.8026 C   0  0  0  0  0  0  0  0  0  0  0  0
   45.8227   13.5054  -14.1290 O   0  0  0  0  0  0  0  0  0  0  0  0
   46.7213   12.7316  -13.4975 C   0  0  0  0  0  0  0  0  0  0  0  0
   48.0842   13.0426  -13.6361 C   0  0  0  0  0  0  0  0  0  0  0  0
   49.0159   12.2713  -13.0012 C   0  0  0  0  0  0  0  0  0  0  0  0
   48.6096   11.2004  -12.2354 C   0  0  0  0  0  0  0  0  0  0  0  0
   47.2831   10.8675  -12.0809 C   0  0  0  0  0  0  0  0  0  0  0  0
   46.3426   11.6357  -12.7121 C   0  0  0  0  0  0  0  0  0  0  0  0
   46.9321    9.6812  -11.2557 C   0  0  0  0  0  0  0  0  0  0  0  0
   45.7728    9.9559  -10.5046 F   0  0  0  0  0  0  0  0  0  0  0  0
   46.5953    8.6571  -12.1165 F   0  0  0  0  0  0  0  0  0  0  0  0
   47.9657    9.2807  -10.4577 F   0  0  0  0  0  0  0  0  0  0  0  0
   35.3508   12.4352  -14.2729 C   0  0  0  0  0  0  0  0  0  0  0  0
   35.8982   12.5681  -12.8662 C   0  0  0  0  0  0  0  0  0  0  0  0
   36.7743   15.1043  -12.2617 C   0  0  0  0  0  0  0  0  0  0  0  0
   36.0724   16.1108  -12.0415 O   0  0  0  0  0  0  0  0  0  0  0  0
   36.3382   13.8365  -12.5638 N   0  0  0  0  0  0  0  0  0  0  0  0
   35.0495   14.2324  -12.3354 H   0  0  0  0  0  0  0  0  0  0  0  0
   38.2615   15.3580  -12.1762 C   0  0  0  0  0  0  0  0  0  0  0  0
   40.2351   16.0796  -10.8966 C   0  0  0  0  0  0  0  0  0  0  0  0
   38.7498   15.8946  -10.8980 C   0  0  0  0  0  0  0  0  0  0  0  0
   38.2462   15.1397   -9.6790 C   0  0  0  0  0  0  0  0  0  0  0  0
   38.1866   17.2166  -10.7962 O   0  0  0  0  0  0  0  0  0  0  0  0
   37.2604   17.1351  -11.1504 H   0  0  0  0  0  0  0  0  0  0  0  0
 38 39  1  0  0  0
 39 40  1  0  0  0
 39 41  1  0  0  0
 39 37  1  0  0  0
 37 33  1  0  0  0
 33 34  2  0  0  0
 33 35  1  0  0  0
 35 32  1  0  0  0
 32 31  1  0  0  0
 31  1  1  0  0  0
  1  2  2  0  0  0
  2  3  1  0  0  0
  3  4  2  0  0  0
  4  5  1  0  0  0
  5  6  2  0  0  0
  6  7  1  0  0  0
  7  8  2  0  0  0
  8 11  1  0  0  0
 11 13  1  0  0  0
 13 14  2  0  0  0
 14 15  1  0  0  0
 15 16  2  0  0  0
 16 20  1  0  0  0
 20 21  1  0  0  0
 21 22  2  0  0  0
 22 23  1  0  0  0
 23 24  2  0  0  0
 24 25  1  0  0  0
 25 27  1  0  0  0
 27 28  1  0  0  0
 27 29  1  0  0  0
 27 30  1  0  0  0
 25 26  2  0  0  0
 16 17  1  0  0  0
 17 18  1  0  0  0
 17 19  2  0  0  0
  8  9  1  0  0  0
  9 10  2  0  0  0
 10  1  1  0  0  0
  9  4  1  0  0  0
 19 13  1  0  0  0
 26 21  1  0  0  0
 41 42  1  0  0  0
 35 36  1  0  0  0
 11 12  1  0  0  0
M  END
> <minimizedAffinity>
-9.56073

> <CNNscore>
0.2590043545

> <CNNaffinity>
7.2931480408

> <CNN_VS>
1.8889571428

> <CNNaffinity_variance>
0.0847644359

$$$$
[H]OC(C([H])([H])[H])(C([H])([H])[H])C([H])([H])C(=O)N([H])C([H])([H])C([H])([H])c1c([H])c([H])c2nc([H])nc(N([H])c3c([H])c([H])c(Oc4c([H])c([H])c([H])c(C(F)(F)F)c4[H])c(Cl)c3[H])c2c1[H]


 42 45  0  0  0  0  0  0  0  0999 V2000
   45.3165   12.4811   -8.2275 C   0  0  0  0  0  0  0  0  0  0  0  0
   45.6597   11.2775   -7.6799 C   0  0  0  0  0  0  0  0  0  0  0  0
   46.2203   10.2996   -8.4417 C   0  0  0  0  0  0  0  0  0  0  0  0
   46.4580   10.4874   -9.7965 C   0  0  0  0  0  0  0  0  0  0  0  0
   47.0030    9.4662  -10.4880 N   0  0  0  0  0  0  0  0  0  0  0  0
   47.2209    9.6235  -11.8014 C   0  0  0  0  0  0  0  0  0  0  0  0
   46.8782   10.7895  -12.3354 N   0  0  0  0  0  0  0  0  0  0  0  0
   46.3421   11.8367  -11.7288 C   0  0  0  0  0  0  0  0  0  0  0  0
   46.1094   11.6982  -10.3550 C   0  0  0  0  0  0  0  0  0  0  0  0
   45.5538   12.6837   -9.6061 C   0  0  0  0  0  0  0  0  0  0  0  0
   45.9513   13.0055  -12.4067 N   0  0  0  0  0  0  0  0  0  0  0  0
   46.4406   13.9277  -12.2759 H   0  0  0  0  0  0  0  0  0  0  0  0
   44.8605   13.0395  -13.3150 C   0  0  0  0  0  0  0  0  0  0  0  0
   43.6102   13.4866  -13.0198 C   0  0  0  0  0  0  0  0  0  0  0  0
   42.6089   13.5980  -13.9889 C   0  0  0  0  0  0  0  0  0  0  0  0
   42.8790   13.2392  -15.3215 C   0  0  0  0  0  0  0  0  0  0  0  0
   44.1365   12.7799  -15.6385 C   0  0  0  0  0  0  0  0  0  0  0  0
   44.5460   12.2855  -17.2926 Cl  0  0  0  0  0  0  0  0  0  0  0  0
   45.0850   12.6923  -14.6446 C   0  0  0  0  0  0  0  0  0  0  0  0
   41.8764   13.3777  -16.2041 O   0  0  0  0  0  0  0  0  0  0  0  0
   40.8565   12.6382  -16.6710 C   0  0  0  0  0  0  0  0  0  0  0  0
   41.0545   11.8949  -17.8465 C   0  0  0  0  0  0  0  0  0  0  0  0
   40.0324   11.1337  -18.3385 C   0  0  0  0  0  0  0  0  0  0  0  0
   38.8231   11.1045  -17.6790 C   0  0  0  0  0  0  0  0  0  0  0  0
   38.5958   11.8223  -16.5270 C   0  0  0  0  0  0  0  0  0  0  0  0
   39.6146   12.5865  -16.0257 C   0  0  0  0  0  0  0  0  0  0  0  0
   37.2533   11.7531  -15.8910 C   0  0  0  0  0  0  0  0  0  0  0  0
   37.3980   11.6615  -14.4931 F   0  0  0  0  0  0  0  0  0  0  0  0
   36.6140   12.9519  -16.1308 F   0  0  0  0  0  0  0  0  0  0  0  0
   36.4970   10.7294  -16.3869 F   0  0  0  0  0  0  0  0  0  0  0  0
   44.6740   13.5263   -7.4650 C   0  0  0  0  0  0  0  0  0  0  0  0
   43.1593   13.5629   -7.4862 C   0  0  0  0  0  0  0  0  0  0  0  0
   41.9864   11.6520   -5.8933 C   0  0  0  0  0  0  0  0  0  0  0  0
   40.8504   11.6925   -5.3812 O   0  0  0  0  0  0  0  0  0  0  0  0
   42.5738   12.6058   -6.6894 N   0  0  0  0  0  0  0  0  0  0  0  0
   41.3982   13.3036   -6.7097 H   0  0  0  0  0  0  0  0  0  0  0  0
   42.7636   10.3963   -5.5731 C   0  0  0  0  0  0  0  0  0  0  0  0
   43.9225   11.5734   -3.7499 C   0  0  0  0  0  0  0  0  0  0  0  0
   43.2877   10.2961   -4.2037 C   0  0  0  0  0  0  0  0  0  0  0  0
   44.1688    9.0807   -3.9674 C   0  0  0  0  0  0  0  0  0  0  0  0
   42.1330   10.1081   -3.3632 O   0  0  0  0  0  0  0  0  0  0  0  0
   41.5351    9.4967   -3.8718 H   0  0  0  0  0  0  0  0  0  0  0  0
 38 39  1  0  0  0
 39 40  1  0  0  0
 39 41  1  0  0  0
 39 37  1  0  0  0
 37 33  1  0  0  0
 33 34  2  0  0  0
 33 35  1  0  0  0
 35 32  1  0  0  0
 32 31  1  0  0  0
 31  1  1  0  0  0
  1  2  2  0  0  0
  2  3  1  0  0  0
  3  4  2  0  0  0
  4  5  1  0  0  0
  5  6  2  0  0  0
  6  7  1  0  0  0
  7  8  2  0  0  0
  8 11  1  0  0  0
 11 13  1  0  0  0
 13 14  2  0  0  0
 14 15  1  0  0  0
 15 16  2  0  0  0
 16 20  1  0  0  0
 20 21  1  0  0  0
 21 22  2  0  0  0
 22 23  1  0  0  0
 23 24  2  0  0  0
 24 25  1  0  0  0
 25 27  1  0  0  0
 27 28  1  0  0  0
 27 29  1  0  0  0
 27 30  1  0  0  0
 25 26  2  0  0  0
 16 17  1  0  0  0
 17 18  1  0  0  0
 17 19  2  0  0  0
  8  9  1  0  0  0
  9 10  2  0  0  0
 10  1  1  0  0  0
  9  4  1  0  0  0
 19 13  1  0  0  0
 26 21  1  0  0  0
 41 42  1  0  0  0
 35 36  1  0  0  0
 11 12  1  0  0  0
M  END
> <minimizedAffinity>
-9.18835

> <CNNscore>
0.2495097518

> <CNNaffinity>
6.3430585861

> <CNN_VS>
1.5826549530

> <CNNaffinity_variance>
0.3649126589

$$$$
[H]OC(C([H])([H])[H])(C([H])([H])[H])C([H])([H])C(=O)N([H])C([H])([H])C([H])([H])c1c([H])c([H])c2nc([H])nc(N([H])c3c([H])c([H])c(Oc4c([H])c([H])c([H])c(C(F)(F)F)c4[H])c(Cl)c3[H])c2c1[H]


 42 45  0  0  0  0  0  0  0  0999 V2000
   31.5507   15.6720   -7.1835 C   0  0  0  0  0  0  0  0  0  0  0  0
   30.2535   15.2926   -6.9836 C   0  0  0  0  0  0  0  0  0  0  0  0
   29.4595   14.9453   -8.0324 C   0  0  0  0  0  0  0  0  0  0  0  0
   29.9351   14.9684   -9.3364 C   0  0  0  0  0  0  0  0  0  0  0  0
   29.0837   14.6249  -10.3238 N   0  0  0  0  0  0  0  0  0  0  0  0
   29.5208   14.6609  -11.5906 C   0  0  0  0  0  0  0  0  0  0  0  0
   30.7782   15.0392  -11.7855 N   0  0  0  0  0  0  0  0  0  0  0  0
   31.6735   15.3893  -10.8755 C   0  0  0  0  0  0  0  0  0  0  0  0
   31.2416   15.3549   -9.5439 C   0  0  0  0  0  0  0  0  0  0  0  0
   32.0459   15.6995   -8.5071 C   0  0  0  0  0  0  0  0  0  0  0  0
   32.9653   15.8428  -11.1976 N   0  0  0  0  0  0  0  0  0  0  0  0
   33.2859   16.8261  -11.0045 H   0  0  0  0  0  0  0  0  0  0  0  0
   33.9388   15.0154  -11.8171 C   0  0  0  0  0  0  0  0  0  0  0  0
   35.2351   14.9017  -11.4213 C   0  0  0  0  0  0  0  0  0  0  0  0
   36.1162   13.9860  -12.0039 C   0  0  0  0  0  0  0  0  0  0  0  0
   35.6706   13.1441  -13.0384 C   0  0  0  0  0  0  0  0  0  0  0  0
   34.3637   13.2480  -13.4559 C   0  0  0  0  0  0  0  0  0  0  0  0
   33.7346   12.2371  -14.7714 Cl  0  0  0  0  0  0  0  0  0  0  0  0
   33.5392   14.1659  -12.8454 C   0  0  0  0  0  0  0  0  0  0  0  0
   36.5646   12.2820  -13.5491 O   0  0  0  0  0  0  0  0  0  0  0  0
   37.3890   12.2189  -14.6081 C   0  0  0  0  0  0  0  0  0  0  0  0
   36.9726   11.4918  -15.7355 C   0  0  0  0  0  0  0  0  0  0  0  0
   37.7933   11.4159  -16.8250 C   0  0  0  0  0  0  0  0  0  0  0  0
   39.0160   12.0505  -16.8052 C   0  0  0  0  0  0  0  0  0  0  0  0
   39.4546   12.7688  -15.7162 C   0  0  0  0  0  0  0  0  0  0  0  0
   38.6383   12.8517  -14.6208 C   0  0  0  0  0  0  0  0  0  0  0  0
   40.7984   13.4036  -15.7688 C   0  0  0  0  0  0  0  0  0  0  0  0
   40.9148   14.1637  -16.9488 F   0  0  0  0  0  0  0  0  0  0  0  0
   40.8777   14.3033  -14.7259 F   0  0  0  0  0  0  0  0  0  0  0  0
   41.8079   12.4903  -15.6568 F   0  0  0  0  0  0  0  0  0  0  0  0
   32.4110   16.0958   -6.1033 C   0  0  0  0  0  0  0  0  0  0  0  0
   32.7608   15.0598   -5.0542 C   0  0  0  0  0  0  0  0  0  0  0  0
   35.2326   13.9100   -5.4195 C   0  0  0  0  0  0  0  0  0  0  0  0
   35.5704   12.7445   -5.1334 O   0  0  0  0  0  0  0  0  0  0  0  0
   33.9981   14.4859   -5.2377 N   0  0  0  0  0  0  0  0  0  0  0  0
   33.4962   13.2736   -4.8533 H   0  0  0  0  0  0  0  0  0  0  0  0
   36.3373   14.7409   -6.0297 C   0  0  0  0  0  0  0  0  0  0  0  0
   37.5486   14.6282   -8.1681 C   0  0  0  0  0  0  0  0  0  0  0  0
   36.2575   14.9494   -7.4824 C   0  0  0  0  0  0  0  0  0  0  0  0
   35.6964   16.3042   -7.8815 C   0  0  0  0  0  0  0  0  0  0  0  0
   35.3051   13.9791   -7.9581 O   0  0  0  0  0  0  0  0  0  0  0  0
   34.5877   13.9560   -7.2689 H   0  0  0  0  0  0  0  0  0  0  0  0
 38 39  1  0  0  0
 39 40  1  0  0  0
 39 41  1  0  0  0
 39 37  1  0  0  0
 37 33  1  0  0  0
 33 34  2  0  0  0
 33 35  1  0  0  0
 35 32  1  0  0  0
 32 31  1  0  0  0
 31  1  1  0  0  0
  1  2  2  0  0  0
  2  3  1  0  0  0
  3  4  2  0  0  0
  4  5  1  0  0  0
  5  6  2  0  0  0
  6  7  1  0  0  0
  7  8  2  0  0  0
  8 11  1  0  0  0
 11 13  1  0  0  0
 13 14  2  0  0  0
 14 15  1  0  0  0
 15 16  2  0  0  0
 16 20  1  0  0  0
 20 21  1  0  0  0
 21 22  2  0  0  0
 22 23  1  0  0  0
 23 24  2  0  0  0
 24 25  1  0  0  0
 25 27  1  0  0  0
 27 28  1  0  0  0
 27 29  1  0  0  0
 27 30  1  0  0  0
 25 26  2  0  0  0
 16 17  1  0  0  0
 17 18  1  0  0  0
 17 19  2  0  0  0
  8  9  1  0  0  0
  9 10  2  0  0  0
 10  1  1  0  0  0
  9  4  1  0  0  0
 19 13  1  0  0  0
 26 21  1  0  0  0
 41 42  1  0  0  0
 35 36  1  0  0  0
 11 12  1  0  0  0
M  END
> <minimizedAffinity>
-9.38068

> <CNNscore>
0.1874469519

> <CNNaffinity>
7.0070571899

> <CNN_VS>
1.3134515285

> <CNNaffinity_variance>
0.2166666538

$$$$
[H]OC(C([H])([H])[H])(C([H])([H])[H])C([H])([H])C(=O)N([H])C([H])([H])C([H])([H])c1c([H])c([H])c2nc([H])nc(N([H])c3c([H])c([H])c(Oc4c([H])c([H])c([H])c(C(F)(F)F)c4[H])c(Cl)c3[H])c2c1[H]


 42 45  0  0  0  0  0  0  0  0999 V2000
   35.7337   12.0903  -15.3589 C   0  0  0  0  0  0  0  0  0  0  0  0
   35.2751   11.2534  -16.3365 C   0  0  0  0  0  0  0  0  0  0  0  0
   36.1085   10.7957  -17.3096 C   0  0  0  0  0  0  0  0  0  0  0  0
   37.4463   11.1646  -17.3463 C   0  0  0  0  0  0  0  0  0  0  0  0
   38.2057   10.6817  -18.3503 N   0  0  0  0  0  0  0  0  0  0  0  0
   39.4950   11.0438  -18.4121 C   0  0  0  0  0  0  0  0  0  0  0  0
   39.9381   11.8648  -17.4679 N   0  0  0  0  0  0  0  0  0  0  0  0
   39.2613   12.3800  -16.4536 C   0  0  0  0  0  0  0  0  0  0  0  0
   37.9130   12.0124  -16.3650 C   0  0  0  0  0  0  0  0  0  0  0  0
   37.0942   12.4727  -15.3861 C   0  0  0  0  0  0  0  0  0  0  0  0
   39.8135   13.3004  -15.5447 N   0  0  0  0  0  0  0  0  0  0  0  0
   39.2394   14.0442  -15.0713 H   0  0  0  0  0  0  0  0  0  0  0  0
   41.1904   13.3076  -15.1984 C   0  0  0  0  0  0  0  0  0  0  0  0
   42.2084   12.9599  -16.0307 C   0  0  0  0  0  0  0  0  0  0  0  0
   43.5510   13.0942  -15.6651 C   0  0  0  0  0  0  0  0  0  0  0  0
   43.8856   13.6018  -14.3972 C   0  0  0  0  0  0  0  0  0  0  0  0
   42.8695   13.9543  -13.5392 C   0  0  0  0  0  0  0  0  0  0  0  0
   43.2120   14.5794  -11.9143 Cl  0  0  0  0  0  0  0  0  0  0  0  0
   41.5650   13.8029  -13.9521 C   0  0  0  0  0  0  0  0  0  0  0  0
   45.1931   13.7130  -14.1118 O   0  0  0  0  0  0  0  0  0  0  0  0
   46.0448   14.6755  -13.7205 C   0  0  0  0  0  0  0  0  0  0  0  0
   46.1033   15.8608  -14.4721 C   0  0  0  0  0  0  0  0  0  0  0  0
   46.9601   16.8544  -14.0916 C   0  0  0  0  0  0  0  0  0  0  0  0
   47.7548   16.6829  -12.9793 C   0  0  0  0  0  0  0  0  0  0  0  0
   47.7234   15.5336  -12.2228 C   0  0  0  0  0  0  0  0  0  0  0  0
   46.8668   14.5334  -12.5956 C   0  0  0  0  0  0  0  0  0  0  0  0
   48.6317   15.4206  -11.0507 C   0  0  0  0  0  0  0  0  0  0  0  0
   49.6998   16.3276  -11.1930 F   0  0  0  0  0  0  0  0  0  0  0  0
   47.9297   15.8298   -9.9358 F   0  0  0  0  0  0  0  0  0  0  0  0
   49.0777   14.1435  -10.8617 F   0  0  0  0  0  0  0  0  0  0  0  0
   34.8711   12.6378  -14.3377 C   0  0  0  0  0  0  0  0  0  0  0  0
   35.2882   12.4248  -12.8966 C   0  0  0  0  0  0  0  0  0  0  0  0
   35.7534   14.7660  -11.5299 C   0  0  0  0  0  0  0  0  0  0  0  0
   35.0945   15.8220  -11.5996 O   0  0  0  0  0  0  0  0  0  0  0  0
   35.5223   13.5955  -12.2120 N   0  0  0  0  0  0  0  0  0  0  0  0
   34.3564   14.1174  -12.6997 H   0  0  0  0  0  0  0  0  0  0  0  0
   36.9252   14.8309  -10.5782 C   0  0  0  0  0  0  0  0  0  0  0  0
   38.5534   15.1978  -12.3858 C   0  0  0  0  0  0  0  0  0  0  0  0
   38.0784   15.6217  -11.0311 C   0  0  0  0  0  0  0  0  0  0  0  0
   39.2020   15.7140  -10.0120 C   0  0  0  0  0  0  0  0  0  0  0  0
   37.5848   16.9658  -11.1879 O   0  0  0  0  0  0  0  0  0  0  0  0
   36.9648   17.1085  -10.4229 H   0  0  0  0  0  0  0  0  0  0  0  0
 38 39  1  0  0  0
 39 40  1  0  0  0
 39 41  1  0  0  0
 39 37  1  0  0  0
 37 33  1  0  0  0
 33 34  2  0  0  0
 33 35  1  0  0  0
 35 32  1  0  0  0
 32 31  1  0  0  0
 31  1  1  0  0  0
  1  2  2  0  0  0
  2  3  1  0  0  0
  3  4  2  0  0  0
  4  5  1  0  0  0
  5  6  2  0  0  0
  6  7  1  0  0  0
  7  8  2  0  0  0
  8 11  1  0  0  0
 11 13  1  0  0  0
 13 14  2  0  0  0
 14 15  1  0  0  0
 15 16  2  0  0  0
 16 20  1  0  0  0
 20 21  1  0  0  0
 21 22  2  0  0  0
 22 23  1  0  0  0
 23 24  2  0  0  0
 24 25  1  0  0  0
 25 27  1  0  0  0
 27 28  1  0  0  0
 27 29  1  0  0  0
 27 30  1  0  0  0
 25 26  2  0  0  0
 16 17  1  0  0  0
 17 18  1  0  0  0
 17 19  2  0  0  0
  8  9  1  0  0  0
  9 10  2  0  0  0
 10  1  1  0  0  0
  9  4  1  0  0  0
 19 13  1  0  0  0
 26 21  1  0  0  0
 41 42  1  0  0  0
 35 36  1  0  0  0
 11 12  1  0  0  0
M  END
> <minimizedAffinity>
-8.43905

> <CNNscore>
0.1741455048

> <CNNaffinity>
7.2497076988

> <CNN_VS>
1.2625039816

> <CNNaffinity_variance>
0.1667067558

$$$$
[H]OC(C([H])([H])[H])(C([H])([H])[H])C([H])([H])C(=O)N([H])C([H])([H])C([H])([H])c1c([H])c([H])c2nc([H])nc(N([H])c3c([H])c([H])c(Oc4c([H])c([H])c([H])c(C(F)(F)F)c4[H])c(Cl)c3[H])c2c1[H]


 42 45  0  0  0  0  0  0  0  0999 V2000
   36.0130   11.8344  -15.7228 C   0  0  0  0  0  0  0  0  0  0  0  0
   35.7347   11.0750  -16.8238 C   0  0  0  0  0  0  0  0  0  0  0  0
   36.7138   10.7460  -17.7092 C   0  0  0  0  0  0  0  0  0  0  0  0
   38.0227   11.1719  -17.5289 C   0  0  0  0  0  0  0  0  0  0  0  0
   38.9342   10.8177  -18.4572 N   0  0  0  0  0  0  0  0  0  0  0  0
   40.1988   11.2372  -18.3089 C   0  0  0  0  0  0  0  0  0  0  0  0
   40.4670   11.9834  -17.2443 N   0  0  0  0  0  0  0  0  0  0  0  0
   39.6342   12.3722  -16.2917 C   0  0  0  0  0  0  0  0  0  0  0  0
   38.3080   11.9422  -16.4222 C   0  0  0  0  0  0  0  0  0  0  0  0
   37.3423   12.2739  -15.5288 C   0  0  0  0  0  0  0  0  0  0  0  0
   40.0099   13.2251  -15.2383 N   0  0  0  0  0  0  0  0  0  0  0  0
   39.3074   13.7175  -14.6291 H   0  0  0  0  0  0  0  0  0  0  0  0
   41.3653   13.4986  -14.9161 C   0  0  0  0  0  0  0  0  0  0  0  0
   41.7957   14.0569  -13.7529 C   0  0  0  0  0  0  0  0  0  0  0  0
   43.1531   14.1988  -13.4500 C   0  0  0  0  0  0  0  0  0  0  0  0
   44.1260   13.7587  -14.3650 C   0  0  0  0  0  0  0  0  0  0  0  0
   43.7100   13.1958  -15.5495 C   0  0  0  0  0  0  0  0  0  0  0  0
   44.8774   12.6390  -16.7641 Cl  0  0  0  0  0  0  0  0  0  0  0  0
   42.3605   13.0790  -15.7949 C   0  0  0  0  0  0  0  0  0  0  0  0
   45.4113   13.9168  -14.0096 O   0  0  0  0  0  0  0  0  0  0  0  0
   46.3123   14.9123  -13.9623 C   0  0  0  0  0  0  0  0  0  0  0  0
   47.5595   14.7133  -14.5772 C   0  0  0  0  0  0  0  0  0  0  0  0
   48.4905   15.7125  -14.5439 C   0  0  0  0  0  0  0  0  0  0  0  0
   48.1967   16.8996  -13.9092 C   0  0  0  0  0  0  0  0  0  0  0  0
   46.9857   17.1256  -13.2955 C   0  0  0  0  0  0  0  0  0  0  0  0
   46.0463   16.1308  -13.3252 C   0  0  0  0  0  0  0  0  0  0  0  0
   46.7590   18.4270  -12.6123 C   0  0  0  0  0  0  0  0  0  0  0  0
   47.5914   19.4099  -13.1822 F   0  0  0  0  0  0  0  0  0  0  0  0
   45.4644   18.8209  -12.8807 F   0  0  0  0  0  0  0  0  0  0  0  0
   46.9351   18.3404  -11.2606 F   0  0  0  0  0  0  0  0  0  0  0  0
   34.9936   12.2470  -14.7861 C   0  0  0  0  0  0  0  0  0  0  0  0
   35.3420   12.1756  -13.3131 C   0  0  0  0  0  0  0  0  0  0  0  0
   34.8694   14.5217  -11.9574 C   0  0  0  0  0  0  0  0  0  0  0  0
   33.9116   15.3036  -12.1169 O   0  0  0  0  0  0  0  0  0  0  0  0
   35.1069   13.3492  -12.6339 N   0  0  0  0  0  0  0  0  0  0  0  0
   33.8915   13.4656  -13.2492 H   0  0  0  0  0  0  0  0  0  0  0  0
   35.8500   14.9555  -10.8927 C   0  0  0  0  0  0  0  0  0  0  0  0
   37.9634   15.3348  -12.0937 C   0  0  0  0  0  0  0  0  0  0  0  0
   36.8495   15.9506  -11.3061 C   0  0  0  0  0  0  0  0  0  0  0  0
   37.3439   16.8359  -10.1741 C   0  0  0  0  0  0  0  0  0  0  0  0
   36.1618   16.8309  -12.2157 O   0  0  0  0  0  0  0  0  0  0  0  0
   35.2533   16.9511  -11.8279 H   0  0  0  0  0  0  0  0  0  0  0  0
 38 39  1  0  0  0
 39 40  1  0  0  0
 39 41  1  0  0  0
 39 37  1  0  0  0
 37 33  1  0  0  0
 33 34  2  0  0  0
 33 35  1  0  0  0
 35 32  1  0  0  0
 32 31  1  0  0  0
 31  1  1  0  0  0
  1  2  2  0  0  0
  2  3  1  0  0  0
  3  4  2  0  0  0
  4  5  1  0  0  0
  5  6  2  0  0  0
  6  7  1  0  0  0
  7  8  2  0  0  0
  8 11  1  0  0  0
 11 13  1  0  0  0
 13 14  2  0  0  0
 14 15  1  0  0  0
 15 16  2  0  0  0
 16 20  1  0  0  0
 20 21  1  0  0  0
 21 22  2  0  0  0
 22 23  1  0  0  0
 23 24  2  0  0  0
 24 25  1  0  0  0
 25 27  1  0  0  0
 27 28  1  0  0  0
 27 29  1  0  0  0
 27 30  1  0  0  0
 25 26  2  0  0  0
 16 17  1  0  0  0
 17 18  1  0  0  0
 17 19  2  0  0  0
  8  9  1  0  0  0
  9 10  2  0  0  0
 10  1  1  0  0  0
  9  4  1  0  0  0
 19 13  1  0  0  0
 26 21  1  0  0  0
 41 42  1  0  0  0
 35 36  1  0  0  0
 11 12  1  0  0  0
M  END
> <minimizedAffinity>
-9.20307

> <CNNscore>
0.1735127866

> <CNNaffinity>
7.1563034058

> <CNN_VS>
1.2417101860

> <CNNaffinity_variance>
0.1201575026

$$$$
[H]OC(=O)c1c([H])c([H])c(C([H])([H])N([H])C(=O)c2c([H])c([H])c(C(C([H])([H])[H])(C([H])([H])[H])C([H])([H])[H])c([H])c2[H])c([H])c1F


 26 27  0  0  0  0  0  0  0  0999 V2000
   40.2575   11.8288  -17.2328 C   0  0  0  0  0  0  0  0  0  0  0  0
   40.3191   11.3015  -18.3824 O   0  0  0  0  0  0  0  0  0  0  0  0
   41.4417   12.2353  -16.6061 N   0  0  0  0  0  0  0  0  0  0  0  0
   41.3550   12.6874  -15.6443 H   0  0  0  0  0  0  0  0  0  0  0  0
   36.5281   12.3474  -15.2220 C   0  0  0  0  0  0  0  0  0  0  0  0
   36.6305   11.5814  -16.3677 C   0  0  0  0  0  0  0  0  0  0  0  0
   37.8280   11.4141  -17.0302 C   0  0  0  0  0  0  0  0  0  0  0  0
   38.9778   12.0152  -16.5656 C   0  0  0  0  0  0  0  0  0  0  0  0
   38.9187   12.7825  -15.4358 C   0  0  0  0  0  0  0  0  0  0  0  0
   37.6911   12.9314  -14.7874 C   0  0  0  0  0  0  0  0  0  0  0  0
   34.8792   14.0052  -14.5626 C   0  0  0  0  0  0  0  0  0  0  0  0
   35.2316   12.5326  -14.4964 C   0  0  0  0  0  0  0  0  0  0  0  0
   35.4154   12.1813  -13.0387 C   0  0  0  0  0  0  0  0  0  0  0  0
   34.1333   11.6696  -15.0835 C   0  0  0  0  0  0  0  0  0  0  0  0
   42.7763   12.1341  -17.1168 C   0  0  0  0  0  0  0  0  0  0  0  0
   43.7955   12.6505  -16.1719 C   0  0  0  0  0  0  0  0  0  0  0  0
   43.3372   13.2952  -15.0045 C   0  0  0  0  0  0  0  0  0  0  0  0
   44.2191   13.7713  -14.0697 C   0  0  0  0  0  0  0  0  0  0  0  0
   45.6006   13.6524  -14.2081 C   0  0  0  0  0  0  0  0  0  0  0  0
   46.0582   13.0244  -15.3485 C   0  0  0  0  0  0  0  0  0  0  0  0
   47.3952   12.8769  -15.5302 F   0  0  0  0  0  0  0  0  0  0  0  0
   45.1519   12.5405  -16.2993 C   0  0  0  0  0  0  0  0  0  0  0  0
   46.4795   14.1635  -13.1746 C   0  0  0  0  0  0  0  0  0  0  0  0
   46.5126   13.5462  -12.0738 O   0  0  0  0  0  0  0  0  0  0  0  0
   47.2503   15.2746  -13.3799 O   0  0  0  0  0  0  0  0  0  0  0  0
   48.1901   15.2749  -13.7911 H   0  0  0  0  0  0  0  0  0  0  0  0
 11 12  1  0  0  0
 12 13  1  0  0  0
 12 14  1  0  0  0
 12  5  1  0  0  0
  5  6  2  0  0  0
  6  7  1  0  0  0
  7  8  2  0  0  0
  8  1  1  0  0  0
  1  2  2  0  0  0
  1  3  1  0  0  0
  3 15  1  0  0  0
 15 16  1  0  0  0
 16 17  2  0  0  0
 17 18  1  0  0  0
 18 19  2  0  0  0
 19 23  1  0  0  0
 23 24  2  0  0  0
 23 25  1  0  0  0
 19 20  1  0  0  0
 20 21  1  0  0  0
 20 22  2  0  0  0
  8  9  1  0  0  0
  9 10  2  0  0  0
 10  5  1  0  0  0
 22 16  1  0  0  0
  3  4  1  0  0  0
 25 26  1  0  0  0
M  END
> <minimizedAffinity>
-7.61769

> <CNNscore>
0.6274551153

> <CNNaffinity>
6.0804076195

> <CNN_VS>
3.8151829243

> <CNNaffinity_variance>
0.2911022902

$$$$
[H]OC(=O)c1c([H])c([H])c(C([H])([H])N([H])C(=O)c2c([H])c([H])c(C(C([H])([H])[H])(C([H])([H])[H])C([H])([H])[H])c([H])c2[H])c([H])c1F


 26 27  0  0  0  0  0  0  0  0999 V2000
   39.7342   11.7240  -17.1543 C   0  0  0  0  0  0  0  0  0  0  0  0
   40.1400   11.0743  -18.1626 O   0  0  0  0  0  0  0  0  0  0  0  0
   40.6454   12.5111  -16.4398 N   0  0  0  0  0  0  0  0  0  0  0  0
   40.2698   13.0558  -15.6038 H   0  0  0  0  0  0  0  0  0  0  0  0
   35.6311   11.5688  -15.9877 C   0  0  0  0  0  0  0  0  0  0  0  0
   36.5706   12.2483  -15.2357 C   0  0  0  0  0  0  0  0  0  0  0  0
   37.8998   12.2979  -15.5983 C   0  0  0  0  0  0  0  0  0  0  0  0
   38.3413   11.6608  -16.7378 C   0  0  0  0  0  0  0  0  0  0  0  0
   37.4436   10.9762  -17.5087 C   0  0  0  0  0  0  0  0  0  0  0  0
   36.1043   10.9460  -17.1148 C   0  0  0  0  0  0  0  0  0  0  0  0
   33.3988   11.1249  -16.8373 C   0  0  0  0  0  0  0  0  0  0  0  0
   34.1857   11.5117  -15.6011 C   0  0  0  0  0  0  0  0  0  0  0  0
   33.7203   12.8877  -15.1864 C   0  0  0  0  0  0  0  0  0  0  0  0
   33.9487   10.5403  -14.4628 C   0  0  0  0  0  0  0  0  0  0  0  0
   42.0402   12.6922  -16.7118 C   0  0  0  0  0  0  0  0  0  0  0  0
   42.8247   13.0287  -15.4995 C   0  0  0  0  0  0  0  0  0  0  0  0
   44.2260   12.8870  -15.5679 C   0  0  0  0  0  0  0  0  0  0  0  0
   45.0200   13.2080  -14.4980 C   0  0  0  0  0  0  0  0  0  0  0  0
   44.5052   13.6864  -13.2946 C   0  0  0  0  0  0  0  0  0  0  0  0
   43.1345   13.8266  -13.2181 C   0  0  0  0  0  0  0  0  0  0  0  0
   42.5813   14.2943  -12.0703 F   0  0  0  0  0  0  0  0  0  0  0  0
   42.3294   13.4968  -14.3148 C   0  0  0  0  0  0  0  0  0  0  0  0
   45.4010   14.0231  -12.2056 C   0  0  0  0  0  0  0  0  0  0  0  0
   46.5951   14.3127  -12.4956 O   0  0  0  0  0  0  0  0  0  0  0  0
   44.9725   14.0306  -10.9067 O   0  0  0  0  0  0  0  0  0  0  0  0
   44.5410   14.8304  -10.4307 H   0  0  0  0  0  0  0  0  0  0  0  0
 11 12  1  0  0  0
 12 13  1  0  0  0
 12 14  1  0  0  0
 12  5  1  0  0  0
  5  6  2  0  0  0
  6  7  1  0  0  0
  7  8  2  0  0  0
  8  1  1  0  0  0
  1  2  2  0  0  0
  1  3  1  0  0  0
  3 15  1  0  0  0
 15 16  1  0  0  0
 16 17  2  0  0  0
 17 18  1  0  0  0
 18 19  2  0  0  0
 19 23  1  0  0  0
 23 24  2  0  0  0
 23 25  1  0  0  0
 19 20  1  0  0  0
 20 21  1  0  0  0
 20 22  2  0  0  0
  8  9  1  0  0  0
  9 10  2  0  0  0
 10  5  1  0  0  0
 22 16  1  0  0  0
  3  4  1  0  0  0
 25 26  1  0  0  0
M  END
> <minimizedAffinity>
-7.07107

> <CNNscore>
0.4108843505

> <CNNaffinity>
5.7789893150

> <CNN_VS>
2.3744962215

> <CNNaffinity_variance>
0.3526252508

$$$$
[H]OC(=O)c1c([H])c([H])c(C([H])([H])N([H])C(=O)c2c([H])c([H])c(C(C([H])([H])[H])(C([H])([H])[H])C([H])([H])[H])c([H])c2[H])c([H])c1F


 26 27  0  0  0  0  0  0  0  0999 V2000
   40.8176   11.9236  -17.3817 C   0  0  0  0  0  0  0  0  0  0  0  0
   40.8250   11.8708  -18.6468 O   0  0  0  0  0  0  0  0  0  0  0  0
   39.6437   11.5935  -16.6936 N   0  0  0  0  0  0  0  0  0  0  0  0
   39.6737   11.6353  -15.6286 H   0  0  0  0  0  0  0  0  0  0  0  0
   44.2961   13.1463  -15.2309 C   0  0  0  0  0  0  0  0  0  0  0  0
   44.3879   12.3786  -16.3764 C   0  0  0  0  0  0  0  0  0  0  0  0
   43.2709   11.9708  -17.0742 C   0  0  0  0  0  0  0  0  0  0  0  0
   42.0084   12.3190  -16.6448 C   0  0  0  0  0  0  0  0  0  0  0  0
   41.8744   13.0767  -15.5149 C   0  0  0  0  0  0  0  0  0  0  0  0
   43.0252   13.4746  -14.8316 C   0  0  0  0  0  0  0  0  0  0  0  0
   45.5288   15.1091  -14.5032 C   0  0  0  0  0  0  0  0  0  0  0  0
   45.5044   13.5941  -14.4687 C   0  0  0  0  0  0  0  0  0  0  0  0
   46.7512   13.1101  -15.1710 C   0  0  0  0  0  0  0  0  0  0  0  0
   45.4960   13.0689  -13.0475 C   0  0  0  0  0  0  0  0  0  0  0  0
   38.3922   11.1801  -17.2549 C   0  0  0  0  0  0  0  0  0  0  0  0
   37.2260   11.6350  -16.4604 C   0  0  0  0  0  0  0  0  0  0  0  0
   37.4520   12.6112  -15.4682 C   0  0  0  0  0  0  0  0  0  0  0  0
   36.4183   13.1029  -14.7146 C   0  0  0  0  0  0  0  0  0  0  0  0
   35.1006   12.6790  -14.8757 C   0  0  0  0  0  0  0  0  0  0  0  0
   34.8703   11.7224  -15.8433 C   0  0  0  0  0  0  0  0  0  0  0  0
   33.6036   11.2787  -16.0454 F   0  0  0  0  0  0  0  0  0  0  0  0
   35.9309   11.2244  -16.6094 C   0  0  0  0  0  0  0  0  0  0  0  0
   34.0498   13.2508  -14.0568 C   0  0  0  0  0  0  0  0  0  0  0  0
   34.2465   13.3177  -12.8115 O   0  0  0  0  0  0  0  0  0  0  0  0
   32.8840   13.7058  -14.6088 O   0  0  0  0  0  0  0  0  0  0  0  0
   32.7324   14.6522  -14.9743 H   0  0  0  0  0  0  0  0  0  0  0  0
 11 12  1  0  0  0
 12 13  1  0  0  0
 12 14  1  0  0  0
 12  5  1  0  0  0
  5  6  2  0  0  0
  6  7  1  0  0  0
  7  8  2  0  0  0
  8  1  1  0  0  0
  1  2  2  0  0  0
  1  3  1  0  0  0
  3 15  1  0  0  0
 15 16  1  0  0  0
 16 17  2  0  0  0
 17 18  1  0  0  0
 18 19  2  0  0  0
 19 23  1  0  0  0
 23 24  2  0  0  0
 23 25  1  0  0  0
 19 20  1  0  0  0
 20 21  1  0  0  0
 20 22  2  0  0  0
  8  9  1  0  0  0
  9 10  2  0  0  0
 10  5  1  0  0  0
 22 16  1  0  0  0
  3  4  1  0  0  0
 25 26  1  0  0  0
M  END
> <minimizedAffinity>
-8.63024

> <CNNscore>
0.3181129396

> <CNNaffinity>
5.7640681267

> <CNN_VS>
1.8336246014

> <CNNaffinity_variance>
0.0139420331

$$$$
[H]OC(=O)c1c([H])c([H])c(C([H])([H])N([H])C(=O)c2c([H])c([H])c(C(C([H])([H])[H])(C([H])([H])[H])C([H])([H])[H])c([H])c2[H])c([H])c1F


 26 27  0  0  0  0  0  0  0  0999 V2000
   41.7212   12.5196  -16.2569 C   0  0  0  0  0  0  0  0  0  0  0  0
   42.2206   11.9356  -17.2634 O   0  0  0  0  0  0  0  0  0  0  0  0
   40.3353   12.4758  -16.0627 N   0  0  0  0  0  0  0  0  0  0  0  0
   39.9474   12.9663  -15.1991 H   0  0  0  0  0  0  0  0  0  0  0  0
   44.1662   14.6470  -13.4789 C   0  0  0  0  0  0  0  0  0  0  0  0
   44.6508   14.2490  -14.7105 C   0  0  0  0  0  0  0  0  0  0  0  0
   43.8729   13.5540  -15.6119 C   0  0  0  0  0  0  0  0  0  0  0  0
   42.5686   13.2275  -15.3091 C   0  0  0  0  0  0  0  0  0  0  0  0
   42.0516   13.6017  -14.1002 C   0  0  0  0  0  0  0  0  0  0  0  0
   42.8649   14.3056  -13.2098 C   0  0  0  0  0  0  0  0  0  0  0  0
   44.9583   14.6477  -11.1823 C   0  0  0  0  0  0  0  0  0  0  0  0
   45.0043   15.4032  -12.4954 C   0  0  0  0  0  0  0  0  0  0  0  0
   44.3921   16.7625  -12.2517 C   0  0  0  0  0  0  0  0  0  0  0  0
   46.4263   15.5771  -12.9889 C   0  0  0  0  0  0  0  0  0  0  0  0
   39.3608   11.8242  -16.8862 C   0  0  0  0  0  0  0  0  0  0  0  0
   37.9867   11.9191  -16.3375 C   0  0  0  0  0  0  0  0  0  0  0  0
   36.9375   11.3722  -17.1047 C   0  0  0  0  0  0  0  0  0  0  0  0
   35.6452   11.3948  -16.6491 C   0  0  0  0  0  0  0  0  0  0  0  0
   35.2889   11.9491  -15.4212 C   0  0  0  0  0  0  0  0  0  0  0  0
   36.3091   12.4883  -14.6644 C   0  0  0  0  0  0  0  0  0  0  0  0
   36.0177   13.0360  -13.4572 F   0  0  0  0  0  0  0  0  0  0  0  0
   37.6269   12.4619  -15.1359 C   0  0  0  0  0  0  0  0  0  0  0  0
   33.9050   11.9269  -14.9899 C   0  0  0  0  0  0  0  0  0  0  0  0
   33.2999   10.8191  -15.0145 O   0  0  0  0  0  0  0  0  0  0  0  0
   33.2718   13.0634  -14.5677 O   0  0  0  0  0  0  0  0  0  0  0  0
   33.2760   13.4204  -13.6060 H   0  0  0  0  0  0  0  0  0  0  0  0
 11 12  1  0  0  0
 12 13  1  0  0  0
 12 14  1  0  0  0
 12  5  1  0  0  0
  5  6  2  0  0  0
  6  7  1  0  0  0
  7  8  2  0  0  0
  8  1  1  0  0  0
  1  2  2  0  0  0
  1  3  1  0  0  0
  3 15  1  0  0  0
 15 16  1  0  0  0
 16 17  2  0  0  0
 17 18  1  0  0  0
 18 19  2  0  0  0
 19 23  1  0  0  0
 23 24  2  0  0  0
 23 25  1  0  0  0
 19 20  1  0  0  0
 20 21  1  0  0  0
 20 22  2  0  0  0
  8  9  1  0  0  0
  9 10  2  0  0  0
 10  5  1  0  0  0
 22 16  1  0  0  0
  3  4  1  0  0  0
 25 26  1  0  0  0
M  END
> <minimizedAffinity>
-7.82243

> <CNNscore>
0.2387644500

> <CNNaffinity>
5.4168977737

> <CNN_VS>
1.2933626175

> <CNNaffinity_variance>
0.1803375483

$$$$
[H]OC(=O)c1c([H])c([H])c(C([H])([H])N([H])C(=O)c2c([H])c([H])c(C(C([H])([H])[H])(C([H])([H])[H])C([H])([H])[H])c([H])c2[H])c([H])c1F


 26 27  0  0  0  0  0  0  0  0999 V2000
   41.1981   11.9591  -17.2408 C   0  0  0  0  0  0  0  0  0  0  0  0
   41.1398   11.8653  -18.5022 O   0  0  0  0  0  0  0  0  0  0  0  0
   40.0462   11.7076  -16.4856 N   0  0  0  0  0  0  0  0  0  0  0  0
   40.1313   11.7823  -15.4254 H   0  0  0  0  0  0  0  0  0  0  0  0
   44.8335   13.0836  -15.3070 C   0  0  0  0  0  0  0  0  0  0  0  0
   44.8283   12.2361  -16.3986 C   0  0  0  0  0  0  0  0  0  0  0  0
   43.6596   11.8593  -17.0255 C   0  0  0  0  0  0  0  0  0  0  0  0
   42.4412   12.3211  -16.5766 C   0  0  0  0  0  0  0  0  0  0  0  0
   42.4030   13.1606  -15.4984 C   0  0  0  0  0  0  0  0  0  0  0  0
   43.6042   13.5242  -14.8863 C   0  0  0  0  0  0  0  0  0  0  0  0
   46.1689   12.7513  -13.3049 C   0  0  0  0  0  0  0  0  0  0  0  0
   46.0986   13.4983  -14.6218 C   0  0  0  0  0  0  0  0  0  0  0  0
   46.0363   14.9724  -14.2977 C   0  0  0  0  0  0  0  0  0  0  0  0
   47.3159   13.2272  -15.4822 C   0  0  0  0  0  0  0  0  0  0  0  0
   38.7505   11.3363  -16.9710 C   0  0  0  0  0  0  0  0  0  0  0  0
   37.6468   11.9654  -16.2067 C   0  0  0  0  0  0  0  0  0  0  0  0
   36.3289   11.5737  -16.5199 C   0  0  0  0  0  0  0  0  0  0  0  0
   35.2590   12.0887  -15.8355 C   0  0  0  0  0  0  0  0  0  0  0  0
   35.3996   13.0157  -14.8046 C   0  0  0  0  0  0  0  0  0  0  0  0
   36.6859   13.4061  -14.4924 C   0  0  0  0  0  0  0  0  0  0  0  0
   36.8797   14.3028  -13.4921 F   0  0  0  0  0  0  0  0  0  0  0  0
   37.7742   12.8762  -15.1956 C   0  0  0  0  0  0  0  0  0  0  0  0
   34.2276   13.5100  -14.1090 C   0  0  0  0  0  0  0  0  0  0  0  0
   33.8978   12.9369  -13.0335 O   0  0  0  0  0  0  0  0  0  0  0  0
   33.5014   14.5621  -14.5951 O   0  0  0  0  0  0  0  0  0  0  0  0
   33.6912   15.5515  -14.4017 H   0  0  0  0  0  0  0  0  0  0  0  0
 11 12  1  0  0  0
 12 13  1  0  0  0
 12 14  1  0  0  0
 12  5  1  0  0  0
  5  6  2  0  0  0
  6  7  1  0  0  0
  7  8  2  0  0  0
  8  1  1  0  0  0
  1  2  2  0  0  0
  1  3  1  0  0  0
  3 15  1  0  0  0
 15 16  1  0  0  0
 16 17  2  0  0  0
 17 18  1  0  0  0
 18 19  2  0  0  0
 19 23  1  0  0  0
 23 24  2  0  0  0
 23 25  1  0  0  0
 19 20  1  0  0  0
 20 21  1  0  0  0
 20 22  2  0  0  0
  8  9  1  0  0  0
  9 10  2  0  0  0
 10  5  1  0  0  0
 22 16  1  0  0  0
  3  4  1  0  0  0
 25 26  1  0  0  0
M  END
> <minimizedAffinity>
-8.21634

> <CNNscore>
0.2050458640

> <CNNaffinity>
5.5715765953

> <CNN_VS>
1.1424287558

> <CNNaffinity_variance>
0.0678552836

$$$$
[H]OC(=O)c1c([H])c([H])c(C([H])([H])N([H])C(=O)c2c([H])c([H])c(C(C([H])([H])[H])(C([H])([H])[H])C([H])([H])[H])c([H])c2[H])c([H])c1F


 26 27  0  0  0  0  0  0  0  0999 V2000
   36.7277   13.4689  -12.4587 C   0  0  0  0  0  0  0  0  0  0  0  0
   35.9106   12.5408  -12.1861 O   0  0  0  0  0  0  0  0  0  0  0  0
   36.6958   14.6475  -11.7035 N   0  0  0  0  0  0  0  0  0  0  0  0
   37.4051   15.4046  -11.9496 H   0  0  0  0  0  0  0  0  0  0  0  0
   39.5724   12.9765  -15.6028 C   0  0  0  0  0  0  0  0  0  0  0  0
   39.6523   14.0330  -14.7155 C   0  0  0  0  0  0  0  0  0  0  0  0
   38.7342   14.2067  -13.7017 C   0  0  0  0  0  0  0  0  0  0  0  0
   37.6912   13.3206  -13.5390 C   0  0  0  0  0  0  0  0  0  0  0  0
   37.5759   12.2626  -14.3970 C   0  0  0  0  0  0  0  0  0  0  0  0
   38.5225   12.1140  -15.4126 C   0  0  0  0  0  0  0  0  0  0  0  0
   41.9338   12.6431  -16.0664 C   0  0  0  0  0  0  0  0  0  0  0  0
   40.5663   12.7804  -16.7053 C   0  0  0  0  0  0  0  0  0  0  0  0
   40.6013   14.0134  -17.5774 C   0  0  0  0  0  0  0  0  0  0  0  0
   40.2259   11.5751  -17.5580 C   0  0  0  0  0  0  0  0  0  0  0  0
   35.8247   14.9572  -10.6092 C   0  0  0  0  0  0  0  0  0  0  0  0
   36.4674   14.7605   -9.2876 C   0  0  0  0  0  0  0  0  0  0  0  0
   37.8653   14.9282   -9.2094 C   0  0  0  0  0  0  0  0  0  0  0  0
   38.5259   14.7930   -8.0162 C   0  0  0  0  0  0  0  0  0  0  0  0
   37.8726   14.4866   -6.8241 C   0  0  0  0  0  0  0  0  0  0  0  0
   36.5044   14.3189   -6.8915 C   0  0  0  0  0  0  0  0  0  0  0  0
   35.8182   14.0251   -5.7580 F   0  0  0  0  0  0  0  0  0  0  0  0
   35.8361   14.4584   -8.1136 C   0  0  0  0  0  0  0  0  0  0  0  0
   38.6278   14.3731   -5.5918 C   0  0  0  0  0  0  0  0  0  0  0  0
   38.6286   15.3645   -4.8101 O   0  0  0  0  0  0  0  0  0  0  0  0
   39.3160   13.2329   -5.2802 O   0  0  0  0  0  0  0  0  0  0  0  0
   38.9249   12.4212   -4.7897 H   0  0  0  0  0  0  0  0  0  0  0  0
 11 12  1  0  0  0
 12 13  1  0  0  0
 12 14  1  0  0  0
 12  5  1  0  0  0
  5  6  2  0  0  0
  6  7  1  0  0  0
  7  8  2  0  0  0
  8  1  1  0  0  0
  1  2  2  0  0  0
  1  3  1  0  0  0
  3 15  1  0  0  0
 15 16  1  0  0  0
 16 17  2  0  0  0
 17 18  1  0  0  0
 18 19  2  0  0  0
 19 23  1  0  0  0
 23 24  2  0  0  0
 23 25  1  0  0  0
 19 20  1  0  0  0
 20 21  1  0  0  0
 20 22  2  0  0  0
  8  9  1  0  0  0
  9 10  2  0  0  0
 10  5  1  0  0  0
 22 16  1  0  0  0
  3  4  1  0  0  0
 25 26  1  0  0  0
M  END
> <minimizedAffinity>
-7.07393

> <CNNscore>
0.2036022395

> <CNNaffinity>
4.8975658417

> <CNN_VS>
0.9971553683

> <CNNaffinity_variance>
0.2309096307

$$$$
[H]OC(=O)c1c([H])c([H])c(C([H])([H])N([H])C(=O)c2c([H])c([H])c(C(C([H])([H])[H])(C([H])([H])[H])C([H])([H])[H])c([H])c2[H])c([H])c1F


 26 27  0  0  0  0  0  0  0  0999 V2000
   42.0370   13.1843  -15.3178 C   0  0  0  0  0  0  0  0  0  0  0  0
   42.6382   12.8514  -16.3813 O   0  0  0  0  0  0  0  0  0  0  0  0
   42.7840   13.6653  -14.2357 N   0  0  0  0  0  0  0  0  0  0  0  0
   42.2472   13.9492  -13.3593 H   0  0  0  0  0  0  0  0  0  0  0  0
   37.7987   12.8317  -14.9527 C   0  0  0  0  0  0  0  0  0  0  0  0
   38.4919   12.1953  -15.9648 C   0  0  0  0  0  0  0  0  0  0  0  0
   39.8594   12.3090  -16.0974 C   0  0  0  0  0  0  0  0  0  0  0  0
   40.5898   13.0735  -15.2133 C   0  0  0  0  0  0  0  0  0  0  0  0
   39.9414   13.7206  -14.1987 C   0  0  0  0  0  0  0  0  0  0  0  0
   38.5560   13.5843  -14.0910 C   0  0  0  0  0  0  0  0  0  0  0  0
   35.8125   11.8225  -15.9215 C   0  0  0  0  0  0  0  0  0  0  0  0
   36.3140   12.7118  -14.8014 C   0  0  0  0  0  0  0  0  0  0  0  0
   35.6772   14.0689  -14.9878 C   0  0  0  0  0  0  0  0  0  0  0  0
   35.9324   12.1637  -13.4413 C   0  0  0  0  0  0  0  0  0  0  0  0
   44.2038   13.8441  -14.1686 C   0  0  0  0  0  0  0  0  0  0  0  0
   44.5974   15.2590  -13.9648 C   0  0  0  0  0  0  0  0  0  0  0  0
   43.8407   16.0228  -13.0524 C   0  0  0  0  0  0  0  0  0  0  0  0
   44.1630   17.3285  -12.7887 C   0  0  0  0  0  0  0  0  0  0  0  0
   45.2389   17.9757  -13.3933 C   0  0  0  0  0  0  0  0  0  0  0  0
   45.9840   17.2362  -14.2891 C   0  0  0  0  0  0  0  0  0  0  0  0
   47.0468   17.8168  -14.9020 F   0  0  0  0  0  0  0  0  0  0  0  0
   45.6492   15.9030  -14.5538 C   0  0  0  0  0  0  0  0  0  0  0  0
   45.5366   19.3545  -13.0589 C   0  0  0  0  0  0  0  0  0  0  0  0
   44.7362   20.2429  -13.4639 O   0  0  0  0  0  0  0  0  0  0  0  0
   46.6437   19.6876  -12.3280 O   0  0  0  0  0  0  0  0  0  0  0  0
   46.6885   19.7204  -11.3037 H   0  0  0  0  0  0  0  0  0  0  0  0
 11 12  1  0  0  0
 12 13  1  0  0  0
 12 14  1  0  0  0
 12  5  1  0  0  0
  5  6  2  0  0  0
  6  7  1  0  0  0
  7  8  2  0  0  0
  8  1  1  0  0  0
  1  2  2  0  0  0
  1  3  1  0  0  0
  3 15  1  0  0  0
 15 16  1  0  0  0
 16 17  2  0  0  0
 17 18  1  0  0  0
 18 19  2  0  0  0
 19 23  1  0  0  0
 23 24  2  0  0  0
 23 25  1  0  0  0
 19 20  1  0  0  0
 20 21  1  0  0  0
 20 22  2  0  0  0
  8  9  1  0  0  0
  9 10  2  0  0  0
 10  5  1  0  0  0
 22 16  1  0  0  0
  3  4  1  0  0  0
 25 26  1  0  0  0
M  END
> <minimizedAffinity>
-7.89494

> <CNNscore>
0.1988745779

> <CNNaffinity>
5.2383966446

> <CNN_VS>
1.0417839289

> <CNNaffinity_variance>
0.1588278264

$$$$
[H]OC(=O)c1c([H])c([H])c(C([H])([H])N([H])C(=O)c2c([H])c([H])c(C(C([H])([H])[H])(C([H])([H])[H])C([H])([H])[H])c([H])c2[H])c([H])c1F


 26 27  0  0  0  0  0  0  0  0999 V2000
   43.7231   12.4326  -16.4331 C   0  0  0  0  0  0  0  0  0  0  0  0
   44.3842   11.8448  -17.3391 O   0  0  0  0  0  0  0  0  0  0  0  0
   42.3314   12.5238  -16.5564 N   0  0  0  0  0  0  0  0  0  0  0  0
   41.8024   13.0133  -15.7707 H   0  0  0  0  0  0  0  0  0  0  0  0
   45.6698   14.1765  -13.0582 C   0  0  0  0  0  0  0  0  0  0  0  0
   46.3625   13.4071  -13.9737 C   0  0  0  0  0  0  0  0  0  0  0  0
   45.7424   12.8319  -15.0625 C   0  0  0  0  0  0  0  0  0  0  0  0
   44.3920   13.0067  -15.2753 C   0  0  0  0  0  0  0  0  0  0  0  0
   43.6703   13.7600  -14.3918 C   0  0  0  0  0  0  0  0  0  0  0  0
   44.3280   14.3299  -13.2999 C   0  0  0  0  0  0  0  0  0  0  0  0
   47.7625   15.1286  -12.2732 C   0  0  0  0  0  0  0  0  0  0  0  0
   46.3365   14.8055  -11.8743 C   0  0  0  0  0  0  0  0  0  0  0  0
   46.4033   13.8059  -10.7437 C   0  0  0  0  0  0  0  0  0  0  0  0
   45.5952   16.0410  -11.4054 C   0  0  0  0  0  0  0  0  0  0  0  0
   41.5159   12.0133  -17.6179 C   0  0  0  0  0  0  0  0  0  0  0  0
   40.0962   11.8461  -17.2244 C   0  0  0  0  0  0  0  0  0  0  0  0
   39.6353   12.5812  -16.1129 C   0  0  0  0  0  0  0  0  0  0  0  0
   38.3282   12.5021  -15.7084 C   0  0  0  0  0  0  0  0  0  0  0  0
   37.3861   11.7053  -16.3561 C   0  0  0  0  0  0  0  0  0  0  0  0
   37.8289   10.9809  -17.4441 C   0  0  0  0  0  0  0  0  0  0  0  0
   36.9505   10.1930  -18.1148 F   0  0  0  0  0  0  0  0  0  0  0  0
   39.1653   11.0663  -17.8518 C   0  0  0  0  0  0  0  0  0  0  0  0
   36.0144   11.6782  -15.8876 C   0  0  0  0  0  0  0  0  0  0  0  0
   35.7984   11.9943  -14.6845 O   0  0  0  0  0  0  0  0  0  0  0  0
   34.9851   11.3252  -16.7163 O   0  0  0  0  0  0  0  0  0  0  0  0
   34.4710   11.9684  -17.3281 H   0  0  0  0  0  0  0  0  0  0  0  0
 11 12  1  0  0  0
 12 13  1  0  0  0
 12 14  1  0  0  0
 12  5  1  0  0  0
  5  6  2  0  0  0
  6  7  1  0  0  0
  7  8  2  0  0  0
  8  1  1  0  0  0
  1  2  2  0  0  0
  1  3  1  0  0  0
  3 15  1  0  0  0
 15 16  1  0  0  0
 16 17  2  0  0  0
 17 18  1  0  0  0
 18 19  2  0  0  0
 19 23  1  0  0  0
 23 24  2  0  0  0
 23 25  1  0  0  0
 19 20  1  0  0  0
 20 21  1  0  0  0
 20 22  2  0  0  0
  8  9  1  0  0  0
  9 10  2  0  0  0
 10  5  1  0  0  0
 22 16  1  0  0  0
  3  4  1  0  0  0
 25 26  1  0  0  0
M  END
> <minimizedAffinity>
-7.20159

> <CNNscore>
0.1925865263

> <CNNaffinity>
5.1308445930

> <CNN_VS>
0.9881315231

> <CNNaffinity_variance>
0.1040158048

$$$$
[H]OC(=O)c1c([H])c([H])c(C([H])([H])N([H])C(=O)c2c([H])c([H])c(C(C([H])([H])[H])(C([H])([H])[H])C([H])([H])[H])c([H])c2[H])c([H])c1F


 26 27  0  0  0  0  0  0  0  0999 V2000
   36.3744   13.0622  -13.2682 C   0  0  0  0  0  0  0  0  0  0  0  0
   35.8589   12.0598  -12.6913 O   0  0  0  0  0  0  0  0  0  0  0  0
   35.9033   14.3434  -12.9569 N   0  0  0  0  0  0  0  0  0  0  0  0
   36.3668   15.1674  -13.4501 H   0  0  0  0  0  0  0  0  0  0  0  0
   39.5088   12.6342  -16.1340 C   0  0  0  0  0  0  0  0  0  0  0  0
   38.2900   12.0034  -16.2971 C   0  0  0  0  0  0  0  0  0  0  0  0
   37.2737   12.1276  -15.3738 C   0  0  0  0  0  0  0  0  0  0  0  0
   37.4434   12.8944  -14.2412 C   0  0  0  0  0  0  0  0  0  0  0  0
   38.6351   13.5338  -14.0419 C   0  0  0  0  0  0  0  0  0  0  0  0
   39.6439   13.3889  -14.9962 C   0  0  0  0  0  0  0  0  0  0  0  0
   40.5761   13.7343  -18.0189 C   0  0  0  0  0  0  0  0  0  0  0  0
   40.6166   12.5053  -17.1330 C   0  0  0  0  0  0  0  0  0  0  0  0
   40.3611   11.3074  -18.0171 C   0  0  0  0  0  0  0  0  0  0  0  0
   41.9639   12.3491  -16.4576 C   0  0  0  0  0  0  0  0  0  0  0  0
   34.8707   14.6893  -12.0261 C   0  0  0  0  0  0  0  0  0  0  0  0
   35.4022   15.1469  -10.7198 C   0  0  0  0  0  0  0  0  0  0  0  0
   34.5942   16.0107   -9.9521 C   0  0  0  0  0  0  0  0  0  0  0  0
   35.0046   16.4510   -8.7209 C   0  0  0  0  0  0  0  0  0  0  0  0
   36.2241   16.0817   -8.1567 C   0  0  0  0  0  0  0  0  0  0  0  0
   37.0223   15.2378   -8.9019 C   0  0  0  0  0  0  0  0  0  0  0  0
   38.2182   14.8423   -8.3965 F   0  0  0  0  0  0  0  0  0  0  0  0
   36.5969   14.7919  -10.1589 C   0  0  0  0  0  0  0  0  0  0  0  0
   36.5925   16.5698   -6.8423 C   0  0  0  0  0  0  0  0  0  0  0  0
   37.1740   17.6883   -6.7731 O   0  0  0  0  0  0  0  0  0  0  0  0
   36.3202   15.8490   -5.7123 O   0  0  0  0  0  0  0  0  0  0  0  0
   35.4454   15.8938   -5.1785 H   0  0  0  0  0  0  0  0  0  0  0  0
 11 12  1  0  0  0
 12 13  1  0  0  0
 12 14  1  0  0  0
 12  5  1  0  0  0
  5  6  2  0  0  0
  6  7  1  0  0  0
  7  8  2  0  0  0
  8  1  1  0  0  0
  1  2  2  0  0  0
  1  3  1  0  0  0
  3 15  1  0  0  0
 15 16  1  0  0  0
 16 17  2  0  0  0
 17 18  1  0  0  0
 18 19  2  0  0  0
 19 23  1  0  0  0
 23 24  2  0  0  0
 23 25  1  0  0  0
 19 20  1  0  0  0
 20 21  1  0  0  0
 20 22  2  0  0  0
  8  9  1  0  0  0
  9 10  2  0  0  0
 10  5  1  0  0  0
 22 16  1  0  0  0
  3  4  1  0  0  0
 25 26  1  0  0  0
M  END
> <minimizedAffinity>
-7.00454

> <CNNscore>
0.1901335865

> <CNNaffinity>
4.9521856308

> <CNN_VS>
0.9415768385

> <CNNaffinity_variance>
0.2324257791

$$$$
[H]Oc1c([H])c(O[H])c([H])c([C@@]([H])(O[H])C([H])([H])N([H])[C@@]([H])(C([H])([H])[H])C([H])([H])c2c([H])c([H])c(OC([H])([H])[H])c([H])c2[H])c1[H]


 27 28  0  0  0  0  0  0  0  0999 V2000
   34.4489   14.2249  -13.4032 C   0  0  0  0  0  0  0  0  0  0  0  0
   34.5072   12.7377  -13.3972 C   0  0  0  0  0  0  0  0  0  0  0  0
   35.6752   12.3289  -12.6529 O   0  0  0  0  0  0  0  0  0  0  0  0
   35.3358   11.8722  -11.8665 H   0  0  0  0  0  0  0  0  0  0  0  0
   34.7318   12.1149  -14.7403 C   0  0  0  0  0  0  0  0  0  0  0  0
   33.7314   11.6273  -15.5279 C   0  0  0  0  0  0  0  0  0  0  0  0
   33.9848   11.0549  -16.7794 C   0  0  0  0  0  0  0  0  0  0  0  0
   32.9805   10.5554  -17.5906 O   0  0  0  0  0  0  0  0  0  0  0  0
   35.2846   10.9902  -17.2130 C   0  0  0  0  0  0  0  0  0  0  0  0
   36.3325   11.4642  -16.4652 C   0  0  0  0  0  0  0  0  0  0  0  0
   37.6352   11.3814  -16.9385 O   0  0  0  0  0  0  0  0  0  0  0  0
   36.0353   12.0195  -15.2389 C   0  0  0  0  0  0  0  0  0  0  0  0
   32.5709   11.2391  -18.2468 H   0  0  0  0  0  0  0  0  0  0  0  0
   37.9420   12.1969  -17.4902 H   0  0  0  0  0  0  0  0  0  0  0  0
   35.4145   14.9692  -12.7349 N   0  0  0  0  0  0  0  0  0  0  0  0
   36.4101   14.7594  -12.9985 H   0  0  0  0  0  0  0  0  0  0  0  0
   35.2234   15.5834  -11.5066 C   0  0  0  0  0  0  0  0  0  0  0  0
   33.7884   15.5935  -11.0638 C   0  0  0  0  0  0  0  0  0  0  0  0
   36.1471   15.1741  -10.3920 C   0  0  0  0  0  0  0  0  0  0  0  0
   37.4094   18.7198   -8.2803 C   0  0  0  0  0  0  0  0  0  0  0  0
   36.6717   17.7341   -7.6590 C   0  0  0  0  0  0  0  0  0  0  0  0
   36.2689   16.5945   -8.3356 C   0  0  0  0  0  0  0  0  0  0  0  0
   36.5895   16.3947   -9.6664 C   0  0  0  0  0  0  0  0  0  0  0  0
   37.3282   17.3809  -10.2897 C   0  0  0  0  0  0  0  0  0  0  0  0
   37.7268   18.5167   -9.6068 C   0  0  0  0  0  0  0  0  0  0  0  0
   36.9227   20.7334   -6.9630 C   0  0  0  0  0  0  0  0  0  0  0  0
   37.8266   19.8749   -7.6216 O   0  0  0  0  0  0  0  0  0  0  0  0
 26 27  1  0  0  0
 27 20  1  0  0  0
 20 21  2  0  0  0
 21 22  1  0  0  0
 22 23  2  0  0  0
 23 19  1  0  0  0
 19 17  1  0  0  0
 17 18  1  0  0  0
 17 15  1  0  0  0
 15  1  1  0  0  0
  1  2  1  0  0  0
  2  3  1  0  0  0
  2  5  1  0  0  0
  5  6  2  0  0  0
  6  7  1  0  0  0
  7  8  1  0  0  0
  7  9  2  0  0  0
  9 10  1  0  0  0
 10 11  1  0  0  0
 10 12  2  0  0  0
 23 24  1  0  0  0
 24 25  2  0  0  0
 25 20  1  0  0  0
 12  5  1  0  0  0
 15 16  1  0  0  0
  3  4  1  0  0  0
  8 13  1  0  0  0
 11 14  1  0  0  0
M  END
> <minimizedAffinity>
-6.43498

> <CNNscore>
0.5747905374

> <CNNaffinity>
5.1089472771

> <CNN_VS>
2.9365744591

> <CNNaffinity_variance>
0.1282766312

$$$$
[H]Oc1c([H])c(O[H])c([H])c([C@@]([H])(O[H])C([H])([H])N([H])[C@@]([H])(C([H])([H])[H])C([H])([H])c2c([H])c([H])c(OC([H])([H])[H])c([H])c2[H])c1[H]


 27 28  0  0  0  0  0  0  0  0999 V2000
   38.5426   15.1429  -13.4073 C   0  0  0  0  0  0  0  0  0  0  0  0
   37.3028   14.9023  -12.6198 C   0  0  0  0  0  0  0  0  0  0  0  0
   37.6291   14.0469  -11.5031 O   0  0  0  0  0  0  0  0  0  0  0  0
   37.4915   14.5902  -10.7104 H   0  0  0  0  0  0  0  0  0  0  0  0
   36.2456   14.1235  -13.3396 C   0  0  0  0  0  0  0  0  0  0  0  0
   34.9089   14.2702  -13.1143 C   0  0  0  0  0  0  0  0  0  0  0  0
   33.9529   13.5236  -13.8119 C   0  0  0  0  0  0  0  0  0  0  0  0
   32.5926   13.6605  -13.5947 O   0  0  0  0  0  0  0  0  0  0  0  0
   34.3898   12.6210  -14.7479 C   0  0  0  0  0  0  0  0  0  0  0  0
   35.7212   12.4299  -15.0181 C   0  0  0  0  0  0  0  0  0  0  0  0
   36.1249   11.5068  -15.9736 O   0  0  0  0  0  0  0  0  0  0  0  0
   36.6270   13.1874  -14.3065 C   0  0  0  0  0  0  0  0  0  0  0  0
   32.1274   14.3696  -14.1834 H   0  0  0  0  0  0  0  0  0  0  0  0
   36.2078   11.8886  -16.9281 H   0  0  0  0  0  0  0  0  0  0  0  0
   39.7344   14.5224  -13.0496 N   0  0  0  0  0  0  0  0  0  0  0  0
   39.7180   14.0044  -12.1353 H   0  0  0  0  0  0  0  0  0  0  0  0
   40.9850   14.8895  -13.5225 C   0  0  0  0  0  0  0  0  0  0  0  0
   41.6199   15.9949  -12.7285 C   0  0  0  0  0  0  0  0  0  0  0  0
   41.9575   13.7769  -13.8043 C   0  0  0  0  0  0  0  0  0  0  0  0
   41.0236   12.0641  -17.6538 C   0  0  0  0  0  0  0  0  0  0  0  0
   40.0348   12.5227  -16.8090 C   0  0  0  0  0  0  0  0  0  0  0  0
   40.3342   13.0754  -15.5746 C   0  0  0  0  0  0  0  0  0  0  0  0
   41.6406   13.1916  -15.1344 C   0  0  0  0  0  0  0  0  0  0  0  0
   42.6317   12.7329  -15.9793 C   0  0  0  0  0  0  0  0  0  0  0  0
   42.3243   12.1820  -17.2111 C   0  0  0  0  0  0  0  0  0  0  0  0
   39.4719   11.0090  -19.2367 C   0  0  0  0  0  0  0  0  0  0  0  0
   40.7482   11.5046  -18.9001 O   0  0  0  0  0  0  0  0  0  0  0  0
 26 27  1  0  0  0
 27 20  1  0  0  0
 20 21  2  0  0  0
 21 22  1  0  0  0
 22 23  2  0  0  0
 23 19  1  0  0  0
 19 17  1  0  0  0
 17 18  1  0  0  0
 17 15  1  0  0  0
 15  1  1  0  0  0
  1  2  1  0  0  0
  2  3  1  0  0  0
  2  5  1  0  0  0
  5  6  2  0  0  0
  6  7  1  0  0  0
  7  8  1  0  0  0
  7  9  2  0  0  0
  9 10  1  0  0  0
 10 11  1  0  0  0
 10 12  2  0  0  0
 23 24  1  0  0  0
 24 25  2  0  0  0
 25 20  1  0  0  0
 12  5  1  0  0  0
 15 16  1  0  0  0
  3  4  1  0  0  0
  8 13  1  0  0  0
 11 14  1  0  0  0
M  END
> <minimizedAffinity>
-7.44297

> <CNNscore>
0.5427960157

> <CNNaffinity>
5.9879136086

> <CNN_VS>
3.2502155304

> <CNNaffinity_variance>
0.1312120408

$$$$
[H]Oc1c([H])c(O[H])c([H])c([C@@]([H])(O[H])C([H])([H])N([H])[C@@]([H])(C([H])([H])[H])C([H])([H])c2c([H])c([H])c(OC([H])([H])[H])c([H])c2[H])c1[H]


 27 28  0  0  0  0  0  0  0  0999 V2000
   38.5843   14.7815  -14.2035 C   0  0  0  0  0  0  0  0  0  0  0  0
   39.2021   13.4296  -14.1289 C   0  0  0  0  0  0  0  0  0  0  0  0
   40.6054   13.5842  -13.8254 O   0  0  0  0  0  0  0  0  0  0  0  0
   40.7251   13.1963  -12.9436 H   0  0  0  0  0  0  0  0  0  0  0  0
   39.2210   12.6779  -15.4238 C   0  0  0  0  0  0  0  0  0  0  0  0
   38.1558   11.9817  -15.9131 C   0  0  0  0  0  0  0  0  0  0  0  0
   38.2148   11.2944  -17.1306 C   0  0  0  0  0  0  0  0  0  0  0  0
   37.1425   10.5830  -17.6408 O   0  0  0  0  0  0  0  0  0  0  0  0
   39.3872   11.3323  -17.8418 C   0  0  0  0  0  0  0  0  0  0  0  0
   40.4917   12.0160  -17.4007 C   0  0  0  0  0  0  0  0  0  0  0  0
   41.6611   12.0315  -18.1493 O   0  0  0  0  0  0  0  0  0  0  0  0
   40.3874   12.6781  -16.1960 C   0  0  0  0  0  0  0  0  0  0  0  0
   36.5081   11.1274  -18.2466 H   0  0  0  0  0  0  0  0  0  0  0  0
   41.7223   12.8039  -18.8299 H   0  0  0  0  0  0  0  0  0  0  0  0
   37.7816   15.2460  -13.1675 N   0  0  0  0  0  0  0  0  0  0  0  0
   37.5083   16.2591  -13.2264 H   0  0  0  0  0  0  0  0  0  0  0  0
   37.7022   14.6629  -11.9120 C   0  0  0  0  0  0  0  0  0  0  0  0
   38.5664   15.3391  -10.8867 C   0  0  0  0  0  0  0  0  0  0  0  0
   36.3233   14.3820  -11.3802 C   0  0  0  0  0  0  0  0  0  0  0  0
   34.0502   12.2975  -14.3988 C   0  0  0  0  0  0  0  0  0  0  0  0
   33.6824   13.5505  -13.9554 C   0  0  0  0  0  0  0  0  0  0  0  0
   34.4134   14.2212  -12.9887 C   0  0  0  0  0  0  0  0  0  0  0  0
   35.5464   13.6627  -12.4247 C   0  0  0  0  0  0  0  0  0  0  0  0
   35.9158   12.4081  -12.8678 C   0  0  0  0  0  0  0  0  0  0  0  0
   35.1801   11.7445  -13.8341 C   0  0  0  0  0  0  0  0  0  0  0  0
   33.9652   10.8374  -16.3705 C   0  0  0  0  0  0  0  0  0  0  0  0
   33.3318   11.6026  -15.3700 O   0  0  0  0  0  0  0  0  0  0  0  0
 26 27  1  0  0  0
 27 20  1  0  0  0
 20 21  2  0  0  0
 21 22  1  0  0  0
 22 23  2  0  0  0
 23 19  1  0  0  0
 19 17  1  0  0  0
 17 18  1  0  0  0
 17 15  1  0  0  0
 15  1  1  0  0  0
  1  2  1  0  0  0
  2  3  1  0  0  0
  2  5  1  0  0  0
  5  6  2  0  0  0
  6  7  1  0  0  0
  7  8  1  0  0  0
  7  9  2  0  0  0
  9 10  1  0  0  0
 10 11  1  0  0  0
 10 12  2  0  0  0
 23 24  1  0  0  0
 24 25  2  0  0  0
 25 20  1  0  0  0
 12  5  1  0  0  0
 15 16  1  0  0  0
  3  4  1  0  0  0
  8 13  1  0  0  0
 11 14  1  0  0  0
M  END
> <minimizedAffinity>
-7.49718

> <CNNscore>
0.4209528863

> <CNNaffinity>
5.8408303261

> <CNN_VS>
2.4587144852

> <CNNaffinity_variance>
0.0507714227

$$$$
[H]Oc1c([H])c(O[H])c([H])c([C@@]([H])(O[H])C([H])([H])N([H])[C@@]([H])(C([H])([H])[H])C([H])([H])c2c([H])c([H])c(OC([H])([H])[H])c([H])c2[H])c1[H]


 27 28  0  0  0  0  0  0  0  0999 V2000
   39.5059   14.9226  -14.0929 C   0  0  0  0  0  0  0  0  0  0  0  0
   40.1386   13.5800  -14.2030 C   0  0  0  0  0  0  0  0  0  0  0  0
   41.5689   13.7549  -14.2977 O   0  0  0  0  0  0  0  0  0  0  0  0
   41.9329   13.3651  -13.4865 H   0  0  0  0  0  0  0  0  0  0  0  0
   39.8092   12.8342  -15.4591 C   0  0  0  0  0  0  0  0  0  0  0  0
   40.6750   12.6829  -16.5014 C   0  0  0  0  0  0  0  0  0  0  0  0
   40.3276   11.9750  -17.6573 C   0  0  0  0  0  0  0  0  0  0  0  0
   41.1949   11.8126  -18.7240 O   0  0  0  0  0  0  0  0  0  0  0  0
   39.0743   11.4221  -17.7285 C   0  0  0  0  0  0  0  0  0  0  0  0
   38.1607   11.5407  -16.7120 C   0  0  0  0  0  0  0  0  0  0  0  0
   36.9013   10.9662  -16.8207 O   0  0  0  0  0  0  0  0  0  0  0  0
   38.5467   12.2468  -15.5927 C   0  0  0  0  0  0  0  0  0  0  0  0
   41.7951   10.9742  -18.6728 H   0  0  0  0  0  0  0  0  0  0  0  0
   36.8417    9.9980  -16.4706 H   0  0  0  0  0  0  0  0  0  0  0  0
   39.3190   15.5118  -12.8474 N   0  0  0  0  0  0  0  0  0  0  0  0
   40.1671   15.9750  -12.4342 H   0  0  0  0  0  0  0  0  0  0  0  0
   38.3163   15.1638  -11.9552 C   0  0  0  0  0  0  0  0  0  0  0  0
   38.6427   15.5079  -10.5303 C   0  0  0  0  0  0  0  0  0  0  0  0
   36.9138   15.5687  -12.3186 C   0  0  0  0  0  0  0  0  0  0  0  0
   34.9721   12.2726  -14.3162 C   0  0  0  0  0  0  0  0  0  0  0  0
   35.1614   13.4861  -14.9434 C   0  0  0  0  0  0  0  0  0  0  0  0
   35.7873   14.5434  -14.3037 C   0  0  0  0  0  0  0  0  0  0  0  0
   36.2507   14.4281  -13.0054 C   0  0  0  0  0  0  0  0  0  0  0  0
   36.0619   13.2136  -12.3761 C   0  0  0  0  0  0  0  0  0  0  0  0
   35.4356   12.1621  -13.0222 C   0  0  0  0  0  0  0  0  0  0  0  0
   33.5424   11.3507  -16.0862 C   0  0  0  0  0  0  0  0  0  0  0  0
   34.3457   11.1942  -14.9381 O   0  0  0  0  0  0  0  0  0  0  0  0
 26 27  1  0  0  0
 27 20  1  0  0  0
 20 21  2  0  0  0
 21 22  1  0  0  0
 22 23  2  0  0  0
 23 19  1  0  0  0
 19 17  1  0  0  0
 17 18  1  0  0  0
 17 15  1  0  0  0
 15  1  1  0  0  0
  1  2  1  0  0  0
  2  3  1  0  0  0
  2  5  1  0  0  0
  5  6  2  0  0  0
  6  7  1  0  0  0
  7  8  1  0  0  0
  7  9  2  0  0  0
  9 10  1  0  0  0
 10 11  1  0  0  0
 10 12  2  0  0  0
 23 24  1  0  0  0
 24 25  2  0  0  0
 25 20  1  0  0  0
 12  5  1  0  0  0
 15 16  1  0  0  0
  3  4  1  0  0  0
  8 13  1  0  0  0
 11 14  1  0  0  0
M  END
> <minimizedAffinity>
-7.35379

> <CNNscore>
0.4188377559

> <CNNaffinity>
5.6148500443

> <CNN_VS>
2.3517112732

> <CNNaffinity_variance>
0.1308510303

$$$$
[H]Oc1c([H])c(O[H])c([H])c([C@@]([H])(O[H])C([H])([H])N([H])[C@@]([H])(C([H])([H])[H])C([H])([H])c2c([H])c([H])c(OC([H])([H])[H])c([H])c2[H])c1[H]


 27 28  0  0  0  0  0  0  0  0999 V2000
   36.3701   12.6574  -15.8558 C   0  0  0  0  0  0  0  0  0  0  0  0
   37.4327   11.6524  -15.5803 C   0  0  0  0  0  0  0  0  0  0  0  0
   37.9272   11.8653  -14.2403 O   0  0  0  0  0  0  0  0  0  0  0  0
   37.6732   11.0729  -13.7404 H   0  0  0  0  0  0  0  0  0  0  0  0
   38.6649   11.7988  -16.4185 C   0  0  0  0  0  0  0  0  0  0  0  0
   39.7844   12.4630  -16.0130 C   0  0  0  0  0  0  0  0  0  0  0  0
   40.9168   12.5740  -16.8275 C   0  0  0  0  0  0  0  0  0  0  0  0
   42.0608   13.2449  -16.4307 O   0  0  0  0  0  0  0  0  0  0  0  0
   40.8840   11.9910  -18.0688 C   0  0  0  0  0  0  0  0  0  0  0  0
   39.7866   11.3099  -18.5312 C   0  0  0  0  0  0  0  0  0  0  0  0
   39.7914   10.7325  -19.7940 O   0  0  0  0  0  0  0  0  0  0  0  0
   38.6941   11.2262  -17.6945 C   0  0  0  0  0  0  0  0  0  0  0  0
   42.7584   12.6629  -15.9404 H   0  0  0  0  0  0  0  0  0  0  0  0
   40.1356    9.7606  -19.8180 H   0  0  0  0  0  0  0  0  0  0  0  0
   36.0422   13.6137  -14.9012 N   0  0  0  0  0  0  0  0  0  0  0  0
   36.8329   14.2324  -14.5904 H   0  0  0  0  0  0  0  0  0  0  0  0
   34.9591   13.5260  -14.0399 C   0  0  0  0  0  0  0  0  0  0  0  0
   33.8506   12.6595  -14.5649 C   0  0  0  0  0  0  0  0  0  0  0  0
   35.2620   13.2289  -12.5966 C   0  0  0  0  0  0  0  0  0  0  0  0
   37.5188   16.5280  -10.9694 C   0  0  0  0  0  0  0  0  0  0  0  0
   36.1769   16.6473  -11.2640 C   0  0  0  0  0  0  0  0  0  0  0  0
   35.4514   15.5878  -11.7835 C   0  0  0  0  0  0  0  0  0  0  0  0
   36.0422   14.3614  -12.0299 C   0  0  0  0  0  0  0  0  0  0  0  0
   37.3858   14.2405  -11.7354 C   0  0  0  0  0  0  0  0  0  0  0  0
   38.1037   15.3039  -11.2166 C   0  0  0  0  0  0  0  0  0  0  0  0
   37.7855   18.4100   -9.4158 C   0  0  0  0  0  0  0  0  0  0  0  0
   38.2702   17.5786  -10.4462 O   0  0  0  0  0  0  0  0  0  0  0  0
 26 27  1  0  0  0
 27 20  1  0  0  0
 20 21  2  0  0  0
 21 22  1  0  0  0
 22 23  2  0  0  0
 23 19  1  0  0  0
 19 17  1  0  0  0
 17 18  1  0  0  0
 17 15  1  0  0  0
 15  1  1  0  0  0
  1  2  1  0  0  0
  2  3  1  0  0  0
  2  5  1  0  0  0
  5  6  2  0  0  0
  6  7  1  0  0  0
  7  8  1  0  0  0
  7  9  2  0  0  0
  9 10  1  0  0  0
 10 11  1  0  0  0
 10 12  2  0  0  0
 23 24  1  0  0  0
 24 25  2  0  0  0
 25 20  1  0  0  0
 12  5  1  0  0  0
 15 16  1  0  0  0
  3  4  1  0  0  0
  8 13  1  0  0  0
 11 14  1  0  0  0
M  END
> <minimizedAffinity>
-7.61400

> <CNNscore>
0.3836587369

> <CNNaffinity>
5.6310529709

> <CNN_VS>
2.1604027748

> <CNNaffinity_variance>
0.0326473638

$$$$
[H]Oc1c([H])c(O[H])c([H])c([C@@]([H])(O[H])C([H])([H])N([H])[C@@]([H])(C([H])([H])[H])C([H])([H])c2c([H])c([H])c(OC([H])([H])[H])c([H])c2[H])c1[H]


 27 28  0  0  0  0  0  0  0  0999 V2000
   38.6119   14.8692  -12.3819 C   0  0  0  0  0  0  0  0  0  0  0  0
   37.1524   15.1559  -12.3312 C   0  0  0  0  0  0  0  0  0  0  0  0
   36.6795   14.8859  -10.9938 O   0  0  0  0  0  0  0  0  0  0  0  0
   36.4057   15.7459  -10.6362 H   0  0  0  0  0  0  0  0  0  0  0  0
   36.3074   14.2511  -13.1736 C   0  0  0  0  0  0  0  0  0  0  0  0
   36.8139   13.3278  -14.0396 C   0  0  0  0  0  0  0  0  0  0  0  0
   35.9879   12.4991  -14.8069 C   0  0  0  0  0  0  0  0  0  0  0  0
   36.4864   11.5572  -15.6904 O   0  0  0  0  0  0  0  0  0  0  0  0
   34.6292   12.6316  -14.6722 C   0  0  0  0  0  0  0  0  0  0  0  0
   34.0616   13.5421  -13.8173 C   0  0  0  0  0  0  0  0  0  0  0  0
   32.6813   13.6464  -13.7080 O   0  0  0  0  0  0  0  0  0  0  0  0
   34.9142   14.3373  -13.0817 C   0  0  0  0  0  0  0  0  0  0  0  0
   36.6508   10.6229  -15.2831 H   0  0  0  0  0  0  0  0  0  0  0  0
   32.2622   13.0358  -12.9903 H   0  0  0  0  0  0  0  0  0  0  0  0
   39.4742   15.7277  -13.0548 N   0  0  0  0  0  0  0  0  0  0  0  0
   39.0107   16.4599  -13.6495 H   0  0  0  0  0  0  0  0  0  0  0  0
   40.7937   15.4342  -13.3636 C   0  0  0  0  0  0  0  0  0  0  0  0
   41.7792   16.3408  -12.6838 C   0  0  0  0  0  0  0  0  0  0  0  0
   41.2079   13.9911  -13.2694 C   0  0  0  0  0  0  0  0  0  0  0  0
   41.0715   12.2638  -17.2219 C   0  0  0  0  0  0  0  0  0  0  0  0
   42.2689   12.5402  -16.5961 C   0  0  0  0  0  0  0  0  0  0  0  0
   42.3132   13.0917  -15.3262 C   0  0  0  0  0  0  0  0  0  0  0  0
   41.1563   13.3901  -14.6289 C   0  0  0  0  0  0  0  0  0  0  0  0
   39.9566   13.1139  -15.2543 C   0  0  0  0  0  0  0  0  0  0  0  0
   39.9208   12.5627  -16.5234 C   0  0  0  0  0  0  0  0  0  0  0  0
   39.7799   11.3028  -19.0753 C   0  0  0  0  0  0  0  0  0  0  0  0
   41.0006   11.7091  -18.4984 O   0  0  0  0  0  0  0  0  0  0  0  0
 26 27  1  0  0  0
 27 20  1  0  0  0
 20 21  2  0  0  0
 21 22  1  0  0  0
 22 23  2  0  0  0
 23 19  1  0  0  0
 19 17  1  0  0  0
 17 18  1  0  0  0
 17 15  1  0  0  0
 15  1  1  0  0  0
  1  2  1  0  0  0
  2  3  1  0  0  0
  2  5  1  0  0  0
  5  6  2  0  0  0
  6  7  1  0  0  0
  7  8  1  0  0  0
  7  9  2  0  0  0
  9 10  1  0  0  0
 10 11  1  0  0  0
 10 12  2  0  0  0
 23 24  1  0  0  0
 24 25  2  0  0  0
 25 20  1  0  0  0
 12  5  1  0  0  0
 15 16  1  0  0  0
  3  4  1  0  0  0
  8 13  1  0  0  0
 11 14  1  0  0  0
M  END
> <minimizedAffinity>
-6.88721

> <CNNscore>
0.3786440194

> <CNNaffinity>
5.8162670135

> <CNN_VS>
2.2022948265

> <CNNaffinity_variance>
0.2003330737

$$$$
[H]Oc1c([H])c(O[H])c([H])c([C@@]([H])(O[H])C([H])([H])N([H])[C@@]([H])(C([H])([H])[H])C([H])([H])c2c([H])c([H])c(OC([H])([H])[H])c([H])c2[H])c1[H]


 27 28  0  0  0  0  0  0  0  0999 V2000
   34.6948   14.1562  -12.7519 C   0  0  0  0  0  0  0  0  0  0  0  0
   34.0724   14.0134  -14.0962 C   0  0  0  0  0  0  0  0  0  0  0  0
   32.7327   13.5014  -13.9280 O   0  0  0  0  0  0  0  0  0  0  0  0
   32.1431   14.2132  -14.2246 H   0  0  0  0  0  0  0  0  0  0  0  0
   34.7144   12.9867  -14.9771 C   0  0  0  0  0  0  0  0  0  0  0  0
   34.0394   11.9515  -15.5531 C   0  0  0  0  0  0  0  0  0  0  0  0
   34.6779   11.0145  -16.3730 C   0  0  0  0  0  0  0  0  0  0  0  0
   34.0070    9.9581  -16.9649 O   0  0  0  0  0  0  0  0  0  0  0  0
   36.0242   11.1556  -16.5947 C   0  0  0  0  0  0  0  0  0  0  0  0
   36.7561   12.1764  -16.0429 C   0  0  0  0  0  0  0  0  0  0  0  0
   38.1178   12.2864  -16.2910 O   0  0  0  0  0  0  0  0  0  0  0  0
   36.0851   13.0757  -15.2419 C   0  0  0  0  0  0  0  0  0  0  0  0
   33.6151   10.1601  -17.8984 H   0  0  0  0  0  0  0  0  0  0  0  0
   38.3567   12.8524  -17.1194 H   0  0  0  0  0  0  0  0  0  0  0  0
   34.8968   15.4166  -12.2007 N   0  0  0  0  0  0  0  0  0  0  0  0
   34.7924   16.2233  -12.8663 H   0  0  0  0  0  0  0  0  0  0  0  0
   35.6303   15.6636  -11.0503 C   0  0  0  0  0  0  0  0  0  0  0  0
   34.7758   15.9881   -9.8587 C   0  0  0  0  0  0  0  0  0  0  0  0
   36.7100   14.6737  -10.7082 C   0  0  0  0  0  0  0  0  0  0  0  0
   40.4570   16.1456  -12.2632 C   0  0  0  0  0  0  0  0  0  0  0  0
   40.0273   16.4662  -10.9926 C   0  0  0  0  0  0  0  0  0  0  0  0
   38.8261   15.9915  -10.4919 C   0  0  0  0  0  0  0  0  0  0  0  0
   38.0035   15.1737  -11.2458 C   0  0  0  0  0  0  0  0  0  0  0  0
   38.4326   14.8519  -12.5182 C   0  0  0  0  0  0  0  0  0  0  0  0
   39.6341   15.3303  -13.0112 C   0  0  0  0  0  0  0  0  0  0  0  0
   42.9028   16.3399  -12.1791 C   0  0  0  0  0  0  0  0  0  0  0  0
   41.6609   16.6102  -12.7894 O   0  0  0  0  0  0  0  0  0  0  0  0
 26 27  1  0  0  0
 27 20  1  0  0  0
 20 21  2  0  0  0
 21 22  1  0  0  0
 22 23  2  0  0  0
 23 19  1  0  0  0
 19 17  1  0  0  0
 17 18  1  0  0  0
 17 15  1  0  0  0
 15  1  1  0  0  0
  1  2  1  0  0  0
  2  3  1  0  0  0
  2  5  1  0  0  0
  5  6  2  0  0  0
  6  7  1  0  0  0
  7  8  1  0  0  0
  7  9  2  0  0  0
  9 10  1  0  0  0
 10 11  1  0  0  0
 10 12  2  0  0  0
 23 24  1  0  0  0
 24 25  2  0  0  0
 25 20  1  0  0  0
 12  5  1  0  0  0
 15 16  1  0  0  0
  3  4  1  0  0  0
  8 13  1  0  0  0
 11 14  1  0  0  0
M  END
> <minimizedAffinity>
-7.15257

> <CNNscore>
0.3521057963

> <CNNaffinity>
5.1394619942

> <CNN_VS>
1.8096343279

> <CNNaffinity_variance>
0.1737253368

$$$$
[H]Oc1c([H])c(O[H])c([H])c([C@@]([H])(O[H])C([H])([H])N([H])[C@@]([H])(C([H])([H])[H])C([H])([H])c2c([H])c([H])c(OC([H])([H])[H])c([H])c2[H])c1[H]


 27 28  0  0  0  0  0  0  0  0999 V2000
   35.9889   14.7770  -11.0900 C   0  0  0  0  0  0  0  0  0  0  0  0
   36.6392   16.0272  -10.6110 C   0  0  0  0  0  0  0  0  0  0  0  0
   36.2360   17.1121  -11.4745 O   0  0  0  0  0  0  0  0  0  0  0  0
   35.7068   17.7052  -10.9171 H   0  0  0  0  0  0  0  0  0  0  0  0
   38.1317   16.0416  -10.7308 C   0  0  0  0  0  0  0  0  0  0  0  0
   38.9749   16.2804   -9.6864 C   0  0  0  0  0  0  0  0  0  0  0  0
   40.3656   16.2820   -9.8413 C   0  0  0  0  0  0  0  0  0  0  0  0
   41.2350   16.5228   -8.7912 O   0  0  0  0  0  0  0  0  0  0  0  0
   40.8808   16.0336  -11.0881 C   0  0  0  0  0  0  0  0  0  0  0  0
   40.0828   15.7864  -12.1762 C   0  0  0  0  0  0  0  0  0  0  0  0
   40.6415   15.5385  -13.4230 O   0  0  0  0  0  0  0  0  0  0  0  0
   38.7187   15.7950  -11.9764 C   0  0  0  0  0  0  0  0  0  0  0  0
   41.5285   15.6826   -8.2681 H   0  0  0  0  0  0  0  0  0  0  0  0
   40.8383   14.5441  -13.6128 H   0  0  0  0  0  0  0  0  0  0  0  0
   35.3478   14.7459  -12.3234 N   0  0  0  0  0  0  0  0  0  0  0  0
   34.9626   15.6653  -12.6563 H   0  0  0  0  0  0  0  0  0  0  0  0
   34.7975   13.6089  -12.8952 C   0  0  0  0  0  0  0  0  0  0  0  0
   34.2721   13.8365  -14.2836 C   0  0  0  0  0  0  0  0  0  0  0  0
   35.6078   12.3446  -12.8069 C   0  0  0  0  0  0  0  0  0  0  0  0
   38.5029   12.3479  -16.0074 C   0  0  0  0  0  0  0  0  0  0  0  0
   38.8296   12.7776  -14.7383 C   0  0  0  0  0  0  0  0  0  0  0  0
   37.9016   12.7739  -13.7100 C   0  0  0  0  0  0  0  0  0  0  0  0
   36.6041   12.3382  -13.9113 C   0  0  0  0  0  0  0  0  0  0  0  0
   36.2756   11.9077  -15.1814 C   0  0  0  0  0  0  0  0  0  0  0  0
   37.2086   11.9145  -16.2036 C   0  0  0  0  0  0  0  0  0  0  0  0
   39.6792   11.1857  -17.8218 C   0  0  0  0  0  0  0  0  0  0  0  0
   39.4183   12.3419  -17.0582 O   0  0  0  0  0  0  0  0  0  0  0  0
 26 27  1  0  0  0
 27 20  1  0  0  0
 20 21  2  0  0  0
 21 22  1  0  0  0
 22 23  2  0  0  0
 23 19  1  0  0  0
 19 17  1  0  0  0
 17 18  1  0  0  0
 17 15  1  0  0  0
 15  1  1  0  0  0
  1  2  1  0  0  0
  2  3  1  0  0  0
  2  5  1  0  0  0
  5  6  2  0  0  0
  6  7  1  0  0  0
  7  8  1  0  0  0
  7  9  2  0  0  0
  9 10  1  0  0  0
 10 11  1  0  0  0
 10 12  2  0  0  0
 23 24  1  0  0  0
 24 25  2  0  0  0
 25 20  1  0  0  0
 12  5  1  0  0  0
 15 16  1  0  0  0
  3  4  1  0  0  0
  8 13  1  0  0  0
 11 14  1  0  0  0
M  END
> <minimizedAffinity>
-7.03585

> <CNNscore>
0.3291385174

> <CNNaffinity>
5.2864017487

> <CNN_VS>
1.7399584055

> <CNNaffinity_variance>
0.0800131261

$$$$
[H]Oc1c([H])c(O[H])c([H])c([C@@]([H])(O[H])C([H])([H])N([H])[C@@]([H])(C([H])([H])[H])C([H])([H])c2c([H])c([H])c(OC([H])([H])[H])c([H])c2[H])c1[H]


 27 28  0  0  0  0  0  0  0  0999 V2000
   38.8840   15.1143  -12.9322 C   0  0  0  0  0  0  0  0  0  0  0  0
   40.3716   15.1091  -12.8863 C   0  0  0  0  0  0  0  0  0  0  0  0
   40.8407   16.4570  -13.1064 O   0  0  0  0  0  0  0  0  0  0  0  0
   41.2624   16.7247  -12.2740 H   0  0  0  0  0  0  0  0  0  0  0  0
   41.0290   14.3418  -13.9915 C   0  0  0  0  0  0  0  0  0  0  0  0
   42.3522   14.0134  -14.0051 C   0  0  0  0  0  0  0  0  0  0  0  0
   42.9266   13.2919  -15.0574 C   0  0  0  0  0  0  0  0  0  0  0  0
   44.2679   12.9510  -15.0862 O   0  0  0  0  0  0  0  0  0  0  0  0
   42.1205   12.9104  -16.0997 C   0  0  0  0  0  0  0  0  0  0  0  0
   40.7827   13.2113  -16.1414 C   0  0  0  0  0  0  0  0  0  0  0  0
   39.9986   12.8071  -17.2137 O   0  0  0  0  0  0  0  0  0  0  0  0
   40.2604   13.9237  -15.0830 C   0  0  0  0  0  0  0  0  0  0  0  0
   44.4955   12.0435  -14.6496 H   0  0  0  0  0  0  0  0  0  0  0  0
   39.5653   11.8783  -17.0999 H   0  0  0  0  0  0  0  0  0  0  0  0
   38.1468   14.5358  -11.9050 N   0  0  0  0  0  0  0  0  0  0  0  0
   38.7000   13.9661  -11.2165 H   0  0  0  0  0  0  0  0  0  0  0  0
   36.7871   14.2711  -11.9654 C   0  0  0  0  0  0  0  0  0  0  0  0
   36.0705   14.5433  -10.6740 C   0  0  0  0  0  0  0  0  0  0  0  0
   36.0389   14.8284  -13.1455 C   0  0  0  0  0  0  0  0  0  0  0  0
   34.8281   11.5709  -15.7042 C   0  0  0  0  0  0  0  0  0  0  0  0
   35.9926   12.2734  -15.9326 C   0  0  0  0  0  0  0  0  0  0  0  0
   36.3832   13.3171  -15.1098 C   0  0  0  0  0  0  0  0  0  0  0  0
   35.6209   13.7011  -14.0211 C   0  0  0  0  0  0  0  0  0  0  0  0
   34.4547   12.9985  -13.7913 C   0  0  0  0  0  0  0  0  0  0  0  0
   34.0713   11.9569  -14.6181 C   0  0  0  0  0  0  0  0  0  0  0  0
   33.2561   10.5957  -17.3182 C   0  0  0  0  0  0  0  0  0  0  0  0
   34.4137   10.5174  -16.5170 O   0  0  0  0  0  0  0  0  0  0  0  0
 26 27  1  0  0  0
 27 20  1  0  0  0
 20 21  2  0  0  0
 21 22  1  0  0  0
 22 23  2  0  0  0
 23 19  1  0  0  0
 19 17  1  0  0  0
 17 18  1  0  0  0
 17 15  1  0  0  0
 15  1  1  0  0  0
  1  2  1  0  0  0
  2  3  1  0  0  0
  2  5  1  0  0  0
  5  6  2  0  0  0
  6  7  1  0  0  0
  7  8  1  0  0  0
  7  9  2  0  0  0
  9 10  1  0  0  0
 10 11  1  0  0  0
 10 12  2  0  0  0
 23 24  1  0  0  0
 24 25  2  0  0  0
 25 20  1  0  0  0
 12  5  1  0  0  0
 15 16  1  0  0  0
  3  4  1  0  0  0
  8 13  1  0  0  0
 11 14  1  0  0  0
M  END
> <minimizedAffinity>
-7.07519

> <CNNscore>
0.3279238343

> <CNNaffinity>
5.5421085358

> <CNN_VS>
1.8173894882

> <CNNaffinity_variance>
0.0536033697

$$$$
[H]c1nc(N2C([H])([H])C([H])([H])C(N3C([H])([H])C([H])([H])OC([H])([H])C3([H])[H])(C([H])(C([H])([H])[H])C([H])([H])[H])C([H])([H])C2([H])[H])c([H])c2c1C(=O)c1c(n([H])c3c([H])c(C#N)c([H])c([H])c13)C2(C([H])([H])[H])C([H])([H])[H]


 38 43  0  0  0  0  0  0  0  0999 V2000
   42.9864   14.3282  -13.9553 C   0  0  0  0  0  0  0  0  0  0  0  0
   41.6549   14.4737  -13.6662 C   0  0  0  0  0  0  0  0  0  0  0  0
   40.6692   13.7790  -14.3809 C   0  0  0  0  0  0  0  0  0  0  0  0
   41.0865   12.9442  -15.3849 C   0  0  0  0  0  0  0  0  0  0  0  0
   42.4377   12.8147  -15.6574 C   0  0  0  0  0  0  0  0  0  0  0  0
   43.3487   13.4987  -14.9486 N   0  0  0  0  0  0  0  0  0  0  0  0
   40.1058   12.1994  -16.1570 C   0  0  0  0  0  0  0  0  0  0  0  0
   40.4822   11.4250  -17.0876 O   0  0  0  0  0  0  0  0  0  0  0  0
   38.6977   12.3557  -15.8470 C   0  0  0  0  0  0  0  0  0  0  0  0
   38.3295   13.2039  -14.8318 C   0  0  0  0  0  0  0  0  0  0  0  0
   36.9707   13.1874  -14.7267 N   0  0  0  0  0  0  0  0  0  0  0  0
   36.4587   12.3457  -15.6542 C   0  0  0  0  0  0  0  0  0  0  0  0
   35.1621   11.9756  -15.9644 C   0  0  0  0  0  0  0  0  0  0  0  0
   34.9376   11.0806  -16.9798 C   0  0  0  0  0  0  0  0  0  0  0  0
   36.0248   10.5760  -17.6626 C   0  0  0  0  0  0  0  0  0  0  0  0
   37.3160   10.9426  -17.3562 C   0  0  0  0  0  0  0  0  0  0  0  0
   37.5366   11.8323  -16.3466 C   0  0  0  0  0  0  0  0  0  0  0  0
   39.2667   13.9800  -14.0186 C   0  0  0  0  0  0  0  0  0  0  0  0
   39.0202   13.5843  -12.5561 C   0  0  0  0  0  0  0  0  0  0  0  0
   38.8381   15.4433  -14.1141 C   0  0  0  0  0  0  0  0  0  0  0  0
   36.3817   13.7173  -14.0592 H   0  0  0  0  0  0  0  0  0  0  0  0
   46.2697   16.5817  -12.0489 C   0  0  0  0  0  0  0  0  0  0  0  0
   46.3559   15.2393  -12.8064 C   0  0  0  0  0  0  0  0  0  0  0  0
   45.1458   14.3796  -12.6325 C   0  0  0  0  0  0  0  0  0  0  0  0
   43.9966   15.0362  -13.2247 N   0  0  0  0  0  0  0  0  0  0  0  0
   43.9421   16.4786  -13.0205 C   0  0  0  0  0  0  0  0  0  0  0  0
   44.7863   16.7399  -11.7909 C   0  0  0  0  0  0  0  0  0  0  0  0
   46.7986   17.5355  -12.9207 N   0  0  0  0  0  0  0  0  0  0  0  0
   47.5657   17.2670  -14.0241 C   0  0  0  0  0  0  0  0  0  0  0  0
   48.7818   18.1548  -14.1311 C   0  0  0  0  0  0  0  0  0  0  0  0
   48.5419   19.4637  -13.8089 O   0  0  0  0  0  0  0  0  0  0  0  0
   47.9313   19.6004  -12.5585 C   0  0  0  0  0  0  0  0  0  0  0  0
   46.5899   18.9045  -12.6649 C   0  0  0  0  0  0  0  0  0  0  0  0
   48.5352   16.4108  -10.9326 C   0  0  0  0  0  0  0  0  0  0  0  0
   47.0178   16.5056  -10.7601 C   0  0  0  0  0  0  0  0  0  0  0  0
   46.8141   17.5958   -9.7683 C   0  0  0  0  0  0  0  0  0  0  0  0
   33.5835   10.6678  -17.3339 C   0  0  0  0  0  0  0  0  0  0  0  0
   32.5053   10.3458  -17.5984 N   0  0  0  0  0  0  0  0  0  0  0  0
 34 35  1  0  0  0
 35 36  1  0  0  0
 35 22  1  0  0  0
 22 28  1  0  0  0
 28 29  1  0  0  0
 29 30  1  0  0  0
 30 31  1  0  0  0
 31 32  1  0  0  0
 32 33  1  0  0  0
 22 23  1  0  0  0
 23 24  1  0  0  0
 24 25  1  0  0  0
 25  1  1  0  0  0
  1  2  2  0  0  0
  2  3  1  0  0  0
  3  4  2  0  0  0
  4  5  1  0  0  0
  5  6  2  0  0  0
  4  7  1  0  0  0
  7  8  2  0  0  0
  7  9  1  0  0  0
  9 10  2  0  0  0
 10 11  1  0  0  0
 11 12  1  0  0  0
 12 13  2  0  0  0
 13 14  1  0  0  0
 14 37  1  0  0  0
 37 38  3  0  0  0
 14 15  2  0  0  0
 15 16  1  0  0  0
 16 17  2  0  0  0
 10 18  1  0  0  0
 18 19  1  0  0  0
 18 20  1  0  0  0
 25 26  1  0  0  0
 26 27  1  0  0  0
 27 22  1  0  0  0
 33 28  1  0  0  0
  6  1  1  0  0  0
 17  9  1  0  0  0
 18  3  1  0  0  0
 17 12  1  0  0  0
 11 21  1  0  0  0
M  END
> <minimizedAffinity>
-7.28976

> <CNNscore>
0.3616934121

> <CNNaffinity>
6.9298186302

> <CNN_VS>
2.5064697266

> <CNNaffinity_variance>
0.5674349666

$$$$
[H]c1nc(N2C([H])([H])C([H])([H])C(N3C([H])([H])C([H])([H])OC([H])([H])C3([H])[H])(C([H])(C([H])([H])[H])C([H])([H])[H])C([H])([H])C2([H])[H])c([H])c2c1C(=O)c1c(n([H])c3c([H])c(C#N)c([H])c([H])c13)C2(C([H])([H])[H])C([H])([H])[H]


 38 43  0  0  0  0  0  0  0  0999 V2000
   36.0331   15.3602   -9.7677 C   0  0  0  0  0  0  0  0  0  0  0  0
   35.6413   14.5327  -10.7874 C   0  0  0  0  0  0  0  0  0  0  0  0
   36.4986   14.2258  -11.8532 C   0  0  0  0  0  0  0  0  0  0  0  0
   37.7497   14.7857  -11.8395 C   0  0  0  0  0  0  0  0  0  0  0  0
   38.1214   15.6185  -10.7978 C   0  0  0  0  0  0  0  0  0  0  0  0
   37.2694   15.8863   -9.7966 N   0  0  0  0  0  0  0  0  0  0  0  0
   38.6788   14.5000  -12.9202 C   0  0  0  0  0  0  0  0  0  0  0  0
   39.8381   15.0133  -12.9163 O   0  0  0  0  0  0  0  0  0  0  0  0
   38.2602   13.6231  -13.9968 C   0  0  0  0  0  0  0  0  0  0  0  0
   36.9967   13.0865  -13.9655 C   0  0  0  0  0  0  0  0  0  0  0  0
   36.8322   12.3043  -15.0694 N   0  0  0  0  0  0  0  0  0  0  0  0
   37.9648   12.3277  -15.8093 C   0  0  0  0  0  0  0  0  0  0  0  0
   38.3147   11.7165  -17.0002 C   0  0  0  0  0  0  0  0  0  0  0  0
   39.5634   11.9271  -17.5285 C   0  0  0  0  0  0  0  0  0  0  0  0
   40.4350   12.7498  -16.8457 C   0  0  0  0  0  0  0  0  0  0  0  0
   40.0895   13.3593  -15.6605 C   0  0  0  0  0  0  0  0  0  0  0  0
   38.8479   13.1485  -15.1376 C   0  0  0  0  0  0  0  0  0  0  0  0
   36.0164   13.3344  -12.9074 C   0  0  0  0  0  0  0  0  0  0  0  0
   35.6306   11.9659  -12.3288 C   0  0  0  0  0  0  0  0  0  0  0  0
   34.7486   13.8540  -13.5834 C   0  0  0  0  0  0  0  0  0  0  0  0
   35.9928   11.7604  -15.3396 H   0  0  0  0  0  0  0  0  0  0  0  0
   33.4462   16.7014   -6.4509 C   0  0  0  0  0  0  0  0  0  0  0  0
   34.9881   16.7316   -6.5227 C   0  0  0  0  0  0  0  0  0  0  0  0
   35.5704   15.5875   -7.2880 C   0  0  0  0  0  0  0  0  0  0  0  0
   35.1590   15.6742   -8.6756 N   0  0  0  0  0  0  0  0  0  0  0  0
   33.7817   16.1058   -8.8809 C   0  0  0  0  0  0  0  0  0  0  0  0
   33.0640   15.7784   -7.5884 C   0  0  0  0  0  0  0  0  0  0  0  0
   33.0392   18.0245   -6.6329 N   0  0  0  0  0  0  0  0  0  0  0  0
   33.8473   19.1268   -6.5335 C   0  0  0  0  0  0  0  0  0  0  0  0
   33.2296   20.2441   -5.7282 C   0  0  0  0  0  0  0  0  0  0  0  0
   31.8970   20.4352   -5.9775 O   0  0  0  0  0  0  0  0  0  0  0  0
   31.1569   19.2562   -5.8468 C   0  0  0  0  0  0  0  0  0  0  0  0
   31.6858   18.3061   -6.9015 C   0  0  0  0  0  0  0  0  0  0  0  0
   32.8231   14.6157   -5.1587 C   0  0  0  0  0  0  0  0  0  0  0  0
   32.9931   16.1363   -5.1463 C   0  0  0  0  0  0  0  0  0  0  0  0
   33.8157   16.4181   -3.9390 C   0  0  0  0  0  0  0  0  0  0  0  0
   39.9662   11.2986  -18.7824 C   0  0  0  0  0  0  0  0  0  0  0  0
   40.2731   10.7882  -19.7731 N   0  0  0  0  0  0  0  0  0  0  0  0
 34 35  1  0  0  0
 35 36  1  0  0  0
 35 22  1  0  0  0
 22 28  1  0  0  0
 28 29  1  0  0  0
 29 30  1  0  0  0
 30 31  1  0  0  0
 31 32  1  0  0  0
 32 33  1  0  0  0
 22 23  1  0  0  0
 23 24  1  0  0  0
 24 25  1  0  0  0
 25  1  1  0  0  0
  1  2  2  0  0  0
  2  3  1  0  0  0
  3  4  2  0  0  0
  4  5  1  0  0  0
  5  6  2  0  0  0
  4  7  1  0  0  0
  7  8  2  0  0  0
  7  9  1  0  0  0
  9 10  2  0  0  0
 10 11  1  0  0  0
 11 12  1  0  0  0
 12 13  2  0  0  0
 13 14  1  0  0  0
 14 37  1  0  0  0
 37 38  3  0  0  0
 14 15  2  0  0  0
 15 16  1  0  0  0
 16 17  2  0  0  0
 10 18  1  0  0  0
 18 19  1  0  0  0
 18 20  1  0  0  0
 25 26  1  0  0  0
 26 27  1  0  0  0
 27 22  1  0  0  0
 33 28  1  0  0  0
  6  1  1  0  0  0
 17  9  1  0  0  0
 18  3  1  0  0  0
 17 12  1  0  0  0
 11 21  1  0  0  0
M  END
> <minimizedAffinity>
-8.54862

> <CNNscore>
0.3467182219

> <CNNaffinity>
6.8800873756

> <CNN_VS>
2.3854515553

> <CNNaffinity_variance>
0.2020676434

$$$$
[H]c1nc(N2C([H])([H])C([H])([H])C(N3C([H])([H])C([H])([H])OC([H])([H])C3([H])[H])(C([H])(C([H])([H])[H])C([H])([H])[H])C([H])([H])C2([H])[H])c([H])c2c1C(=O)c1c(n([H])c3c([H])c(C#N)c([H])c([H])c13)C2(C([H])([H])[H])C([H])([H])[H]


 38 43  0  0  0  0  0  0  0  0999 V2000
   43.3393   16.3975   -9.6792 C   0  0  0  0  0  0  0  0  0  0  0  0
   43.8865   15.6873  -10.7155 C   0  0  0  0  0  0  0  0  0  0  0  0
   43.0953   15.1810  -11.7560 C   0  0  0  0  0  0  0  0  0  0  0  0
   41.7472   15.4229  -11.7002 C   0  0  0  0  0  0  0  0  0  0  0  0
   41.2188   16.1431  -10.6424 C   0  0  0  0  0  0  0  0  0  0  0  0
   42.0124   16.6099   -9.6664 N   0  0  0  0  0  0  0  0  0  0  0  0
   40.8809   14.9211  -12.7539 C   0  0  0  0  0  0  0  0  0  0  0  0
   39.6328   15.1396  -12.7108 O   0  0  0  0  0  0  0  0  0  0  0  0
   41.4645   14.1706  -13.8491 C   0  0  0  0  0  0  0  0  0  0  0  0
   42.8205   13.9546  -13.8603 C   0  0  0  0  0  0  0  0  0  0  0  0
   43.1338   13.2343  -14.9742 N   0  0  0  0  0  0  0  0  0  0  0  0
   42.0062   12.9832  -15.6786 C   0  0  0  0  0  0  0  0  0  0  0  0
   41.7766   12.3044  -16.8622 C   0  0  0  0  0  0  0  0  0  0  0  0
   40.4979   12.2071  -17.3503 C   0  0  0  0  0  0  0  0  0  0  0  0
   39.4758   12.7963  -16.6356 C   0  0  0  0  0  0  0  0  0  0  0  0
   39.7013   13.4723  -15.4577 C   0  0  0  0  0  0  0  0  0  0  0  0
   40.9729   13.5675  -14.9746 C   0  0  0  0  0  0  0  0  0  0  0  0
   43.7450   14.4330  -12.8316 C   0  0  0  0  0  0  0  0  0  0  0  0
   44.7918   15.3014  -13.5432 C   0  0  0  0  0  0  0  0  0  0  0  0
   44.5156   13.2168  -12.3206 C   0  0  0  0  0  0  0  0  0  0  0  0
   44.0707   12.9092  -15.2740 H   0  0  0  0  0  0  0  0  0  0  0  0
   46.0079   17.6541   -6.3941 C   0  0  0  0  0  0  0  0  0  0  0  0
   44.9136   16.5656   -6.3631 C   0  0  0  0  0  0  0  0  0  0  0  0
   43.7345   16.8829   -7.2250 C   0  0  0  0  0  0  0  0  0  0  0  0
   44.1465   16.9179   -8.6147 N   0  0  0  0  0  0  0  0  0  0  0  0
   45.4498   17.5262   -8.8527 C   0  0  0  0  0  0  0  0  0  0  0  0
   45.6947   18.4250   -7.6589 C   0  0  0  0  0  0  0  0  0  0  0  0
   47.2199   16.9623   -6.4371 N   0  0  0  0  0  0  0  0  0  0  0  0
   48.4548   17.5300   -6.6127 C   0  0  0  0  0  0  0  0  0  0  0  0
   49.3067   16.7966   -7.6201 C   0  0  0  0  0  0  0  0  0  0  0  0
   49.2253   15.4330   -7.5260 O   0  0  0  0  0  0  0  0  0  0  0  0
   47.9045   14.9753   -7.5602 C   0  0  0  0  0  0  0  0  0  0  0  0
   47.2237   15.5575   -6.3385 C   0  0  0  0  0  0  0  0  0  0  0  0
   45.3417   19.9334   -5.5171 C   0  0  0  0  0  0  0  0  0  0  0  0
   45.8971   18.5431   -5.2008 C   0  0  0  0  0  0  0  0  0  0  0  0
   45.0915   18.0646   -4.0451 C   0  0  0  0  0  0  0  0  0  0  0  0
   40.2192   11.4989  -18.5954 C   0  0  0  0  0  0  0  0  0  0  0  0
   39.9905   10.9523  -19.5879 N   0  0  0  0  0  0  0  0  0  0  0  0
 34 35  1  0  0  0
 35 36  1  0  0  0
 35 22  1  0  0  0
 22 28  1  0  0  0
 28 29  1  0  0  0
 29 30  1  0  0  0
 30 31  1  0  0  0
 31 32  1  0  0  0
 32 33  1  0  0  0
 22 23  1  0  0  0
 23 24  1  0  0  0
 24 25  1  0  0  0
 25  1  1  0  0  0
  1  2  2  0  0  0
  2  3  1  0  0  0
  3  4  2  0  0  0
  4  5  1  0  0  0
  5  6  2  0  0  0
  4  7  1  0  0  0
  7  8  2  0  0  0
  7  9  1  0  0  0
  9 10  2  0  0  0
 10 11  1  0  0  0
 11 12  1  0  0  0
 12 13  2  0  0  0
 13 14  1  0  0  0
 14 37  1  0  0  0
 37 38  3  0  0  0
 14 15  2  0  0  0
 15 16  1  0  0  0
 16 17  2  0  0  0
 10 18  1  0  0  0
 18 19  1  0  0  0
 18 20  1  0  0  0
 25 26  1  0  0  0
 26 27  1  0  0  0
 27 22  1  0  0  0
 33 28  1  0  0  0
  6  1  1  0  0  0
 17  9  1  0  0  0
 18  3  1  0  0  0
 17 12  1  0  0  0
 11 21  1  0  0  0
M  END
> <minimizedAffinity>
-6.94106

> <CNNscore>
0.2276418656

> <CNNaffinity>
6.1947607994

> <CNN_VS>
1.4101868868

> <CNNaffinity_variance>
0.2996575832

$$$$
[H]c1nc(N2C([H])([H])C([H])([H])C(N3C([H])([H])C([H])([H])OC([H])([H])C3([H])[H])(C([H])(C([H])([H])[H])C([H])([H])[H])C([H])([H])C2([H])[H])c([H])c2c1C(=O)c1c(n([H])c3c([H])c(C#N)c([H])c([H])c13)C2(C([H])([H])[H])C([H])([H])[H]


 38 43  0  0  0  0  0  0  0  0999 V2000
   36.2782   15.4616   -9.7563 C   0  0  0  0  0  0  0  0  0  0  0  0
   35.8420   14.6379  -10.7608 C   0  0  0  0  0  0  0  0  0  0  0  0
   36.6617   14.3128  -11.8504 C   0  0  0  0  0  0  0  0  0  0  0  0
   37.9222   14.8508  -11.8760 C   0  0  0  0  0  0  0  0  0  0  0  0
   38.3391   15.6803  -10.8489 C   0  0  0  0  0  0  0  0  0  0  0  0
   37.5220   15.9661   -9.8238 N   0  0  0  0  0  0  0  0  0  0  0  0
   38.8136   14.5456  -12.9827 C   0  0  0  0  0  0  0  0  0  0  0  0
   39.9812   15.0386  -13.0151 O   0  0  0  0  0  0  0  0  0  0  0  0
   38.3481   13.6727  -14.0432 C   0  0  0  0  0  0  0  0  0  0  0  0
   37.0769   13.1583  -13.9725 C   0  0  0  0  0  0  0  0  0  0  0  0
   36.8662   12.3756  -15.0682 N   0  0  0  0  0  0  0  0  0  0  0  0
   37.9765   12.3770  -15.8414 C   0  0  0  0  0  0  0  0  0  0  0  0
   38.2802   11.7560  -17.0400 C   0  0  0  0  0  0  0  0  0  0  0  0
   39.5161   11.9432  -17.6058 C   0  0  0  0  0  0  0  0  0  0  0  0
   40.4217   12.7527  -16.9522 C   0  0  0  0  0  0  0  0  0  0  0  0
   40.1222   13.3719  -15.7596 C   0  0  0  0  0  0  0  0  0  0  0  0
   38.8933   13.1844  -15.1992 C   0  0  0  0  0  0  0  0  0  0  0  0
   36.1330   13.4266  -12.8866 C   0  0  0  0  0  0  0  0  0  0  0  0
   35.7410   12.0669  -12.2919 C   0  0  0  0  0  0  0  0  0  0  0  0
   34.8549   13.9660  -13.5265 C   0  0  0  0  0  0  0  0  0  0  0  0
   36.0098   11.8456  -15.3113 H   0  0  0  0  0  0  0  0  0  0  0  0
   33.4035   16.4926   -6.5679 C   0  0  0  0  0  0  0  0  0  0  0  0
   33.8341   17.3572   -7.7722 C   0  0  0  0  0  0  0  0  0  0  0  0
   35.2603   17.1540   -8.1706 C   0  0  0  0  0  0  0  0  0  0  0  0
   35.4425   15.7943   -8.6399 N   0  0  0  0  0  0  0  0  0  0  0  0
   34.7101   14.7828   -7.8877 C   0  0  0  0  0  0  0  0  0  0  0  0
   34.4536   15.4027   -6.5302 C   0  0  0  0  0  0  0  0  0  0  0  0
   32.1216   16.0345   -6.8781 N   0  0  0  0  0  0  0  0  0  0  0  0
   31.4435   15.0510   -6.2065 C   0  0  0  0  0  0  0  0  0  0  0  0
   30.7893   14.0482   -7.1257 C   0  0  0  0  0  0  0  0  0  0  0  0
   30.1997   14.6087   -8.2270 O   0  0  0  0  0  0  0  0  0  0  0  0
   31.0747   15.4389   -8.9342 C   0  0  0  0  0  0  0  0  0  0  0  0
   31.4425   16.5661   -7.9914 C   0  0  0  0  0  0  0  0  0  0  0  0
   34.6863   17.0518   -4.4585 C   0  0  0  0  0  0  0  0  0  0  0  0
   33.4374   17.2929   -5.3090 C   0  0  0  0  0  0  0  0  0  0  0  0
   33.3307   18.7729   -5.4187 C   0  0  0  0  0  0  0  0  0  0  0  0
   39.8705   11.3038  -18.8688 C   0  0  0  0  0  0  0  0  0  0  0  0
   40.1345   10.7922  -19.8712 N   0  0  0  0  0  0  0  0  0  0  0  0
 34 35  1  0  0  0
 35 36  1  0  0  0
 35 22  1  0  0  0
 22 28  1  0  0  0
 28 29  1  0  0  0
 29 30  1  0  0  0
 30 31  1  0  0  0
 31 32  1  0  0  0
 32 33  1  0  0  0
 22 23  1  0  0  0
 23 24  1  0  0  0
 24 25  1  0  0  0
 25  1  1  0  0  0
  1  2  2  0  0  0
  2  3  1  0  0  0
  3  4  2  0  0  0
  4  5  1  0  0  0
  5  6  2  0  0  0
  4  7  1  0  0  0
  7  8  2  0  0  0
  7  9  1  0  0  0
  9 10  2  0  0  0
 10 11  1  0  0  0
 11 12  1  0  0  0
 12 13  2  0  0  0
 13 14  1  0  0  0
 14 37  1  0  0  0
 37 38  3  0  0  0
 14 15  2  0  0  0
 15 16  1  0  0  0
 16 17  2  0  0  0
 10 18  1  0  0  0
 18 19  1  0  0  0
 18 20  1  0  0  0
 25 26  1  0  0  0
 26 27  1  0  0  0
 27 22  1  0  0  0
 33 28  1  0  0  0
  6  1  1  0  0  0
 17  9  1  0  0  0
 18  3  1  0  0  0
 17 12  1  0  0  0
 11 21  1  0  0  0
M  END
> <minimizedAffinity>
-8.46668

> <CNNscore>
0.2150464654

> <CNNaffinity>
6.7008752823

> <CNN_VS>
1.4409995079

> <CNNaffinity_variance>
0.1419730335

$$$$
[H]c1nc(N2C([H])([H])C([H])([H])C(N3C([H])([H])C([H])([H])OC([H])([H])C3([H])[H])(C([H])(C([H])([H])[H])C([H])([H])[H])C([H])([H])C2([H])[H])c([H])c2c1C(=O)c1c(n([H])c3c([H])c(C#N)c([H])c([H])c13)C2(C([H])([H])[H])C([H])([H])[H]


 38 43  0  0  0  0  0  0  0  0999 V2000
   42.9249   14.3993  -14.0284 C   0  0  0  0  0  0  0  0  0  0  0  0
   41.5952   14.5248  -13.7218 C   0  0  0  0  0  0  0  0  0  0  0  0
   40.6104   13.8192  -14.4268 C   0  0  0  0  0  0  0  0  0  0  0  0
   41.0265   12.9944  -15.4395 C   0  0  0  0  0  0  0  0  0  0  0  0
   42.3758   12.8851  -15.7297 C   0  0  0  0  0  0  0  0  0  0  0  0
   43.2861   13.5789  -15.0297 N   0  0  0  0  0  0  0  0  0  0  0  0
   40.0466   12.2390  -16.2022 C   0  0  0  0  0  0  0  0  0  0  0  0
   40.4219   11.4738  -17.1408 O   0  0  0  0  0  0  0  0  0  0  0  0
   38.6405   12.3743  -15.8737 C   0  0  0  0  0  0  0  0  0  0  0  0
   38.2734   13.2131  -14.8504 C   0  0  0  0  0  0  0  0  0  0  0  0
   36.9165   13.1770  -14.7281 N   0  0  0  0  0  0  0  0  0  0  0  0
   36.4045   12.3319  -15.6524 C   0  0  0  0  0  0  0  0  0  0  0  0
   35.1093   11.9449  -15.9477 C   0  0  0  0  0  0  0  0  0  0  0  0
   34.8845   11.0509  -16.9639 C   0  0  0  0  0  0  0  0  0  0  0  0
   35.9698   10.5644  -17.6626 C   0  0  0  0  0  0  0  0  0  0  0  0
   37.2596   10.9479  -17.3711 C   0  0  0  0  0  0  0  0  0  0  0  0
   37.4805   11.8365  -16.3607 C   0  0  0  0  0  0  0  0  0  0  0  0
   39.2100   13.9990  -14.0459 C   0  0  0  0  0  0  0  0  0  0  0  0
   38.9877   13.5940  -12.5820 C   0  0  0  0  0  0  0  0  0  0  0  0
   38.7597   15.4565  -14.1298 C   0  0  0  0  0  0  0  0  0  0  0  0
   36.3287   13.6959  -14.0508 H   0  0  0  0  0  0  0  0  0  0  0  0
   46.1005   16.2846  -11.6089 C   0  0  0  0  0  0  0  0  0  0  0  0
   44.7296   15.7599  -11.1309 C   0  0  0  0  0  0  0  0  0  0  0  0
   43.6422   15.9298  -12.1421 C   0  0  0  0  0  0  0  0  0  0  0  0
   43.9343   15.1185  -13.3077 N   0  0  0  0  0  0  0  0  0  0  0  0
   45.3389   15.0881  -13.6972 C   0  0  0  0  0  0  0  0  0  0  0  0
   45.9423   16.3482  -13.1132 C   0  0  0  0  0  0  0  0  0  0  0  0
   47.0324   15.3392  -11.1761 N   0  0  0  0  0  0  0  0  0  0  0  0
   46.8177   14.3968  -10.2046 C   0  0  0  0  0  0  0  0  0  0  0  0
   47.9542   14.2947   -9.2163 C   0  0  0  0  0  0  0  0  0  0  0  0
   49.1952   14.3660   -9.7903 O   0  0  0  0  0  0  0  0  0  0  0  0
   49.3406   15.4930  -10.6049 C   0  0  0  0  0  0  0  0  0  0  0  0
   48.3300   15.3395  -11.7230 C   0  0  0  0  0  0  0  0  0  0  0  0
   46.6273   17.6558   -9.5472 C   0  0  0  0  0  0  0  0  0  0  0  0
   46.3637   17.6447  -11.0545 C   0  0  0  0  0  0  0  0  0  0  0  0
   47.4787   18.4354  -11.6423 C   0  0  0  0  0  0  0  0  0  0  0  0
   33.5318   10.6205  -17.3025 C   0  0  0  0  0  0  0  0  0  0  0  0
   32.4599   10.2701  -17.5560 N   0  0  0  0  0  0  0  0  0  0  0  0
 34 35  1  0  0  0
 35 36  1  0  0  0
 35 22  1  0  0  0
 22 28  1  0  0  0
 28 29  1  0  0  0
 29 30  1  0  0  0
 30 31  1  0  0  0
 31 32  1  0  0  0
 32 33  1  0  0  0
 22 23  1  0  0  0
 23 24  1  0  0  0
 24 25  1  0  0  0
 25  1  1  0  0  0
  1  2  2  0  0  0
  2  3  1  0  0  0
  3  4  2  0  0  0
  4  5  1  0  0  0
  5  6  2  0  0  0
  4  7  1  0  0  0
  7  8  2  0  0  0
  7  9  1  0  0  0
  9 10  2  0  0  0
 10 11  1  0  0  0
 11 12  1  0  0  0
 12 13  2  0  0  0
 13 14  1  0  0  0
 14 37  1  0  0  0
 37 38  3  0  0  0
 14 15  2  0  0  0
 15 16  1  0  0  0
 16 17  2  0  0  0
 10 18  1  0  0  0
 18 19  1  0  0  0
 18 20  1  0  0  0
 25 26  1  0  0  0
 26 27  1  0  0  0
 27 22  1  0  0  0
 33 28  1  0  0  0
  6  1  1  0  0  0
 17  9  1  0  0  0
 18  3  1  0  0  0
 17 12  1  0  0  0
 11 21  1  0  0  0
M  END
> <minimizedAffinity>
-6.70744

> <CNNscore>
0.2033963501

> <CNNaffinity>
6.7295751572

> <CNN_VS>
1.3687710762

> <CNNaffinity_variance>
0.2830709517

$$$$
[H]c1nc(N2C([H])([H])C([H])([H])C(N3C([H])([H])C([H])([H])OC([H])([H])C3([H])[H])(C([H])(C([H])([H])[H])C([H])([H])[H])C([H])([H])C2([H])[H])c([H])c2c1C(=O)c1c(n([H])c3c([H])c(C#N)c([H])c([H])c13)C2(C([H])([H])[H])C([H])([H])[H]


 38 43  0  0  0  0  0  0  0  0999 V2000
   42.9206   14.4148  -13.9058 C   0  0  0  0  0  0  0  0  0  0  0  0
   42.3833   13.7994  -15.0060 C   0  0  0  0  0  0  0  0  0  0  0  0
   41.0246   13.4598  -15.0657 C   0  0  0  0  0  0  0  0  0  0  0  0
   40.2478   13.7669  -13.9788 C   0  0  0  0  0  0  0  0  0  0  0  0
   40.8147   14.3888  -12.8794 C   0  0  0  0  0  0  0  0  0  0  0  0
   42.1205   14.6964  -12.8634 N   0  0  0  0  0  0  0  0  0  0  0  0
   38.8322   13.4374  -13.9887 C   0  0  0  0  0  0  0  0  0  0  0  0
   38.1058   13.7173  -12.9880 O   0  0  0  0  0  0  0  0  0  0  0  0
   38.2676   12.7868  -15.1554 C   0  0  0  0  0  0  0  0  0  0  0  0
   39.0867   12.4998  -16.2195 C   0  0  0  0  0  0  0  0  0  0  0  0
   38.3413   11.8961  -17.1877 N   0  0  0  0  0  0  0  0  0  0  0  0
   37.0598   11.7894  -16.7669 C   0  0  0  0  0  0  0  0  0  0  0  0
   35.9239   11.2644  -17.3573 C   0  0  0  0  0  0  0  0  0  0  0  0
   34.7321   11.2938  -16.6782 C   0  0  0  0  0  0  0  0  0  0  0  0
   34.7086   11.8519  -15.4170 C   0  0  0  0  0  0  0  0  0  0  0  0
   35.8373   12.3750  -14.8270 C   0  0  0  0  0  0  0  0  0  0  0  0
   37.0206   12.3446  -15.5039 C   0  0  0  0  0  0  0  0  0  0  0  0
   40.5170   12.8058  -16.2712 C   0  0  0  0  0  0  0  0  0  0  0  0
   40.7380   13.6917  -17.5052 C   0  0  0  0  0  0  0  0  0  0  0  0
   41.2442   11.4988  -16.5824 C   0  0  0  0  0  0  0  0  0  0  0  0
   38.6616   11.5569  -18.1128 H   0  0  0  0  0  0  0  0  0  0  0  0
   47.0841   15.8574  -13.6284 C   0  0  0  0  0  0  0  0  0  0  0  0
   46.0133   16.2461  -14.6704 C   0  0  0  0  0  0  0  0  0  0  0  0
   45.0839   15.1272  -15.0138 C   0  0  0  0  0  0  0  0  0  0  0  0
   44.3095   14.7647  -13.8428 N   0  0  0  0  0  0  0  0  0  0  0  0
   45.0515   14.7808  -12.5880 C   0  0  0  0  0  0  0  0  0  0  0  0
   46.5046   14.6173  -12.9815 C   0  0  0  0  0  0  0  0  0  0  0  0
   47.1813   16.9530  -12.7683 N   0  0  0  0  0  0  0  0  0  0  0  0
   46.3845   18.0673  -12.8055 C   0  0  0  0  0  0  0  0  0  0  0  0
   47.1622   19.3562  -12.6945 C   0  0  0  0  0  0  0  0  0  0  0  0
   48.1775   19.3131  -11.7768 O   0  0  0  0  0  0  0  0  0  0  0  0
   49.0347   18.2278  -11.9825 C   0  0  0  0  0  0  0  0  0  0  0  0
   48.1937   16.9826  -11.7900 C   0  0  0  0  0  0  0  0  0  0  0  0
   48.5005   14.0791  -14.7417 C   0  0  0  0  0  0  0  0  0  0  0  0
   48.3780   15.5389  -14.2999 C   0  0  0  0  0  0  0  0  0  0  0  0
   48.7570   16.3334  -15.4994 C   0  0  0  0  0  0  0  0  0  0  0  0
   33.5145   10.7493  -17.2703 C   0  0  0  0  0  0  0  0  0  0  0  0
   32.5595   10.3121  -17.7530 N   0  0  0  0  0  0  0  0  0  0  0  0
 34 35  1  0  0  0
 35 36  1  0  0  0
 35 22  1  0  0  0
 22 28  1  0  0  0
 28 29  1  0  0  0
 29 30  1  0  0  0
 30 31  1  0  0  0
 31 32  1  0  0  0
 32 33  1  0  0  0
 22 23  1  0  0  0
 23 24  1  0  0  0
 24 25  1  0  0  0
 25  1  1  0  0  0
  1  2  2  0  0  0
  2  3  1  0  0  0
  3  4  2  0  0  0
  4  5  1  0  0  0
  5  6  2  0  0  0
  4  7  1  0  0  0
  7  8  2  0  0  0
  7  9  1  0  0  0
  9 10  2  0  0  0
 10 11  1  0  0  0
 11 12  1  0  0  0
 12 13  2  0  0  0
 13 14  1  0  0  0
 14 37  1  0  0  0
 37 38  3  0  0  0
 14 15  2  0  0  0
 15 16  1  0  0  0
 16 17  2  0  0  0
 10 18  1  0  0  0
 18 19  1  0  0  0
 18 20  1  0  0  0
 25 26  1  0  0  0
 26 27  1  0  0  0
 27 22  1  0  0  0
 33 28  1  0  0  0
  6  1  1  0  0  0
 17  9  1  0  0  0
 18  3  1  0  0  0
 17 12  1  0  0  0
 11 21  1  0  0  0
M  END
> <minimizedAffinity>
-7.68154

> <CNNscore>
0.2011001110

> <CNNaffinity>
6.7723031044

> <CNN_VS>
1.3619109392

> <CNNaffinity_variance>
0.3000668883

$$$$
[H]c1nc(N2C([H])([H])C([H])([H])C(N3C([H])([H])C([H])([H])OC([H])([H])C3([H])[H])(C([H])(C([H])([H])[H])C([H])([H])[H])C([H])([H])C2([H])[H])c([H])c2c1C(=O)c1c(n([H])c3c([H])c(C#N)c([H])c([H])c13)C2(C([H])([H])[H])C([H])([H])[H]


 38 43  0  0  0  0  0  0  0  0999 V2000
   36.2708   16.0702   -9.6844 C   0  0  0  0  0  0  0  0  0  0  0  0
   35.8596   15.2038  -10.6632 C   0  0  0  0  0  0  0  0  0  0  0  0
   36.7100   14.8238  -11.7108 C   0  0  0  0  0  0  0  0  0  0  0  0
   37.9747   15.3523  -11.7217 C   0  0  0  0  0  0  0  0  0  0  0  0
   38.3661   16.2256  -10.7212 C   0  0  0  0  0  0  0  0  0  0  0  0
   37.5199   16.5633   -9.7362 N   0  0  0  0  0  0  0  0  0  0  0  0
   38.8975   14.9909  -12.7849 C   0  0  0  0  0  0  0  0  0  0  0  0
   40.0692   15.4747  -12.8035 O   0  0  0  0  0  0  0  0  0  0  0  0
   38.4583   14.0730  -13.8183 C   0  0  0  0  0  0  0  0  0  0  0  0
   37.1816   13.5703  -13.7637 C   0  0  0  0  0  0  0  0  0  0  0  0
   36.9988   12.7393  -14.8284 N   0  0  0  0  0  0  0  0  0  0  0  0
   38.1324   12.6983  -15.5659 C   0  0  0  0  0  0  0  0  0  0  0  0
   38.4682   12.0209  -16.7248 C   0  0  0  0  0  0  0  0  0  0  0  0
   39.7223   12.1742  -17.2598 C   0  0  0  0  0  0  0  0  0  0  0  0
   40.6135   13.0073  -16.6161 C   0  0  0  0  0  0  0  0  0  0  0  0
   40.2821   13.6826  -15.4630 C   0  0  0  0  0  0  0  0  0  0  0  0
   39.0351   13.5287  -14.9332 C   0  0  0  0  0  0  0  0  0  0  0  0
   36.2067   13.8941  -12.7212 C   0  0  0  0  0  0  0  0  0  0  0  0
   35.7862   12.5657  -12.0773 C   0  0  0  0  0  0  0  0  0  0  0  0
   34.9531   14.4114  -13.4247 C   0  0  0  0  0  0  0  0  0  0  0  0
   36.1463   12.2040  -15.0736 H   0  0  0  0  0  0  0  0  0  0  0  0
   33.7872   17.0058   -6.1561 C   0  0  0  0  0  0  0  0  0  0  0  0
   33.8380   15.6870   -6.9572 C   0  0  0  0  0  0  0  0  0  0  0  0
   34.0853   15.8873   -8.4175 C   0  0  0  0  0  0  0  0  0  0  0  0
   35.4037   16.4590   -8.6110 N   0  0  0  0  0  0  0  0  0  0  0  0
   35.7854   17.4661   -7.6285 C   0  0  0  0  0  0  0  0  0  0  0  0
   34.4805   17.9937   -7.0701 C   0  0  0  0  0  0  0  0  0  0  0  0
   34.4786   16.7480   -4.9708 N   0  0  0  0  0  0  0  0  0  0  0  0
   34.8203   17.6832   -4.0291 C   0  0  0  0  0  0  0  0  0  0  0  0
   36.2472   17.5524   -3.5542 C   0  0  0  0  0  0  0  0  0  0  0  0
   36.6502   16.2581   -3.3615 O   0  0  0  0  0  0  0  0  0  0  0  0
   36.4214   15.4569   -4.4843 C   0  0  0  0  0  0  0  0  0  0  0  0
   34.9210   15.4403   -4.6930 C   0  0  0  0  0  0  0  0  0  0  0  0
   31.9306   18.6164   -6.7617 C   0  0  0  0  0  0  0  0  0  0  0  0
   32.3738   17.4200   -5.9171 C   0  0  0  0  0  0  0  0  0  0  0  0
   31.3054   16.4021   -6.1077 C   0  0  0  0  0  0  0  0  0  0  0  0
   40.1106   11.4751  -18.4805 C   0  0  0  0  0  0  0  0  0  0  0  0
   40.4084   10.9077  -19.4425 N   0  0  0  0  0  0  0  0  0  0  0  0
 34 35  1  0  0  0
 35 36  1  0  0  0
 35 22  1  0  0  0
 22 28  1  0  0  0
 28 29  1  0  0  0
 29 30  1  0  0  0
 30 31  1  0  0  0
 31 32  1  0  0  0
 32 33  1  0  0  0
 22 23  1  0  0  0
 23 24  1  0  0  0
 24 25  1  0  0  0
 25  1  1  0  0  0
  1  2  2  0  0  0
  2  3  1  0  0  0
  3  4  2  0  0  0
  4  5  1  0  0  0
  5  6  2  0  0  0
  4  7  1  0  0  0
  7  8  2  0  0  0
  7  9  1  0  0  0
  9 10  2  0  0  0
 10 11  1  0  0  0
 11 12  1  0  0  0
 12 13  2  0  0  0
 13 14  1  0  0  0
 14 37  1  0  0  0
 37 38  3  0  0  0
 14 15  2  0  0  0
 15 16  1  0  0  0
 16 17  2  0  0  0
 10 18  1  0  0  0
 18 19  1  0  0  0
 18 20  1  0  0  0
 25 26  1  0  0  0
 26 27  1  0  0  0
 27 22  1  0  0  0
 33 28  1  0  0  0
  6  1  1  0  0  0
 17  9  1  0  0  0
 18  3  1  0  0  0
 17 12  1  0  0  0
 11 21  1  0  0  0
M  END
> <minimizedAffinity>
-8.70069

> <CNNscore>
0.1917787194

> <CNNaffinity>
6.6157364845

> <CNN_VS>
1.2687574625

> <CNNaffinity_variance>
0.1035928130

$$$$
[H]c1nc(N2C([H])([H])C([H])([H])C(N3C([H])([H])C([H])([H])OC([H])([H])C3([H])[H])(C([H])(C([H])([H])[H])C([H])([H])[H])C([H])([H])C2([H])[H])c([H])c2c1C(=O)c1c(n([H])c3c([H])c(C#N)c([H])c([H])c13)C2(C([H])([H])[H])C([H])([H])[H]


 38 43  0  0  0  0  0  0  0  0999 V2000
   43.7344   16.2096   -9.3997 C   0  0  0  0  0  0  0  0  0  0  0  0
   44.2339   15.4630  -10.4345 C   0  0  0  0  0  0  0  0  0  0  0  0
   43.4197   15.0432  -11.4956 C   0  0  0  0  0  0  0  0  0  0  0  0
   42.0988   15.4079  -11.4615 C   0  0  0  0  0  0  0  0  0  0  0  0
   41.6186   16.1625  -10.4047 C   0  0  0  0  0  0  0  0  0  0  0  0
   42.4327   16.5435   -9.4086 N   0  0  0  0  0  0  0  0  0  0  0  0
   41.2106   14.9996  -12.5371 C   0  0  0  0  0  0  0  0  0  0  0  0
   39.9873   15.3320  -12.5142 O   0  0  0  0  0  0  0  0  0  0  0  0
   41.7436   14.2102  -13.6307 C   0  0  0  0  0  0  0  0  0  0  0  0
   43.0739   13.8699  -13.6198 C   0  0  0  0  0  0  0  0  0  0  0  0
   43.3411   13.1358  -14.7366 N   0  0  0  0  0  0  0  0  0  0  0  0
   42.2090   12.9975  -15.4646 C   0  0  0  0  0  0  0  0  0  0  0  0
   41.9408   12.3555  -16.6606 C   0  0  0  0  0  0  0  0  0  0  0  0
   40.6684   12.3820  -17.1732 C   0  0  0  0  0  0  0  0  0  0  0  0
   39.6912   13.0554  -16.4701 C   0  0  0  0  0  0  0  0  0  0  0  0
   39.9552   13.6950  -15.2799 C   0  0  0  0  0  0  0  0  0  0  0  0
   41.2205   13.6672  -14.7724 C   0  0  0  0  0  0  0  0  0  0  0  0
   44.0184   14.2499  -12.5683 C   0  0  0  0  0  0  0  0  0  0  0  0
   45.1544   15.0254  -13.2498 C   0  0  0  0  0  0  0  0  0  0  0  0
   44.6637   12.9623  -12.0585 C   0  0  0  0  0  0  0  0  0  0  0  0
   44.2497   12.7287  -15.0232 H   0  0  0  0  0  0  0  0  0  0  0  0
   46.0206   17.8098   -5.9784 C   0  0  0  0  0  0  0  0  0  0  0  0
   45.6879   18.5163   -7.3101 C   0  0  0  0  0  0  0  0  0  0  0  0
   45.6499   17.5893   -8.4819 C   0  0  0  0  0  0  0  0  0  0  0  0
   44.5653   16.6417   -8.3142 N   0  0  0  0  0  0  0  0  0  0  0  0
   44.3808   16.1559   -6.9521 C   0  0  0  0  0  0  0  0  0  0  0  0
   45.7191   16.3556   -6.2724 C   0  0  0  0  0  0  0  0  0  0  0  0
   45.1720   18.3844   -5.0302 N   0  0  0  0  0  0  0  0  0  0  0  0
   44.9731   17.9217   -3.7557 C   0  0  0  0  0  0  0  0  0  0  0  0
   43.5165   17.8763   -3.3620 C   0  0  0  0  0  0  0  0  0  0  0  0
   42.7961   18.9634   -3.7790 O   0  0  0  0  0  0  0  0  0  0  0  0
   42.9366   19.2008   -5.1497 C   0  0  0  0  0  0  0  0  0  0  0  0
   44.4018   19.5112   -5.3769 C   0  0  0  0  0  0  0  0  0  0  0  0
   48.2562   16.6764   -5.6241 C   0  0  0  0  0  0  0  0  0  0  0  0
   47.4629   17.9847   -5.6381 C   0  0  0  0  0  0  0  0  0  0  0  0
   48.2711   18.9118   -6.4755 C   0  0  0  0  0  0  0  0  0  0  0  0
   40.3498   11.7159  -18.4319 C   0  0  0  0  0  0  0  0  0  0  0  0
   40.1096   11.1981  -19.4370 N   0  0  0  0  0  0  0  0  0  0  0  0
 34 35  1  0  0  0
 35 36  1  0  0  0
 35 22  1  0  0  0
 22 28  1  0  0  0
 28 29  1  0  0  0
 29 30  1  0  0  0
 30 31  1  0  0  0
 31 32  1  0  0  0
 32 33  1  0  0  0
 22 23  1  0  0  0
 23 24  1  0  0  0
 24 25  1  0  0  0
 25  1  1  0  0  0
  1  2  2  0  0  0
  2  3  1  0  0  0
  3  4  2  0  0  0
  4  5  1  0  0  0
  5  6  2  0  0  0
  4  7  1  0  0  0
  7  8  2  0  0  0
  7  9  1  0  0  0
  9 10  2  0  0  0
 10 11  1  0  0  0
 11 12  1  0  0  0
 12 13  2  0  0  0
 13 14  1  0  0  0
 14 37  1  0  0  0
 37 38  3  0  0  0
 14 15  2  0  0  0
 15 16  1  0  0  0
 16 17  2  0  0  0
 10 18  1  0  0  0
 18 19  1  0  0  0
 18 20  1  0  0  0
 25 26  1  0  0  0
 26 27  1  0  0  0
 27 22  1  0  0  0
 33 28  1  0  0  0
  6  1  1  0  0  0
 17  9  1  0  0  0
 18  3  1  0  0  0
 17 12  1  0  0  0
 11 21  1  0  0  0
M  END
> <minimizedAffinity>
-7.12307

> <CNNscore>
0.1610673964

> <CNNaffinity>
5.9557533264

> <CNN_VS>
0.9592776895

> <CNNaffinity_variance>
0.1719807684

$$$$
[H]c1nc(N2C([H])([H])C([H])([H])C(N3C([H])([H])C([H])([H])OC([H])([H])C3([H])[H])(C([H])(C([H])([H])[H])C([H])([H])[H])C([H])([H])C2([H])[H])c([H])c2c1C(=O)c1c(n([H])c3c([H])c(C#N)c([H])c([H])c13)C2(C([H])([H])[H])C([H])([H])[H]


 38 43  0  0  0  0  0  0  0  0999 V2000
   43.3624   16.0953   -9.1455 C   0  0  0  0  0  0  0  0  0  0  0  0
   42.1700   15.9164   -8.4944 C   0  0  0  0  0  0  0  0  0  0  0  0
   40.9536   15.8762   -9.1899 C   0  0  0  0  0  0  0  0  0  0  0  0
   40.9991   16.0229  -10.5520 C   0  0  0  0  0  0  0  0  0  0  0  0
   42.2166   16.2025  -11.1862 C   0  0  0  0  0  0  0  0  0  0  0  0
   43.3582   16.2350  -10.4821 N   0  0  0  0  0  0  0  0  0  0  0  0
   39.7667   15.9884  -11.3220 C   0  0  0  0  0  0  0  0  0  0  0  0
   39.7988   16.1234  -12.5822 O   0  0  0  0  0  0  0  0  0  0  0  0
   38.5071   15.7979  -10.6288 C   0  0  0  0  0  0  0  0  0  0  0  0
   38.5135   15.6556   -9.2631 C   0  0  0  0  0  0  0  0  0  0  0  0
   37.2283   15.4912   -8.8401 N   0  0  0  0  0  0  0  0  0  0  0  0
   36.3966   15.5254   -9.9067 C   0  0  0  0  0  0  0  0  0  0  0  0
   35.0227   15.4096  -10.0233 C   0  0  0  0  0  0  0  0  0  0  0  0
   34.4393   15.4850  -11.2628 C   0  0  0  0  0  0  0  0  0  0  0  0
   35.2523   15.6756  -12.3607 C   0  0  0  0  0  0  0  0  0  0  0  0
   36.6195   15.7912  -12.2477 C   0  0  0  0  0  0  0  0  0  0  0  0
   37.1971   15.7160  -11.0147 C   0  0  0  0  0  0  0  0  0  0  0  0
   39.7181   15.6806   -8.4323 C   0  0  0  0  0  0  0  0  0  0  0  0
   39.7558   14.3527   -7.6631 C   0  0  0  0  0  0  0  0  0  0  0  0
   39.5053   16.7539   -7.3661 C   0  0  0  0  0  0  0  0  0  0  0  0
   36.8947   15.3580   -7.8683 H   0  0  0  0  0  0  0  0  0  0  0  0
   47.1815   16.6076   -6.9904 C   0  0  0  0  0  0  0  0  0  0  0  0
   46.8726   16.9435   -8.4652 C   0  0  0  0  0  0  0  0  0  0  0  0
   45.8932   16.0071   -9.0959 C   0  0  0  0  0  0  0  0  0  0  0  0
   44.6080   16.1351   -8.4368 N   0  0  0  0  0  0  0  0  0  0  0  0
   44.6751   16.3069   -6.9907 C   0  0  0  0  0  0  0  0  0  0  0  0
   46.0154   15.7326   -6.5822 C   0  0  0  0  0  0  0  0  0  0  0  0
   47.2264   17.8371   -6.3302 N   0  0  0  0  0  0  0  0  0  0  0  0
   47.2830   18.0096   -4.9719 C   0  0  0  0  0  0  0  0  0  0  0  0
   46.3250   19.0614   -4.4674 C   0  0  0  0  0  0  0  0  0  0  0  0
   46.2558   20.1743   -5.2619 O   0  0  0  0  0  0  0  0  0  0  0  0
   45.9932   19.8583   -6.5984 C   0  0  0  0  0  0  0  0  0  0  0  0
   47.1685   19.0303   -7.0758 C   0  0  0  0  0  0  0  0  0  0  0  0
   48.2812   14.3790   -6.5086 C   0  0  0  0  0  0  0  0  0  0  0  0
   48.4634   15.8515   -6.8823 C   0  0  0  0  0  0  0  0  0  0  0  0
   49.3675   15.8360   -8.0639 C   0  0  0  0  0  0  0  0  0  0  0  0
   32.9936   15.3669  -11.4228 C   0  0  0  0  0  0  0  0  0  0  0  0
   31.8484   15.2881  -11.5592 N   0  0  0  0  0  0  0  0  0  0  0  0
 34 35  1  0  0  0
 35 36  1  0  0  0
 35 22  1  0  0  0
 22 28  1  0  0  0
 28 29  1  0  0  0
 29 30  1  0  0  0
 30 31  1  0  0  0
 31 32  1  0  0  0
 32 33  1  0  0  0
 22 23  1  0  0  0
 23 24  1  0  0  0
 24 25  1  0  0  0
 25  1  1  0  0  0
  1  2  2  0  0  0
  2  3  1  0  0  0
  3  4  2  0  0  0
  4  5  1  0  0  0
  5  6  2  0  0  0
  4  7  1  0  0  0
  7  8  2  0  0  0
  7  9  1  0  0  0
  9 10  2  0  0  0
 10 11  1  0  0  0
 11 12  1  0  0  0
 12 13  2  0  0  0
 13 14  1  0  0  0
 14 37  1  0  0  0
 37 38  3  0  0  0
 14 15  2  0  0  0
 15 16  1  0  0  0
 16 17  2  0  0  0
 10 18  1  0  0  0
 18 19  1  0  0  0
 18 20  1  0  0  0
 25 26  1  0  0  0
 26 27  1  0  0  0
 27 22  1  0  0  0
 33 28  1  0  0  0
  6  1  1  0  0  0
 17  9  1  0  0  0
 18  3  1  0  0  0
 17 12  1  0  0  0
 11 21  1  0  0  0
M  END
> <minimizedAffinity>
-5.40331

> <CNNscore>
0.1529137790

> <CNNaffinity>
5.7803182602

> <CNN_VS>
0.8838903308

> <CNNaffinity_variance>
0.1628247648

$$$$
[H]OC(=O)c1c([H])c([H])nc([H])c1N([H])C([H])([H])C1([H])c2c([H])c([H])c(Sc3sc([H])c([H])c3[H])c([H])c2OC([H])([H])C1([H])[H]


 29 32  0  0  0  0  0  0  0  0999 V2000
   43.8476   13.9838  -15.0136 C   0  0  0  0  0  0  0  0  0  0  0  0
   45.2365   13.9566  -15.6319 C   0  0  0  0  0  0  0  0  0  0  0  0
   45.8720   12.6190  -15.4100 C   0  0  0  0  0  0  0  0  0  0  0  0
   45.8052   12.2384  -14.0688 O   0  0  0  0  0  0  0  0  0  0  0  0
   44.9949   12.8846  -13.1352 C   0  0  0  0  0  0  0  0  0  0  0  0
   45.1765   12.6491  -11.7664 C   0  0  0  0  0  0  0  0  0  0  0  0
   44.3883   13.2753  -10.8201 C   0  0  0  0  0  0  0  0  0  0  0  0
   43.4158   14.1413  -11.2756 C   0  0  0  0  0  0  0  0  0  0  0  0
   43.2290   14.3811  -12.6416 C   0  0  0  0  0  0  0  0  0  0  0  0
   44.0229   13.7478  -13.5513 C   0  0  0  0  0  0  0  0  0  0  0  0
   43.0472   12.8814  -15.6516 C   0  0  0  0  0  0  0  0  0  0  0  0
   41.9888   13.3755  -16.5288 N   0  0  0  0  0  0  0  0  0  0  0  0
   42.1278   14.2876  -16.9988 H   0  0  0  0  0  0  0  0  0  0  0  0
   39.6866   12.7731  -15.8987 C   0  0  0  0  0  0  0  0  0  0  0  0
   38.5647   11.9639  -16.1895 C   0  0  0  0  0  0  0  0  0  0  0  0
   38.5405   11.1088  -17.2509 C   0  0  0  0  0  0  0  0  0  0  0  0
   39.6076   11.0302  -18.0420 N   0  0  0  0  0  0  0  0  0  0  0  0
   40.6967   11.7721  -17.8131 C   0  0  0  0  0  0  0  0  0  0  0  0
   40.7720   12.6664  -16.7355 C   0  0  0  0  0  0  0  0  0  0  0  0
   40.0601   14.8246  -14.7395 O   0  0  0  0  0  0  0  0  0  0  0  0
   39.6276   13.6772  -14.7850 C   0  0  0  0  0  0  0  0  0  0  0  0
   39.0112   13.2259  -13.5984 O   0  0  0  0  0  0  0  0  0  0  0  0
   39.5352   13.0626  -12.7550 H   0  0  0  0  0  0  0  0  0  0  0  0
   44.6814   12.9239   -9.1093 S   0  0  0  0  0  0  0  0  0  0  0  0
   46.1124   11.8421   -8.9041 C   0  0  0  0  0  0  0  0  0  0  0  0
   47.3636   12.1963   -8.4645 C   0  0  0  0  0  0  0  0  0  0  0  0
   48.2831   11.2152   -8.3899 C   0  0  0  0  0  0  0  0  0  0  0  0
   47.8876    9.9552   -8.7586 C   0  0  0  0  0  0  0  0  0  0  0  0
   46.2586   10.1747   -9.1948 S   0  0  0  0  0  0  0  0  0  0  0  0
 20 21  2  0  0  0
 21 22  1  0  0  0
 21 14  1  0  0  0
 14 15  2  0  0  0
 15 16  1  0  0  0
 16 17  2  0  0  0
 17 18  1  0  0  0
 18 19  2  0  0  0
 19 12  1  0  0  0
 12 11  1  0  0  0
 11  1  1  0  0  0
  1  2  1  0  0  0
  2  3  1  0  0  0
  3  4  1  0  0  0
  4  5  1  0  0  0
  5  6  2  0  0  0
  6  7  1  0  0  0
  7 24  1  0  0  0
 24 25  1  0  0  0
 25 26  2  0  0  0
 26 27  1  0  0  0
 27 28  2  0  0  0
 28 29  1  0  0  0
  7  8  2  0  0  0
  8  9  1  0  0  0
  9 10  2  0  0  0
 19 14  1  0  0  0
 10  1  1  0  0  0
 10  5  1  0  0  0
 29 25  1  0  0  0
 22 23  1  0  0  0
 12 13  1  0  0  0
M  END
> <minimizedAffinity>
-6.44971

> <CNNscore>
0.2467757314

> <CNNaffinity>
5.6830520630

> <CNN_VS>
1.4024393559

> <CNNaffinity_variance>
0.1282055974

$$$$
[H]OC(=O)c1c([H])c([H])nc([H])c1N([H])C([H])([H])C1([H])c2c([H])c([H])c(Sc3sc([H])c([H])c3[H])c([H])c2OC([H])([H])C1([H])[H]


 29 32  0  0  0  0  0  0  0  0999 V2000
   37.0874   15.4008  -11.2717 C   0  0  0  0  0  0  0  0  0  0  0  0
   35.9585   16.4081  -11.4224 C   0  0  0  0  0  0  0  0  0  0  0  0
   34.6365   15.7049  -11.4074 C   0  0  0  0  0  0  0  0  0  0  0  0
   34.6145   14.6402  -12.3097 O   0  0  0  0  0  0  0  0  0  0  0  0
   35.7650   14.1315  -12.9126 C   0  0  0  0  0  0  0  0  0  0  0  0
   35.6583   13.2646  -14.0076 C   0  0  0  0  0  0  0  0  0  0  0  0
   36.7808   12.7459  -14.6239 C   0  0  0  0  0  0  0  0  0  0  0  0
   38.0105   13.1149  -14.1189 C   0  0  0  0  0  0  0  0  0  0  0  0
   38.1242   13.9805  -13.0252 C   0  0  0  0  0  0  0  0  0  0  0  0
   36.9976   14.4759  -12.4384 C   0  0  0  0  0  0  0  0  0  0  0  0
   36.8687   14.6674   -9.9766 C   0  0  0  0  0  0  0  0  0  0  0  0
   37.5019   15.3208   -8.8338 N   0  0  0  0  0  0  0  0  0  0  0  0
   37.0630   16.1787   -8.4548 H   0  0  0  0  0  0  0  0  0  0  0  0
   38.7342   14.0767   -7.1037 C   0  0  0  0  0  0  0  0  0  0  0  0
   40.0043   13.7196   -6.5964 C   0  0  0  0  0  0  0  0  0  0  0  0
   41.1635   14.1047   -7.2017 C   0  0  0  0  0  0  0  0  0  0  0  0
   41.1011   14.8422   -8.3075 N   0  0  0  0  0  0  0  0  0  0  0  0
   39.9262   15.2096   -8.8307 C   0  0  0  0  0  0  0  0  0  0  0  0
   38.7061   14.8397   -8.2467 C   0  0  0  0  0  0  0  0  0  0  0  0
   36.9843   12.5328   -6.6073 O   0  0  0  0  0  0  0  0  0  0  0  0
   37.5552   13.6050   -6.4337 C   0  0  0  0  0  0  0  0  0  0  0  0
   36.9647   14.4437   -5.4644 O   0  0  0  0  0  0  0  0  0  0  0  0
   36.0661   14.8730   -5.6080 H   0  0  0  0  0  0  0  0  0  0  0  0
   36.5609   11.6566  -16.0028 S   0  0  0  0  0  0  0  0  0  0  0  0
   38.0687   11.5455  -16.9899 C   0  0  0  0  0  0  0  0  0  0  0  0
   39.2803   12.1325  -16.7223 C   0  0  0  0  0  0  0  0  0  0  0  0
   40.2726   11.9107  -17.6053 C   0  0  0  0  0  0  0  0  0  0  0  0
   39.9838   11.1211  -18.6883 C   0  0  0  0  0  0  0  0  0  0  0  0
   38.3505   10.7150  -18.4448 S   0  0  0  0  0  0  0  0  0  0  0  0
 20 21  2  0  0  0
 21 22  1  0  0  0
 21 14  1  0  0  0
 14 15  2  0  0  0
 15 16  1  0  0  0
 16 17  2  0  0  0
 17 18  1  0  0  0
 18 19  2  0  0  0
 19 12  1  0  0  0
 12 11  1  0  0  0
 11  1  1  0  0  0
  1  2  1  0  0  0
  2  3  1  0  0  0
  3  4  1  0  0  0
  4  5  1  0  0  0
  5  6  2  0  0  0
  6  7  1  0  0  0
  7 24  1  0  0  0
 24 25  1  0  0  0
 25 26  2  0  0  0
 26 27  1  0  0  0
 27 28  2  0  0  0
 28 29  1  0  0  0
  7  8  2  0  0  0
  8  9  1  0  0  0
  9 10  2  0  0  0
 19 14  1  0  0  0
 10  1  1  0  0  0
 10  5  1  0  0  0
 29 25  1  0  0  0
 22 23  1  0  0  0
 12 13  1  0  0  0
M  END
> <minimizedAffinity>
-7.23993

> <CNNscore>
0.2153492272

> <CNNaffinity>
5.9579195976

> <CNN_VS>
1.2830333710

> <CNNaffinity_variance>
0.0621773824

$$$$
[H]OC(=O)c1c([H])c([H])nc([H])c1N([H])C([H])([H])C1([H])c2c([H])c([H])c(Sc3sc([H])c([H])c3[H])c([H])c2OC([H])([H])C1([H])[H]


 29 32  0  0  0  0  0  0  0  0999 V2000
   37.7753   15.9809  -10.9802 C   0  0  0  0  0  0  0  0  0  0  0  0
   36.3182   16.1608  -11.3756 C   0  0  0  0  0  0  0  0  0  0  0  0
   35.6792   14.8261  -11.6054 C   0  0  0  0  0  0  0  0  0  0  0  0
   36.4415   14.0371  -12.4682 O   0  0  0  0  0  0  0  0  0  0  0  0
   37.7555   14.3468  -12.8192 C   0  0  0  0  0  0  0  0  0  0  0  0
   38.3687   13.6879  -13.8925 C   0  0  0  0  0  0  0  0  0  0  0  0
   39.6689   13.9746  -14.2618 C   0  0  0  0  0  0  0  0  0  0  0  0
   40.3394   14.9348  -13.5326 C   0  0  0  0  0  0  0  0  0  0  0  0
   39.7327   15.5968  -12.4593 C   0  0  0  0  0  0  0  0  0  0  0  0
   38.4482   15.2917  -12.1190 C   0  0  0  0  0  0  0  0  0  0  0  0
   37.8050   15.1349   -9.7367 C   0  0  0  0  0  0  0  0  0  0  0  0
   37.8618   15.9234   -8.5083 N   0  0  0  0  0  0  0  0  0  0  0  0
   38.7890   16.2357   -8.1690 H   0  0  0  0  0  0  0  0  0  0  0  0
   36.1735   15.4252   -6.7875 C   0  0  0  0  0  0  0  0  0  0  0  0
   34.9801   15.8473   -6.1585 C   0  0  0  0  0  0  0  0  0  0  0  0
   34.3635   17.0196   -6.4810 C   0  0  0  0  0  0  0  0  0  0  0  0
   34.9002   17.7952   -7.4197 N   0  0  0  0  0  0  0  0  0  0  0  0
   36.0277   17.4444   -8.0479 C   0  0  0  0  0  0  0  0  0  0  0  0
   36.7003   16.2497   -7.7531 C   0  0  0  0  0  0  0  0  0  0  0  0
   36.8851   13.1602   -7.0224 O   0  0  0  0  0  0  0  0  0  0  0  0
   36.7869   14.1956   -6.3713 C   0  0  0  0  0  0  0  0  0  0  0  0
   37.3467   14.1404   -5.0770 O   0  0  0  0  0  0  0  0  0  0  0  0
   36.9499   13.5701   -4.3492 H   0  0  0  0  0  0  0  0  0  0  0  0
   40.3719   13.0975  -15.6303 S   0  0  0  0  0  0  0  0  0  0  0  0
   39.1190   12.1214  -16.4891 C   0  0  0  0  0  0  0  0  0  0  0  0
   37.7818   12.0404  -16.1900 C   0  0  0  0  0  0  0  0  0  0  0  0
   37.0299   11.2433  -16.9727 C   0  0  0  0  0  0  0  0  0  0  0  0
   37.6661   10.5866  -17.9945 C   0  0  0  0  0  0  0  0  0  0  0  0
   39.2805   11.0964  -17.8342 S   0  0  0  0  0  0  0  0  0  0  0  0
 20 21  2  0  0  0
 21 22  1  0  0  0
 21 14  1  0  0  0
 14 15  2  0  0  0
 15 16  1  0  0  0
 16 17  2  0  0  0
 17 18  1  0  0  0
 18 19  2  0  0  0
 19 12  1  0  0  0
 12 11  1  0  0  0
 11  1  1  0  0  0
  1  2  1  0  0  0
  2  3  1  0  0  0
  3  4  1  0  0  0
  4  5  1  0  0  0
  5  6  2  0  0  0
  6  7  1  0  0  0
  7 24  1  0  0  0
 24 25  1  0  0  0
 25 26  2  0  0  0
 26 27  1  0  0  0
 27 28  2  0  0  0
 28 29  1  0  0  0
  7  8  2  0  0  0
  8  9  1  0  0  0
  9 10  2  0  0  0
 19 14  1  0  0  0
 10  1  1  0  0  0
 10  5  1  0  0  0
 29 25  1  0  0  0
 22 23  1  0  0  0
 12 13  1  0  0  0
M  END
> <minimizedAffinity>
-7.05065

> <CNNscore>
0.2110503763

> <CNNaffinity>
5.6335248947

> <CNN_VS>
1.1889575720

> <CNNaffinity_variance>
0.1079351306

$$$$
[H]OC(=O)c1c([H])c([H])nc([H])c1N([H])C([H])([H])C1([H])c2c([H])c([H])c(Sc3sc([H])c([H])c3[H])c([H])c2OC([H])([H])C1([H])[H]


 29 32  0  0  0  0  0  0  0  0999 V2000
   36.2850   16.6948  -10.6311 C   0  0  0  0  0  0  0  0  0  0  0  0
   35.2264   16.2755   -9.6234 C   0  0  0  0  0  0  0  0  0  0  0  0
   35.6463   15.0161   -8.9306 C   0  0  0  0  0  0  0  0  0  0  0  0
   36.0261   14.0327   -9.8453 O   0  0  0  0  0  0  0  0  0  0  0  0
   36.2613   14.3000  -11.1940 C   0  0  0  0  0  0  0  0  0  0  0  0
   36.3610   13.2458  -12.1110 C   0  0  0  0  0  0  0  0  0  0  0  0
   36.5937   13.4815  -13.4524 C   0  0  0  0  0  0  0  0  0  0  0  0
   36.7238   14.7952  -13.8533 C   0  0  0  0  0  0  0  0  0  0  0  0
   36.6253   15.8530  -12.9425 C   0  0  0  0  0  0  0  0  0  0  0  0
   36.3952   15.5881  -11.6250 C   0  0  0  0  0  0  0  0  0  0  0  0
   37.5745   16.8833   -9.8799 C   0  0  0  0  0  0  0  0  0  0  0  0
   38.7329   16.3387  -10.5839 N   0  0  0  0  0  0  0  0  0  0  0  0
   38.6012   15.9958  -11.5520 H   0  0  0  0  0  0  0  0  0  0  0  0
   41.1887   16.2162  -10.7008 C   0  0  0  0  0  0  0  0  0  0  0  0
   42.3905   16.0496   -9.9756 C   0  0  0  0  0  0  0  0  0  0  0  0
   42.4085   15.9154   -8.6191 C   0  0  0  0  0  0  0  0  0  0  0  0
   41.2576   15.9414   -7.9517 N   0  0  0  0  0  0  0  0  0  0  0  0
   40.0908   16.0955   -8.5873 C   0  0  0  0  0  0  0  0  0  0  0  0
   40.0181   16.2376   -9.9805 C   0  0  0  0  0  0  0  0  0  0  0  0
   40.3187   16.3008  -12.9207 O   0  0  0  0  0  0  0  0  0  0  0  0
   41.2488   16.3876  -12.1250 C   0  0  0  0  0  0  0  0  0  0  0  0
   42.5004   16.6892  -12.7029 O   0  0  0  0  0  0  0  0  0  0  0  0
   42.9848   16.0357  -13.2953 H   0  0  0  0  0  0  0  0  0  0  0  0
   36.7064   12.0942  -14.5473 S   0  0  0  0  0  0  0  0  0  0  0  0
   38.1997   12.1841  -15.5583 C   0  0  0  0  0  0  0  0  0  0  0  0
   39.3111   12.9565  -15.3292 C   0  0  0  0  0  0  0  0  0  0  0  0
   40.3133   12.8617  -16.2237 C   0  0  0  0  0  0  0  0  0  0  0  0
   40.1336   12.0049  -17.2789 C   0  0  0  0  0  0  0  0  0  0  0  0
   38.5849   11.3625  -16.9945 S   0  0  0  0  0  0  0  0  0  0  0  0
 20 21  2  0  0  0
 21 22  1  0  0  0
 21 14  1  0  0  0
 14 15  2  0  0  0
 15 16  1  0  0  0
 16 17  2  0  0  0
 17 18  1  0  0  0
 18 19  2  0  0  0
 19 12  1  0  0  0
 12 11  1  0  0  0
 11  1  1  0  0  0
  1  2  1  0  0  0
  2  3  1  0  0  0
  3  4  1  0  0  0
  4  5  1  0  0  0
  5  6  2  0  0  0
  6  7  1  0  0  0
  7 24  1  0  0  0
 24 25  1  0  0  0
 25 26  2  0  0  0
 26 27  1  0  0  0
 27 28  2  0  0  0
 28 29  1  0  0  0
  7  8  2  0  0  0
  8  9  1  0  0  0
  9 10  2  0  0  0
 19 14  1  0  0  0
 10  1  1  0  0  0
 10  5  1  0  0  0
 29 25  1  0  0  0
 22 23  1  0  0  0
 12 13  1  0  0  0
M  END
> <minimizedAffinity>
-6.94259

> <CNNscore>
0.1789689660

> <CNNaffinity>
5.6752901077

> <CNN_VS>
1.0157008171

> <CNNaffinity_variance>
0.3600354791

$$$$
[H]OC(=O)c1c([H])c([H])nc([H])c1N([H])C([H])([H])C1([H])c2c([H])c([H])c(Sc3sc([H])c([H])c3[H])c([H])c2OC([H])([H])C1([H])[H]


 29 32  0  0  0  0  0  0  0  0999 V2000
   44.3805   13.9391  -13.5647 C   0  0  0  0  0  0  0  0  0  0  0  0
   45.5021   12.9366  -13.7858 C   0  0  0  0  0  0  0  0  0  0  0  0
   45.9427   12.9653  -15.2167 C   0  0  0  0  0  0  0  0  0  0  0  0
   44.8575   12.8526  -16.0872 O   0  0  0  0  0  0  0  0  0  0  0  0
   43.5332   12.9956  -15.6729 C   0  0  0  0  0  0  0  0  0  0  0  0
   42.4876   12.5980  -16.5159 C   0  0  0  0  0  0  0  0  0  0  0  0
   41.1670   12.7284  -16.1313 C   0  0  0  0  0  0  0  0  0  0  0  0
   40.9184   13.2651  -14.8849 C   0  0  0  0  0  0  0  0  0  0  0  0
   41.9582   13.6643  -14.0378 C   0  0  0  0  0  0  0  0  0  0  0  0
   43.2514   13.5230  -14.4459 C   0  0  0  0  0  0  0  0  0  0  0  0
   44.9035   15.2952  -13.9525 C   0  0  0  0  0  0  0  0  0  0  0  0
   44.5976   16.3305  -12.9684 N   0  0  0  0  0  0  0  0  0  0  0  0
   43.7005   16.8401  -13.0561 H   0  0  0  0  0  0  0  0  0  0  0  0
   46.3111   17.7845  -11.9637 C   0  0  0  0  0  0  0  0  0  0  0  0
   47.1974   17.9763  -10.8794 C   0  0  0  0  0  0  0  0  0  0  0  0
   47.2537   17.1141   -9.8250 C   0  0  0  0  0  0  0  0  0  0  0  0
   46.4488   16.0545   -9.8129 N   0  0  0  0  0  0  0  0  0  0  0  0
   45.5913   15.8236  -10.8131 C   0  0  0  0  0  0  0  0  0  0  0  0
   45.4945   16.6795  -11.9197 C   0  0  0  0  0  0  0  0  0  0  0  0
   45.3140   19.4075  -13.4002 O   0  0  0  0  0  0  0  0  0  0  0  0
   46.2811   18.7533  -13.0229 C   0  0  0  0  0  0  0  0  0  0  0  0
   47.4791   19.0023  -13.7259 O   0  0  0  0  0  0  0  0  0  0  0  0
   47.5958   18.7376  -14.6897 H   0  0  0  0  0  0  0  0  0  0  0  0
   39.9034   12.2021  -17.2549 S   0  0  0  0  0  0  0  0  0  0  0  0
   38.3041   12.0841  -16.4252 C   0  0  0  0  0  0  0  0  0  0  0  0
   37.9803   12.5561  -15.1775 C   0  0  0  0  0  0  0  0  0  0  0  0
   36.7164   12.3538  -14.7591 C   0  0  0  0  0  0  0  0  0  0  0  0
   35.8699   11.6966  -15.6145 C   0  0  0  0  0  0  0  0  0  0  0  0
   36.8541   11.3832  -16.9655 S   0  0  0  0  0  0  0  0  0  0  0  0
 20 21  2  0  0  0
 21 22  1  0  0  0
 21 14  1  0  0  0
 14 15  2  0  0  0
 15 16  1  0  0  0
 16 17  2  0  0  0
 17 18  1  0  0  0
 18 19  2  0  0  0
 19 12  1  0  0  0
 12 11  1  0  0  0
 11  1  1  0  0  0
  1  2  1  0  0  0
  2  3  1  0  0  0
  3  4  1  0  0  0
  4  5  1  0  0  0
  5  6  2  0  0  0
  6  7  1  0  0  0
  7 24  1  0  0  0
 24 25  1  0  0  0
 25 26  2  0  0  0
 26 27  1  0  0  0
 27 28  2  0  0  0
 28 29  1  0  0  0
  7  8  2  0  0  0
  8  9  1  0  0  0
  9 10  2  0  0  0
 19 14  1  0  0  0
 10  1  1  0  0  0
 10  5  1  0  0  0
 29 25  1  0  0  0
 22 23  1  0  0  0
 12 13  1  0  0  0
M  END
> <minimizedAffinity>
-6.81181

> <CNNscore>
0.1585850418

> <CNNaffinity>
5.5459704399

> <CNN_VS>
0.8795079589

> <CNNaffinity_variance>
0.1074528694

$$$$
[H]OC(=O)c1c([H])c([H])nc([H])c1N([H])C([H])([H])C1([H])c2c([H])c([H])c(Sc3sc([H])c([H])c3[H])c([H])c2OC([H])([H])C1([H])[H]


 29 32  0  0  0  0  0  0  0  0999 V2000
   43.7927   14.0928  -14.8586 C   0  0  0  0  0  0  0  0  0  0  0  0
   45.2430   14.0266  -15.3102 C   0  0  0  0  0  0  0  0  0  0  0  0
   45.8376   12.7036  -14.9378 C   0  0  0  0  0  0  0  0  0  0  0  0
   45.6140   12.4040  -13.5930 O   0  0  0  0  0  0  0  0  0  0  0  0
   44.7073   13.1061  -12.7989 C   0  0  0  0  0  0  0  0  0  0  0  0
   44.7285   12.9525  -11.4068 C   0  0  0  0  0  0  0  0  0  0  0  0
   43.8421   13.6353  -10.5962 C   0  0  0  0  0  0  0  0  0  0  0  0
   42.9356   14.4741  -11.2112 C   0  0  0  0  0  0  0  0  0  0  0  0
   42.9090   14.6321  -12.6014 C   0  0  0  0  0  0  0  0  0  0  0  0
   43.7968   13.9444  -13.3745 C   0  0  0  0  0  0  0  0  0  0  0  0
   43.0616   12.9555  -15.5182 C   0  0  0  0  0  0  0  0  0  0  0  0
   42.0540   13.4013  -16.4774 N   0  0  0  0  0  0  0  0  0  0  0  0
   42.2233   14.2842  -16.9912 H   0  0  0  0  0  0  0  0  0  0  0  0
   39.7358   12.8037  -15.9042 C   0  0  0  0  0  0  0  0  0  0  0  0
   38.6247   11.9865  -16.2133 C   0  0  0  0  0  0  0  0  0  0  0  0
   38.6333   11.1129  -17.2598 C   0  0  0  0  0  0  0  0  0  0  0  0
   39.7232   11.0235  -18.0180 N   0  0  0  0  0  0  0  0  0  0  0  0
   40.8035   11.7723  -17.7705 C   0  0  0  0  0  0  0  0  0  0  0  0
   40.8453   12.6854  -16.7070 C   0  0  0  0  0  0  0  0  0  0  0  0
   40.0120   14.8968  -14.7931 O   0  0  0  0  0  0  0  0  0  0  0  0
   39.6423   13.7269  -14.8086 C   0  0  0  0  0  0  0  0  0  0  0  0
   39.0674   13.2683  -13.6041 O   0  0  0  0  0  0  0  0  0  0  0  0
   39.6107   13.1518  -12.7652 H   0  0  0  0  0  0  0  0  0  0  0  0
   43.9338   13.3864   -8.8453 S   0  0  0  0  0  0  0  0  0  0  0  0
   42.7415   14.4283   -7.9775 C   0  0  0  0  0  0  0  0  0  0  0  0
   41.5944   14.0232   -7.3417 C   0  0  0  0  0  0  0  0  0  0  0  0
   40.8512   14.9821   -6.7571 C   0  0  0  0  0  0  0  0  0  0  0  0
   41.3062   16.2722   -6.8496 C   0  0  0  0  0  0  0  0  0  0  0  0
   42.7449   16.1106   -7.7418 S   0  0  0  0  0  0  0  0  0  0  0  0
 20 21  2  0  0  0
 21 22  1  0  0  0
 21 14  1  0  0  0
 14 15  2  0  0  0
 15 16  1  0  0  0
 16 17  2  0  0  0
 17 18  1  0  0  0
 18 19  2  0  0  0
 19 12  1  0  0  0
 12 11  1  0  0  0
 11  1  1  0  0  0
  1  2  1  0  0  0
  2  3  1  0  0  0
  3  4  1  0  0  0
  4  5  1  0  0  0
  5  6  2  0  0  0
  6  7  1  0  0  0
  7 24  1  0  0  0
 24 25  1  0  0  0
 25 26  2  0  0  0
 26 27  1  0  0  0
 27 28  2  0  0  0
 28 29  1  0  0  0
  7  8  2  0  0  0
  8  9  1  0  0  0
  9 10  2  0  0  0
 19 14  1  0  0  0
 10  1  1  0  0  0
 10  5  1  0  0  0
 29 25  1  0  0  0
 22 23  1  0  0  0
 12 13  1  0  0  0
M  END
> <minimizedAffinity>
-6.35714

> <CNNscore>
0.1516046226

> <CNNaffinity>
5.6566019058

> <CNN_VS>
0.8575670123

> <CNNaffinity_variance>
0.1037610918

$$$$
[H]OC(=O)c1c([H])c([H])nc([H])c1N([H])C([H])([H])C1([H])c2c([H])c([H])c(Sc3sc([H])c([H])c3[H])c([H])c2OC([H])([H])C1([H])[H]


 29 32  0  0  0  0  0  0  0  0999 V2000
   37.4688   15.8351  -11.1334 C   0  0  0  0  0  0  0  0  0  0  0  0
   36.2211   16.7010  -11.2071 C   0  0  0  0  0  0  0  0  0  0  0  0
   34.9958   15.8482  -11.0893 C   0  0  0  0  0  0  0  0  0  0  0  0
   35.0338   14.7744  -11.9801 O   0  0  0  0  0  0  0  0  0  0  0  0
   36.1893   14.3945  -12.6631 C   0  0  0  0  0  0  0  0  0  0  0  0
   36.1061   13.5041  -13.7412 C   0  0  0  0  0  0  0  0  0  0  0  0
   37.2342   13.1108  -14.4353 C   0  0  0  0  0  0  0  0  0  0  0  0
   38.4452   13.6290  -14.0253 C   0  0  0  0  0  0  0  0  0  0  0  0
   38.5354   14.5188  -12.9491 C   0  0  0  0  0  0  0  0  0  0  0  0
   37.4040   14.8880  -12.2839 C   0  0  0  0  0  0  0  0  0  0  0  0
   37.4328   15.1013   -9.8207 C   0  0  0  0  0  0  0  0  0  0  0  0
   38.4300   15.5822   -8.8676 N   0  0  0  0  0  0  0  0  0  0  0  0
   39.4235   15.3432   -9.0354 H   0  0  0  0  0  0  0  0  0  0  0  0
   37.9676   15.7839   -6.4582 C   0  0  0  0  0  0  0  0  0  0  0  0
   37.5559   16.6389   -5.4106 C   0  0  0  0  0  0  0  0  0  0  0  0
   37.2820   17.9587   -5.6142 C   0  0  0  0  0  0  0  0  0  0  0  0
   37.4049   18.4627   -6.8397 N   0  0  0  0  0  0  0  0  0  0  0  0
   37.7900   17.6990   -7.8681 C   0  0  0  0  0  0  0  0  0  0  0  0
   38.0834   16.3367   -7.7115 C   0  0  0  0  0  0  0  0  0  0  0  0
   37.9706   13.4270   -6.8281 O   0  0  0  0  0  0  0  0  0  0  0  0
   38.2737   14.4126   -6.1630 C   0  0  0  0  0  0  0  0  0  0  0  0
   39.0015   14.1357   -4.9860 O   0  0  0  0  0  0  0  0  0  0  0  0
   38.5872   13.6567   -4.2041 H   0  0  0  0  0  0  0  0  0  0  0  0
   37.0445   11.9820  -15.7866 S   0  0  0  0  0  0  0  0  0  0  0  0
   38.5805   11.8250  -16.7226 C   0  0  0  0  0  0  0  0  0  0  0  0
   38.8064   11.0295  -17.8183 C   0  0  0  0  0  0  0  0  0  0  0  0
   40.0391   11.0733  -18.3587 C   0  0  0  0  0  0  0  0  0  0  0  0
   40.9542   11.9059  -17.7675 C   0  0  0  0  0  0  0  0  0  0  0  0
   40.0752   12.5969  -16.4862 S   0  0  0  0  0  0  0  0  0  0  0  0
 20 21  2  0  0  0
 21 22  1  0  0  0
 21 14  1  0  0  0
 14 15  2  0  0  0
 15 16  1  0  0  0
 16 17  2  0  0  0
 17 18  1  0  0  0
 18 19  2  0  0  0
 19 12  1  0  0  0
 12 11  1  0  0  0
 11  1  1  0  0  0
  1  2  1  0  0  0
  2  3  1  0  0  0
  3  4  1  0  0  0
  4  5  1  0  0  0
  5  6  2  0  0  0
  6  7  1  0  0  0
  7 24  1  0  0  0
 24 25  1  0  0  0
 25 26  2  0  0  0
 26 27  1  0  0  0
 27 28  2  0  0  0
 28 29  1  0  0  0
  7  8  2  0  0  0
  8  9  1  0  0  0
  9 10  2  0  0  0
 19 14  1  0  0  0
 10  1  1  0  0  0
 10  5  1  0  0  0
 29 25  1  0  0  0
 22 23  1  0  0  0
 12 13  1  0  0  0
M  END
> <minimizedAffinity>
-6.76882

> <CNNscore>
0.1408064514

> <CNNaffinity>
5.4196009636

> <CNN_VS>
0.7631147504

> <CNNaffinity_variance>
0.1756052226

$$$$
[H]OC(=O)c1c([H])c([H])nc([H])c1N([H])C([H])([H])C1([H])c2c([H])c([H])c(Sc3sc([H])c([H])c3[H])c([H])c2OC([H])([H])C1([H])[H]


 29 32  0  0  0  0  0  0  0  0999 V2000
   36.6191   13.7323  -12.9406 C   0  0  0  0  0  0  0  0  0  0  0  0
   35.2815   13.1750  -12.4801 C   0  0  0  0  0  0  0  0  0  0  0  0
   34.2230   14.2294  -12.5808 C   0  0  0  0  0  0  0  0  0  0  0  0
   34.6233   15.4151  -11.9628 O   0  0  0  0  0  0  0  0  0  0  0  0
   35.9401   15.6623  -11.5745 C   0  0  0  0  0  0  0  0  0  0  0  0
   36.2296   16.7312  -10.7166 C   0  0  0  0  0  0  0  0  0  0  0  0
   37.5244   16.9991  -10.3161 C   0  0  0  0  0  0  0  0  0  0  0  0
   38.5209   16.1731  -10.7938 C   0  0  0  0  0  0  0  0  0  0  0  0
   38.2387   15.1036  -11.6510 C   0  0  0  0  0  0  0  0  0  0  0  0
   36.9505   14.8649  -12.0284 C   0  0  0  0  0  0  0  0  0  0  0  0
   36.4473   14.2062  -14.3580 C   0  0  0  0  0  0  0  0  0  0  0  0
   35.6272   13.3082  -15.1672 N   0  0  0  0  0  0  0  0  0  0  0  0
   34.5973   13.3822  -15.0901 H   0  0  0  0  0  0  0  0  0  0  0  0
   35.4519   11.3198  -16.6078 C   0  0  0  0  0  0  0  0  0  0  0  0
   36.1512   10.3745  -17.3922 C   0  0  0  0  0  0  0  0  0  0  0  0
   37.5000   10.4404  -17.5794 C   0  0  0  0  0  0  0  0  0  0  0  0
   38.1847   11.4265  -17.0053 N   0  0  0  0  0  0  0  0  0  0  0  0
   37.5741   12.3477  -16.2520 C   0  0  0  0  0  0  0  0  0  0  0  0
   36.1898   12.3246  -16.0287 C   0  0  0  0  0  0  0  0  0  0  0  0
   33.2214   10.9731  -17.3803 O   0  0  0  0  0  0  0  0  0  0  0  0
   34.0258   11.2086  -16.4841 C   0  0  0  0  0  0  0  0  0  0  0  0
   33.4569   11.3845  -15.2047 O   0  0  0  0  0  0  0  0  0  0  0  0
   32.8807   12.1790  -14.9828 H   0  0  0  0  0  0  0  0  0  0  0  0
   37.8070   18.3689   -9.2299 S   0  0  0  0  0  0  0  0  0  0  0  0
   36.7364   18.2792   -7.7788 C   0  0  0  0  0  0  0  0  0  0  0  0
   36.6808   17.2696   -6.8503 C   0  0  0  0  0  0  0  0  0  0  0  0
   35.7992   17.4166   -5.8431 C   0  0  0  0  0  0  0  0  0  0  0  0
   35.0392   18.5578   -5.8360 C   0  0  0  0  0  0  0  0  0  0  0  0
   35.5725   19.3847   -7.2230 S   0  0  0  0  0  0  0  0  0  0  0  0
 20 21  2  0  0  0
 21 22  1  0  0  0
 21 14  1  0  0  0
 14 15  2  0  0  0
 15 16  1  0  0  0
 16 17  2  0  0  0
 17 18  1  0  0  0
 18 19  2  0  0  0
 19 12  1  0  0  0
 12 11  1  0  0  0
 11  1  1  0  0  0
  1  2  1  0  0  0
  2  3  1  0  0  0
  3  4  1  0  0  0
  4  5  1  0  0  0
  5  6  2  0  0  0
  6  7  1  0  0  0
  7 24  1  0  0  0
 24 25  1  0  0  0
 25 26  2  0  0  0
 26 27  1  0  0  0
 27 28  2  0  0  0
 28 29  1  0  0  0
  7  8  2  0  0  0
  8  9  1  0  0  0
  9 10  2  0  0  0
 19 14  1  0  0  0
 10  1  1  0  0  0
 10  5  1  0  0  0
 29 25  1  0  0  0
 22 23  1  0  0  0
 12 13  1  0  0  0
M  END
> <minimizedAffinity>
-7.27907

> <CNNscore>
0.1346107125

> <CNNaffinity>
5.9425516129

> <CNN_VS>
0.7999311090

> <CNNaffinity_variance>
0.1704372615

$$$$
[H]OC(=O)c1c([H])c([H])nc([H])c1N([H])C([H])([H])C1([H])c2c([H])c([H])c(Sc3sc([H])c([H])c3[H])c([H])c2OC([H])([H])C1([H])[H]


 29 32  0  0  0  0  0  0  0  0999 V2000
   39.4230   13.0168  -16.5521 C   0  0  0  0  0  0  0  0  0  0  0  0
   40.0799   12.8810  -17.9166 C   0  0  0  0  0  0  0  0  0  0  0  0
   41.1103   11.7948  -17.8854 C   0  0  0  0  0  0  0  0  0  0  0  0
   41.9870   11.9536  -16.8110 O   0  0  0  0  0  0  0  0  0  0  0  0
   41.7432   12.8319  -15.7551 C   0  0  0  0  0  0  0  0  0  0  0  0
   42.7717   13.1572  -14.8616 C   0  0  0  0  0  0  0  0  0  0  0  0
   42.5582   14.0240  -13.8070 C   0  0  0  0  0  0  0  0  0  0  0  0
   41.2931   14.5564  -13.6684 C   0  0  0  0  0  0  0  0  0  0  0  0
   40.2611   14.2357  -14.5574 C   0  0  0  0  0  0  0  0  0  0  0  0
   40.5030   13.3770  -15.5884 C   0  0  0  0  0  0  0  0  0  0  0  0
   38.8099   11.6861  -16.2113 C   0  0  0  0  0  0  0  0  0  0  0  0
   37.7457   11.7835  -15.2152 N   0  0  0  0  0  0  0  0  0  0  0  0
   38.0130   11.9276  -14.2252 H   0  0  0  0  0  0  0  0  0  0  0  0
   35.3501   11.9361  -14.6702 C   0  0  0  0  0  0  0  0  0  0  0  0
   34.0286   11.7101  -15.1182 C   0  0  0  0  0  0  0  0  0  0  0  0
   33.7551   11.2394  -16.3680 C   0  0  0  0  0  0  0  0  0  0  0  0
   34.7639   10.9826  -17.1970 N   0  0  0  0  0  0  0  0  0  0  0  0
   36.0339   11.1773  -16.8250 C   0  0  0  0  0  0  0  0  0  0  0  0
   36.3682   11.6595  -15.5514 C   0  0  0  0  0  0  0  0  0  0  0  0
   36.6139   12.4866  -12.7229 O   0  0  0  0  0  0  0  0  0  0  0  0
   35.5613   12.4674  -13.3531 C   0  0  0  0  0  0  0  0  0  0  0  0
   34.4565   13.0362  -12.6841 O   0  0  0  0  0  0  0  0  0  0  0  0
   34.0500   12.6089  -11.8689 H   0  0  0  0  0  0  0  0  0  0  0  0
   43.9106   14.3843  -12.7219 S   0  0  0  0  0  0  0  0  0  0  0  0
   44.6251   16.0013  -13.0888 C   0  0  0  0  0  0  0  0  0  0  0  0
   44.1381   17.2281  -12.7119 C   0  0  0  0  0  0  0  0  0  0  0  0
   44.8417   18.3083  -13.1012 C   0  0  0  0  0  0  0  0  0  0  0  0
   45.9773   18.0858  -13.8366 C   0  0  0  0  0  0  0  0  0  0  0  0
   46.0293   16.3906  -13.9620 S   0  0  0  0  0  0  0  0  0  0  0  0
 20 21  2  0  0  0
 21 22  1  0  0  0
 21 14  1  0  0  0
 14 15  2  0  0  0
 15 16  1  0  0  0
 16 17  2  0  0  0
 17 18  1  0  0  0
 18 19  2  0  0  0
 19 12  1  0  0  0
 12 11  1  0  0  0
 11  1  1  0  0  0
  1  2  1  0  0  0
  2  3  1  0  0  0
  3  4  1  0  0  0
  4  5  1  0  0  0
  5  6  2  0  0  0
  6  7  1  0  0  0
  7 24  1  0  0  0
 24 25  1  0  0  0
 25 26  2  0  0  0
 26 27  1  0  0  0
 27 28  2  0  0  0
 28 29  1  0  0  0
  7  8  2  0  0  0
  8  9  1  0  0  0
  9 10  2  0  0  0
 19 14  1  0  0  0
 10  1  1  0  0  0
 10  5  1  0  0  0
 29 25  1  0  0  0
 22 23  1  0  0  0
 12 13  1  0  0  0
M  END
> <minimizedAffinity>
-7.99393

> <CNNscore>
0.1244719177

> <CNNaffinity>
6.0101714134

> <CNN_VS>
0.7480975389

> <CNNaffinity_variance>
0.0848204941

$$$$
[H]N=c1c(C(=O)N([H])C([H])([H])c2oc([H])c([H])c2[H])c([H])c2c(=O)n3c([H])c([H])c([H])c([H])c3nc2n1C([H])([H])c1c([H])c([H])c(C([H])([H])[H])c([H])c1[H]


 35 39  0  0  0  0  0  0  0  0999 V2000
   40.0773   13.8182  -13.9480 N   0  0  0  0  0  0  0  0  0  0  0  0
   41.3724   14.1980  -13.7775 C   0  0  0  0  0  0  0  0  0  0  0  0
   41.6095   14.9306  -12.7902 N   0  0  0  0  0  0  0  0  0  0  0  0
   42.3857   13.8782  -14.6434 C   0  0  0  0  0  0  0  0  0  0  0  0
   42.0364   13.1184  -15.7648 C   0  0  0  0  0  0  0  0  0  0  0  0
   40.7554   12.7236  -15.9696 C   0  0  0  0  0  0  0  0  0  0  0  0
   40.4322   11.9922  -17.0848 C   0  0  0  0  0  0  0  0  0  0  0  0
   41.3021   11.6587  -17.9259 O   0  0  0  0  0  0  0  0  0  0  0  0
   39.1613   11.6154  -17.2981 N   0  0  0  0  0  0  0  0  0  0  0  0
   38.8285   10.8965  -18.3893 C   0  0  0  0  0  0  0  0  0  0  0  0
   37.5553   10.4905  -18.6504 C   0  0  0  0  0  0  0  0  0  0  0  0
   36.5438   10.8278  -17.7565 C   0  0  0  0  0  0  0  0  0  0  0  0
   36.9175   11.5607  -16.6552 C   0  0  0  0  0  0  0  0  0  0  0  0
   38.2118   11.9629  -16.4071 C   0  0  0  0  0  0  0  0  0  0  0  0
   38.5480   12.6773  -15.3229 N   0  0  0  0  0  0  0  0  0  0  0  0
   39.7982   13.0904  -15.0404 C   0  0  0  0  0  0  0  0  0  0  0  0
   42.4253   15.3535  -12.4209 H   0  0  0  0  0  0  0  0  0  0  0  0
   43.7909   14.1510  -14.4885 C   0  0  0  0  0  0  0  0  0  0  0  0
   44.4531   14.2222  -15.6022 O   0  0  0  0  0  0  0  0  0  0  0  0
   44.5067   14.3364  -13.2925 N   0  0  0  0  0  0  0  0  0  0  0  0
   44.0291   14.2501  -12.3854 H   0  0  0  0  0  0  0  0  0  0  0  0
   45.9377   14.6177  -13.2861 C   0  0  0  0  0  0  0  0  0  0  0  0
   46.2215   16.0543  -13.4084 C   0  0  0  0  0  0  0  0  0  0  0  0
   45.7580   17.0621  -12.6071 C   0  0  0  0  0  0  0  0  0  0  0  0
   46.2840   18.2673  -13.0953 C   0  0  0  0  0  0  0  0  0  0  0  0
   47.0429   17.8988  -14.1774 C   0  0  0  0  0  0  0  0  0  0  0  0
   46.9787   16.6100  -14.3229 O   0  0  0  0  0  0  0  0  0  0  0  0
   39.0500   14.2132  -13.0283 C   0  0  0  0  0  0  0  0  0  0  0  0
   33.5388   12.9010  -14.2851 C   0  0  0  0  0  0  0  0  0  0  0  0
   34.9506   13.2889  -14.0111 C   0  0  0  0  0  0  0  0  0  0  0  0
   35.5461   14.3912  -14.5285 C   0  0  0  0  0  0  0  0  0  0  0  0
   36.8852   14.7024  -14.2268 C   0  0  0  0  0  0  0  0  0  0  0  0
   37.6556   13.9248  -13.4068 C   0  0  0  0  0  0  0  0  0  0  0  0
   37.0090   12.7945  -12.8891 C   0  0  0  0  0  0  0  0  0  0  0  0
   35.6881   12.4823  -13.1836 C   0  0  0  0  0  0  0  0  0  0  0  0
 29 30  1  0  0  0
 30 31  2  0  0  0
 31 32  1  0  0  0
 32 33  2  0  0  0
 33 28  1  0  0  0
 28  1  1  0  0  0
  1  2  1  0  0  0
  2  3  2  0  0  0
  2  4  1  0  0  0
  4 18  1  0  0  0
 18 19  2  0  0  0
 18 20  1  0  0  0
 20 22  1  0  0  0
 22 23  1  0  0  0
 23 24  2  0  0  0
 24 25  1  0  0  0
 25 26  2  0  0  0
 26 27  1  0  0  0
  4  5  2  0  0  0
  5  6  1  0  0  0
  6  7  1  0  0  0
  7  8  2  0  0  0
  7  9  1  0  0  0
  9 10  1  0  0  0
 10 11  2  0  0  0
 11 12  1  0  0  0
 12 13  2  0  0  0
 13 14  1  0  0  0
 14 15  2  0  0  0
 15 16  1  0  0  0
 33 34  1  0  0  0
 34 35  2  0  0  0
 35 30  1  0  0  0
 16  1  1  0  0  0
 27 23  1  0  0  0
 16  6  2  0  0  0
 14  9  1  0  0  0
  3 17  1  0  0  0
 20 21  1  0  0  0
M  END
> <minimizedAffinity>
-9.10658

> <CNNscore>
0.5600260496

> <CNNaffinity>
7.2021303177

> <CNN_VS>
4.0333805084

> <CNNaffinity_variance>
0.4686187804

$$$$
[H]N=c1c(C(=O)N([H])C([H])([H])c2oc([H])c([H])c2[H])c([H])c2c(=O)n3c([H])c([H])c([H])c([H])c3nc2n1C([H])([H])c1c([H])c([H])c(C([H])([H])[H])c([H])c1[H]


 35 39  0  0  0  0  0  0  0  0999 V2000
   37.7638   14.9913   -8.6982 N   0  0  0  0  0  0  0  0  0  0  0  0
   38.9797   14.5120   -8.3207 C   0  0  0  0  0  0  0  0  0  0  0  0
   39.9235   14.7037   -9.1210 N   0  0  0  0  0  0  0  0  0  0  0  0
   39.1994   13.7972   -7.1720 C   0  0  0  0  0  0  0  0  0  0  0  0
   38.0859   13.5567   -6.3601 C   0  0  0  0  0  0  0  0  0  0  0  0
   36.8577   14.0167   -6.7047 C   0  0  0  0  0  0  0  0  0  0  0  0
   35.7764   13.7556   -5.9013 C   0  0  0  0  0  0  0  0  0  0  0  0
   35.8937   13.1079   -4.8326 O   0  0  0  0  0  0  0  0  0  0  0  0
   34.5565   14.1952   -6.2499 N   0  0  0  0  0  0  0  0  0  0  0  0
   33.4846   13.9464   -5.4707 C   0  0  0  0  0  0  0  0  0  0  0  0
   32.2280   14.3701   -5.7799 C   0  0  0  0  0  0  0  0  0  0  0  0
   32.0304   15.0938   -6.9518 C   0  0  0  0  0  0  0  0  0  0  0  0
   33.1440   15.3296   -7.7224 C   0  0  0  0  0  0  0  0  0  0  0  0
   34.4086   14.8928   -7.3933 C   0  0  0  0  0  0  0  0  0  0  0  0
   35.4781   15.1384   -8.1646 N   0  0  0  0  0  0  0  0  0  0  0  0
   36.7305   14.7322   -7.8820 C   0  0  0  0  0  0  0  0  0  0  0  0
   40.8875   14.4770   -9.1228 H   0  0  0  0  0  0  0  0  0  0  0  0
   40.4616   13.3425   -6.6495 C   0  0  0  0  0  0  0  0  0  0  0  0
   40.9994   14.1332   -5.7723 O   0  0  0  0  0  0  0  0  0  0  0  0
   41.1604   12.1688   -6.9830 N   0  0  0  0  0  0  0  0  0  0  0  0
   40.7897   11.5327   -7.7017 H   0  0  0  0  0  0  0  0  0  0  0  0
   42.4353   11.8278   -6.3621 C   0  0  0  0  0  0  0  0  0  0  0  0
   42.2779   10.8626   -5.2653 C   0  0  0  0  0  0  0  0  0  0  0  0
   43.0628    9.7733   -5.0006 C   0  0  0  0  0  0  0  0  0  0  0  0
   42.5417    9.1426   -3.8612 C   0  0  0  0  0  0  0  0  0  0  0  0
   41.4583    9.9076   -3.5090 C   0  0  0  0  0  0  0  0  0  0  0  0
   41.3420   10.8919   -4.3479 O   0  0  0  0  0  0  0  0  0  0  0  0
   37.5848   15.7021   -9.9310 C   0  0  0  0  0  0  0  0  0  0  0  0
   36.7559   12.5096  -14.7055 C   0  0  0  0  0  0  0  0  0  0  0  0
   37.0321   13.3471  -13.5050 C   0  0  0  0  0  0  0  0  0  0  0  0
   38.1014   14.1718  -13.3881 C   0  0  0  0  0  0  0  0  0  0  0  0
   38.3028   14.9394  -12.2255 C   0  0  0  0  0  0  0  0  0  0  0  0
   37.4464   14.9011  -11.1598 C   0  0  0  0  0  0  0  0  0  0  0  0
   36.3521   14.0394  -11.3145 C   0  0  0  0  0  0  0  0  0  0  0  0
   36.1487   13.2794  -12.4590 C   0  0  0  0  0  0  0  0  0  0  0  0
 29 30  1  0  0  0
 30 31  2  0  0  0
 31 32  1  0  0  0
 32 33  2  0  0  0
 33 28  1  0  0  0
 28  1  1  0  0  0
  1  2  1  0  0  0
  2  3  2  0  0  0
  2  4  1  0  0  0
  4 18  1  0  0  0
 18 19  2  0  0  0
 18 20  1  0  0  0
 20 22  1  0  0  0
 22 23  1  0  0  0
 23 24  2  0  0  0
 24 25  1  0  0  0
 25 26  2  0  0  0
 26 27  1  0  0  0
  4  5  2  0  0  0
  5  6  1  0  0  0
  6  7  1  0  0  0
  7  8  2  0  0  0
  7  9  1  0  0  0
  9 10  1  0  0  0
 10 11  2  0  0  0
 11 12  1  0  0  0
 12 13  2  0  0  0
 13 14  1  0  0  0
 14 15  2  0  0  0
 15 16  1  0  0  0
 33 34  1  0  0  0
 34 35  2  0  0  0
 35 30  1  0  0  0
 16  1  1  0  0  0
 27 23  1  0  0  0
 16  6  2  0  0  0
 14  9  1  0  0  0
  3 17  1  0  0  0
 20 21  1  0  0  0
M  END
> <minimizedAffinity>
-8.42485

> <CNNscore>
0.1141448617

> <CNNaffinity>
5.2202377319

> <CNN_VS>
0.5958633423

> <CNNaffinity_variance>
0.4083746970

$$$$
[H]N=c1c(C(=O)N([H])C([H])([H])c2oc([H])c([H])c2[H])c([H])c2c(=O)n3c([H])c([H])c([H])c([H])c3nc2n1C([H])([H])c1c([H])c([H])c(C([H])([H])[H])c([H])c1[H]


 35 39  0  0  0  0  0  0  0  0999 V2000
   39.0896   14.9392  -13.0796 N   0  0  0  0  0  0  0  0  0  0  0  0
   40.1155   15.5744  -12.4515 C   0  0  0  0  0  0  0  0  0  0  0  0
   39.7965   16.4065  -11.5718 N   0  0  0  0  0  0  0  0  0  0  0  0
   41.4369   15.3978  -12.7702 C   0  0  0  0  0  0  0  0  0  0  0  0
   41.7174   14.5080  -13.8125 C   0  0  0  0  0  0  0  0  0  0  0  0
   40.7209   13.8584  -14.4635 C   0  0  0  0  0  0  0  0  0  0  0  0
   41.0179   13.0019  -15.4937 C   0  0  0  0  0  0  0  0  0  0  0  0
   42.2027   12.7857  -15.8468 O   0  0  0  0  0  0  0  0  0  0  0  0
   40.0314   12.3712  -16.1509 N   0  0  0  0  0  0  0  0  0  0  0  0
   40.3077   11.5268  -17.1652 C   0  0  0  0  0  0  0  0  0  0  0  0
   39.3439   10.8639  -17.8622 C   0  0  0  0  0  0  0  0  0  0  0  0
   38.0096   11.0599  -17.5200 C   0  0  0  0  0  0  0  0  0  0  0  0
   37.7635   11.9267  -16.4819 C   0  0  0  0  0  0  0  0  0  0  0  0
   38.7522   12.5892  -15.7875 C   0  0  0  0  0  0  0  0  0  0  0  0
   38.4826   13.4294  -14.7774 N   0  0  0  0  0  0  0  0  0  0  0  0
   39.4156   14.0963  -14.0717 C   0  0  0  0  0  0  0  0  0  0  0  0
   40.3036   17.0046  -10.9671 H   0  0  0  0  0  0  0  0  0  0  0  0
   42.5834   15.9486  -12.0955 C   0  0  0  0  0  0  0  0  0  0  0  0
   42.6967   15.5997  -10.8508 O   0  0  0  0  0  0  0  0  0  0  0  0
   43.5642   16.8072  -12.6228 N   0  0  0  0  0  0  0  0  0  0  0  0
   43.4923   17.1399  -13.5937 H   0  0  0  0  0  0  0  0  0  0  0  0
   44.6847   17.2830  -11.8197 C   0  0  0  0  0  0  0  0  0  0  0  0
   45.9055   16.4983  -12.0501 C   0  0  0  0  0  0  0  0  0  0  0  0
   46.9043   16.7632  -12.9474 C   0  0  0  0  0  0  0  0  0  0  0  0
   47.8665   15.7505  -12.8212 C   0  0  0  0  0  0  0  0  0  0  0  0
   47.3748   14.9283  -11.8389 C   0  0  0  0  0  0  0  0  0  0  0  0
   46.2386   15.3977  -11.4207 O   0  0  0  0  0  0  0  0  0  0  0  0
   37.7217   15.1905  -12.7291 C   0  0  0  0  0  0  0  0  0  0  0  0
   33.7608   11.4455  -14.7191 C   0  0  0  0  0  0  0  0  0  0  0  0
   34.7873   12.3644  -14.1528 C   0  0  0  0  0  0  0  0  0  0  0  0
   35.5620   12.0646  -13.0817 C   0  0  0  0  0  0  0  0  0  0  0  0
   36.5169   12.9785  -12.5977 C   0  0  0  0  0  0  0  0  0  0  0  0
   36.7186   14.2049  -13.1685 C   0  0  0  0  0  0  0  0  0  0  0  0
   35.9020   14.4817  -14.2731 C   0  0  0  0  0  0  0  0  0  0  0  0
   34.9580   13.5841  -14.7548 C   0  0  0  0  0  0  0  0  0  0  0  0
 29 30  1  0  0  0
 30 31  2  0  0  0
 31 32  1  0  0  0
 32 33  2  0  0  0
 33 28  1  0  0  0
 28  1  1  0  0  0
  1  2  1  0  0  0
  2  3  2  0  0  0
  2  4  1  0  0  0
  4 18  1  0  0  0
 18 19  2  0  0  0
 18 20  1  0  0  0
 20 22  1  0  0  0
 22 23  1  0  0  0
 23 24  2  0  0  0
 24 25  1  0  0  0
 25 26  2  0  0  0
 26 27  1  0  0  0
  4  5  2  0  0  0
  5  6  1  0  0  0
  6  7  1  0  0  0
  7  8  2  0  0  0
  7  9  1  0  0  0
  9 10  1  0  0  0
 10 11  2  0  0  0
 11 12  1  0  0  0
 12 13  2  0  0  0
 13 14  1  0  0  0
 14 15  2  0  0  0
 15 16  1  0  0  0
 33 34  1  0  0  0
 34 35  2  0  0  0
 35 30  1  0  0  0
 16  1  1  0  0  0
 27 23  1  0  0  0
 16  6  2  0  0  0
 14  9  1  0  0  0
  3 17  1  0  0  0
 20 21  1  0  0  0
M  END
> <minimizedAffinity>
-8.89555

> <CNNscore>
0.1079808697

> <CNNaffinity>
6.3002877235

> <CNN_VS>
0.6803105474

> <CNNaffinity_variance>
0.1768929511

$$$$
[H]N=c1c(C(=O)N([H])C([H])([H])c2oc([H])c([H])c2[H])c([H])c2c(=O)n3c([H])c([H])c([H])c([H])c3nc2n1C([H])([H])c1c([H])c([H])c(C([H])([H])[H])c([H])c1[H]


 35 39  0  0  0  0  0  0  0  0999 V2000
   38.1553   14.4820  -13.8773 N   0  0  0  0  0  0  0  0  0  0  0  0
   39.5110   14.5576  -13.9599 C   0  0  0  0  0  0  0  0  0  0  0  0
   40.0511   15.5081  -13.3494 N   0  0  0  0  0  0  0  0  0  0  0  0
   40.2824   13.7063  -14.7076 C   0  0  0  0  0  0  0  0  0  0  0  0
   39.6068   12.7121  -15.4230 C   0  0  0  0  0  0  0  0  0  0  0  0
   38.2560   12.6071  -15.3672 C   0  0  0  0  0  0  0  0  0  0  0  0
   37.6124   11.6341  -16.0896 C   0  0  0  0  0  0  0  0  0  0  0  0
   38.2466   10.8155  -16.7989 O   0  0  0  0  0  0  0  0  0  0  0  0
   36.2736   11.5398  -16.0493 N   0  0  0  0  0  0  0  0  0  0  0  0
   35.6272   10.5890  -16.7538 C   0  0  0  0  0  0  0  0  0  0  0  0
   34.2725   10.4520  -16.7462 C   0  0  0  0  0  0  0  0  0  0  0  0
   33.5110   11.3285  -15.9795 C   0  0  0  0  0  0  0  0  0  0  0  0
   34.2014   12.2852  -15.2741 C   0  0  0  0  0  0  0  0  0  0  0  0
   35.5736   12.4088  -15.2938 C   0  0  0  0  0  0  0  0  0  0  0  0
   36.2212   13.3523  -14.5943 N   0  0  0  0  0  0  0  0  0  0  0  0
   37.5587   13.5090  -14.5833 C   0  0  0  0  0  0  0  0  0  0  0  0
   40.9854   15.8140  -13.2309 H   0  0  0  0  0  0  0  0  0  0  0  0
   41.7198   13.6522  -14.7714 C   0  0  0  0  0  0  0  0  0  0  0  0
   42.1929   13.1380  -15.8649 O   0  0  0  0  0  0  0  0  0  0  0  0
   42.6428   14.0782  -13.8000 N   0  0  0  0  0  0  0  0  0  0  0  0
   42.3113   14.4562  -12.9023 H   0  0  0  0  0  0  0  0  0  0  0  0
   44.0827   13.9705  -14.0049 C   0  0  0  0  0  0  0  0  0  0  0  0
   44.7257   13.1224  -12.9915 C   0  0  0  0  0  0  0  0  0  0  0  0
   44.2651   12.8386  -11.7345 C   0  0  0  0  0  0  0  0  0  0  0  0
   45.2007   11.9921  -11.1217 C   0  0  0  0  0  0  0  0  0  0  0  0
   46.1800   11.8191  -12.0671 C   0  0  0  0  0  0  0  0  0  0  0  0
   45.8654   12.4905  -13.1332 O   0  0  0  0  0  0  0  0  0  0  0  0
   37.3946   15.4236  -13.1080 C   0  0  0  0  0  0  0  0  0  0  0  0
   36.8449   14.3883   -7.4247 C   0  0  0  0  0  0  0  0  0  0  0  0
   37.0499   14.6812   -8.8707 C   0  0  0  0  0  0  0  0  0  0  0  0
   38.2248   15.1047   -9.3974 C   0  0  0  0  0  0  0  0  0  0  0  0
   38.3523   15.3614  -10.7755 C   0  0  0  0  0  0  0  0  0  0  0  0
   37.3158   15.2023  -11.6535 C   0  0  0  0  0  0  0  0  0  0  0  0
   36.1170   14.7630  -11.0759 C   0  0  0  0  0  0  0  0  0  0  0  0
   35.9854   14.5085   -9.7170 C   0  0  0  0  0  0  0  0  0  0  0  0
 29 30  1  0  0  0
 30 31  2  0  0  0
 31 32  1  0  0  0
 32 33  2  0  0  0
 33 28  1  0  0  0
 28  1  1  0  0  0
  1  2  1  0  0  0
  2  3  2  0  0  0
  2  4  1  0  0  0
  4 18  1  0  0  0
 18 19  2  0  0  0
 18 20  1  0  0  0
 20 22  1  0  0  0
 22 23  1  0  0  0
 23 24  2  0  0  0
 24 25  1  0  0  0
 25 26  2  0  0  0
 26 27  1  0  0  0
  4  5  2  0  0  0
  5  6  1  0  0  0
  6  7  1  0  0  0
  7  8  2  0  0  0
  7  9  1  0  0  0
  9 10  1  0  0  0
 10 11  2  0  0  0
 11 12  1  0  0  0
 12 13  2  0  0  0
 13 14  1  0  0  0
 14 15  2  0  0  0
 15 16  1  0  0  0
 33 34  1  0  0  0
 34 35  2  0  0  0
 35 30  1  0  0  0
 16  1  1  0  0  0
 27 23  1  0  0  0
 16  6  2  0  0  0
 14  9  1  0  0  0
  3 17  1  0  0  0
 20 21  1  0  0  0
M  END
> <minimizedAffinity>
-9.09029

> <CNNscore>
0.0844283402

> <CNNaffinity>
6.2318925858

> <CNN_VS>
0.5261483192

> <CNNaffinity_variance>
0.2214399874

$$$$
[H]N=c1c(C(=O)N([H])C([H])([H])c2oc([H])c([H])c2[H])c([H])c2c(=O)n3c([H])c([H])c([H])c([H])c3nc2n1C([H])([H])c1c([H])c([H])c(C([H])([H])[H])c([H])c1[H]


 35 39  0  0  0  0  0  0  0  0999 V2000
   37.1573   15.5886   -9.6532 N   0  0  0  0  0  0  0  0  0  0  0  0
   35.8339   15.8291   -9.4502 C   0  0  0  0  0  0  0  0  0  0  0  0
   35.2441   16.4739  -10.3470 N   0  0  0  0  0  0  0  0  0  0  0  0
   35.1532   15.4653   -8.3175 C   0  0  0  0  0  0  0  0  0  0  0  0
   35.8912   14.8127   -7.3243 C   0  0  0  0  0  0  0  0  0  0  0  0
   37.2127   14.5578   -7.4900 C   0  0  0  0  0  0  0  0  0  0  0  0
   37.9209   13.9305   -6.4960 C   0  0  0  0  0  0  0  0  0  0  0  0
   37.3711   13.5655   -5.4284 O   0  0  0  0  0  0  0  0  0  0  0  0
   39.2333   13.6931   -6.6512 N   0  0  0  0  0  0  0  0  0  0  0  0
   39.9424   13.0777   -5.6833 C   0  0  0  0  0  0  0  0  0  0  0  0
   41.2739   12.8144   -5.7925 C   0  0  0  0  0  0  0  0  0  0  0  0
   41.9429   13.1938   -6.9520 C   0  0  0  0  0  0  0  0  0  0  0  0
   41.1903   13.8185   -7.9179 C   0  0  0  0  0  0  0  0  0  0  0  0
   39.8430   14.0768   -7.7900 C   0  0  0  0  0  0  0  0  0  0  0  0
   39.1331   14.6878   -8.7501 N   0  0  0  0  0  0  0  0  0  0  0  0
   37.8166   14.9591   -8.6683 C   0  0  0  0  0  0  0  0  0  0  0  0
   34.3151   16.7920  -10.4750 H   0  0  0  0  0  0  0  0  0  0  0  0
   33.7413   15.5898   -8.0643 C   0  0  0  0  0  0  0  0  0  0  0  0
   33.3203   16.8111   -7.9419 O   0  0  0  0  0  0  0  0  0  0  0  0
   32.7948   14.5586   -7.9312 N   0  0  0  0  0  0  0  0  0  0  0  0
   33.0913   13.5747   -7.9825 H   0  0  0  0  0  0  0  0  0  0  0  0
   31.3843   14.8340   -7.6830 C   0  0  0  0  0  0  0  0  0  0  0  0
   30.6248   13.6124   -7.3825 C   0  0  0  0  0  0  0  0  0  0  0  0
   29.4018   13.2530   -7.8803 C   0  0  0  0  0  0  0  0  0  0  0  0
   29.0644   12.0122   -7.3201 C   0  0  0  0  0  0  0  0  0  0  0  0
   30.1255   11.7009   -6.5077 C   0  0  0  0  0  0  0  0  0  0  0  0
   31.0053   12.6537   -6.5734 O   0  0  0  0  0  0  0  0  0  0  0  0
   37.8276   16.0252  -10.8436 C   0  0  0  0  0  0  0  0  0  0  0  0
   38.2914   12.0397  -15.0358 C   0  0  0  0  0  0  0  0  0  0  0  0
   38.2354   13.0878  -13.9789 C   0  0  0  0  0  0  0  0  0  0  0  0
   39.1300   14.1003  -13.8699 C   0  0  0  0  0  0  0  0  0  0  0  0
   39.0182   15.0612  -12.8474 C   0  0  0  0  0  0  0  0  0  0  0  0
   38.0168   15.0331  -11.9163 C   0  0  0  0  0  0  0  0  0  0  0  0
   37.1097   13.9744  -12.0588 C   0  0  0  0  0  0  0  0  0  0  0  0
   37.2154   13.0233  -13.0653 C   0  0  0  0  0  0  0  0  0  0  0  0
 29 30  1  0  0  0
 30 31  2  0  0  0
 31 32  1  0  0  0
 32 33  2  0  0  0
 33 28  1  0  0  0
 28  1  1  0  0  0
  1  2  1  0  0  0
  2  3  2  0  0  0
  2  4  1  0  0  0
  4 18  1  0  0  0
 18 19  2  0  0  0
 18 20  1  0  0  0
 20 22  1  0  0  0
 22 23  1  0  0  0
 23 24  2  0  0  0
 24 25  1  0  0  0
 25 26  2  0  0  0
 26 27  1  0  0  0
  4  5  2  0  0  0
  5  6  1  0  0  0
  6  7  1  0  0  0
  7  8  2  0  0  0
  7  9  1  0  0  0
  9 10  1  0  0  0
 10 11  2  0  0  0
 11 12  1  0  0  0
 12 13  2  0  0  0
 13 14  1  0  0  0
 14 15  2  0  0  0
 15 16  1  0  0  0
 33 34  1  0  0  0
 34 35  2  0  0  0
 35 30  1  0  0  0
 16  1  1  0  0  0
 27 23  1  0  0  0
 16  6  2  0  0  0
 14  9  1  0  0  0
  3 17  1  0  0  0
 20 21  1  0  0  0
M  END
> <minimizedAffinity>
-8.04833

> <CNNscore>
0.0770910978

> <CNNaffinity>
5.4556746483

> <CNN_VS>
0.4205839336

> <CNNaffinity_variance>
0.3556533456

$$$$
[H]N=c1c(C(=O)N([H])C([H])([H])c2oc([H])c([H])c2[H])c([H])c2c(=O)n3c([H])c([H])c([H])c([H])c3nc2n1C([H])([H])c1c([H])c([H])c(C([H])([H])[H])c([H])c1[H]


 35 39  0  0  0  0  0  0  0  0999 V2000
   37.4866   15.0795  -12.8382 N   0  0  0  0  0  0  0  0  0  0  0  0
   38.8236   15.3107  -12.7408 C   0  0  0  0  0  0  0  0  0  0  0  0
   39.1687   16.2666  -12.0093 N   0  0  0  0  0  0  0  0  0  0  0  0
   39.7758   14.6087  -13.4332 C   0  0  0  0  0  0  0  0  0  0  0  0
   39.3150   13.6024  -14.2887 C   0  0  0  0  0  0  0  0  0  0  0  0
   37.9896   13.3446  -14.4137 C   0  0  0  0  0  0  0  0  0  0  0  0
   37.5588   12.3633  -15.2707 C   0  0  0  0  0  0  0  0  0  0  0  0
   38.3672   11.6756  -15.9407 O   0  0  0  0  0  0  0  0  0  0  0  0
   36.2459   12.1186  -15.4089 N   0  0  0  0  0  0  0  0  0  0  0  0
   35.8075   11.1577  -16.2472 C   0  0  0  0  0  0  0  0  0  0  0  0
   34.4878   10.8713  -16.4224 C   0  0  0  0  0  0  0  0  0  0  0  0
   33.5402   11.5980  -15.7084 C   0  0  0  0  0  0  0  0  0  0  0  0
   34.0212   12.5696  -14.8632 C   0  0  0  0  0  0  0  0  0  0  0  0
   35.3610   12.8455  -14.6985 C   0  0  0  0  0  0  0  0  0  0  0  0
   35.8021   13.7996  -13.8655 N   0  0  0  0  0  0  0  0  0  0  0  0
   37.1001   14.1023  -13.6729 C   0  0  0  0  0  0  0  0  0  0  0  0
   40.0386   16.6644  -11.7531 H   0  0  0  0  0  0  0  0  0  0  0  0
   41.2065   14.7192  -13.3146 C   0  0  0  0  0  0  0  0  0  0  0  0
   41.6467   15.9346  -13.2011 O   0  0  0  0  0  0  0  0  0  0  0  0
   42.1546   13.6809  -13.3158 N   0  0  0  0  0  0  0  0  0  0  0  0
   41.8530   12.7054  -13.4423 H   0  0  0  0  0  0  0  0  0  0  0  0
   43.5828   13.9409  -13.1771 C   0  0  0  0  0  0  0  0  0  0  0  0
   44.3501   13.4562  -14.3328 C   0  0  0  0  0  0  0  0  0  0  0  0
   43.8602   13.0754  -15.5525 C   0  0  0  0  0  0  0  0  0  0  0  0
   44.9506   12.6864  -16.3443 C   0  0  0  0  0  0  0  0  0  0  0  0
   46.0445   12.8619  -15.5347 C   0  0  0  0  0  0  0  0  0  0  0  0
   45.6518   13.3083  -14.3802 O   0  0  0  0  0  0  0  0  0  0  0  0
   36.5316   15.8705  -12.1175 C   0  0  0  0  0  0  0  0  0  0  0  0
   35.1536   14.4047   -6.6745 C   0  0  0  0  0  0  0  0  0  0  0  0
   35.5735   14.7602   -8.0587 C   0  0  0  0  0  0  0  0  0  0  0  0
   36.7853   14.4546   -8.5834 C   0  0  0  0  0  0  0  0  0  0  0  0
   37.1185   14.8180   -9.9018 C   0  0  0  0  0  0  0  0  0  0  0  0
   36.2545   15.4907  -10.7212 C   0  0  0  0  0  0  0  0  0  0  0  0
   35.0113   15.7898  -10.1477 C   0  0  0  0  0  0  0  0  0  0  0  0
   34.6774   15.4342   -8.8474 C   0  0  0  0  0  0  0  0  0  0  0  0
 29 30  1  0  0  0
 30 31  2  0  0  0
 31 32  1  0  0  0
 32 33  2  0  0  0
 33 28  1  0  0  0
 28  1  1  0  0  0
  1  2  1  0  0  0
  2  3  2  0  0  0
  2  4  1  0  0  0
  4 18  1  0  0  0
 18 19  2  0  0  0
 18 20  1  0  0  0
 20 22  1  0  0  0
 22 23  1  0  0  0
 23 24  2  0  0  0
 24 25  1  0  0  0
 25 26  2  0  0  0
 26 27  1  0  0  0
  4  5  2  0  0  0
  5  6  1  0  0  0
  6  7  1  0  0  0
  7  8  2  0  0  0
  7  9  1  0  0  0
  9 10  1  0  0  0
 10 11  2  0  0  0
 11 12  1  0  0  0
 12 13  2  0  0  0
 13 14  1  0  0  0
 14 15  2  0  0  0
 15 16  1  0  0  0
 33 34  1  0  0  0
 34 35  2  0  0  0
 35 30  1  0  0  0
 16  1  1  0  0  0
 27 23  1  0  0  0
 16  6  2  0  0  0
 14  9  1  0  0  0
  3 17  1  0  0  0
 20 21  1  0  0  0
M  END
> <minimizedAffinity>
-9.12889

> <CNNscore>
0.0691436753

> <CNNaffinity>
6.1860442162

> <CNN_VS>
0.4277258217

> <CNNaffinity_variance>
0.1830931753

$$$$
[H]N=c1c(C(=O)N([H])C([H])([H])c2oc([H])c([H])c2[H])c([H])c2c(=O)n3c([H])c([H])c([H])c([H])c3nc2n1C([H])([H])c1c([H])c([H])c(C([H])([H])[H])c([H])c1[H]


 35 39  0  0  0  0  0  0  0  0999 V2000
   41.1310   14.9196  -12.7617 N   0  0  0  0  0  0  0  0  0  0  0  0
   39.7730   14.8511  -12.8026 C   0  0  0  0  0  0  0  0  0  0  0  0
   39.1620   15.3965  -11.8555 N   0  0  0  0  0  0  0  0  0  0  0  0
   39.0677   14.1802  -13.7677 C   0  0  0  0  0  0  0  0  0  0  0  0
   39.8166   13.5315  -14.7552 C   0  0  0  0  0  0  0  0  0  0  0  0
   41.1719   13.5756  -14.7459 C   0  0  0  0  0  0  0  0  0  0  0  0
   41.8869   12.9188  -15.7155 C   0  0  0  0  0  0  0  0  0  0  0  0
   41.3161   12.2818  -16.6341 O   0  0  0  0  0  0  0  0  0  0  0  0
   43.2292   12.9468  -15.6977 N   0  0  0  0  0  0  0  0  0  0  0  0
   43.9454   12.3061  -16.6437 C   0  0  0  0  0  0  0  0  0  0  0  0
   45.3069   12.3046  -16.6695 C   0  0  0  0  0  0  0  0  0  0  0  0
   46.0004   12.9926  -15.6788 C   0  0  0  0  0  0  0  0  0  0  0  0
   45.2398   13.6344  -14.7305 C   0  0  0  0  0  0  0  0  0  0  0  0
   43.8619   13.6251  -14.7202 C   0  0  0  0  0  0  0  0  0  0  0  0
   43.1451   14.2614  -13.7821 N   0  0  0  0  0  0  0  0  0  0  0  0
   41.7994   14.2798  -13.7338 C   0  0  0  0  0  0  0  0  0  0  0  0
   38.2068   15.5052  -11.6181 H   0  0  0  0  0  0  0  0  0  0  0  0
   37.6391   14.1412  -13.9426 C   0  0  0  0  0  0  0  0  0  0  0  0
   37.1032   15.2782  -14.2649 O   0  0  0  0  0  0  0  0  0  0  0  0
   36.7826   13.0354  -13.7987 N   0  0  0  0  0  0  0  0  0  0  0  0
   37.1597   12.1238  -13.5066 H   0  0  0  0  0  0  0  0  0  0  0  0
   35.3446   13.1403  -14.0178 C   0  0  0  0  0  0  0  0  0  0  0  0
   34.8835   12.2656  -15.1048 C   0  0  0  0  0  0  0  0  0  0  0  0
   35.6422   11.7046  -16.0960 C   0  0  0  0  0  0  0  0  0  0  0  0
   34.7850   10.9481  -16.9086 C   0  0  0  0  0  0  0  0  0  0  0  0
   33.5450   11.1063  -16.3429 C   0  0  0  0  0  0  0  0  0  0  0  0
   33.6475   11.8760  -15.3020 O   0  0  0  0  0  0  0  0  0  0  0  0
   41.8184   15.6055  -11.7061 C   0  0  0  0  0  0  0  0  0  0  0  0
   46.6192   18.5711  -13.0595 C   0  0  0  0  0  0  0  0  0  0  0  0
   45.3496   17.8562  -12.7500 C   0  0  0  0  0  0  0  0  0  0  0  0
   44.1587   18.1446  -13.3295 C   0  0  0  0  0  0  0  0  0  0  0  0
   42.9950   17.4277  -12.9935 C   0  0  0  0  0  0  0  0  0  0  0  0
   42.9939   16.4127  -12.0767 C   0  0  0  0  0  0  0  0  0  0  0  0
   44.2408   16.1407  -11.4980 C   0  0  0  0  0  0  0  0  0  0  0  0
   45.3921   16.8450  -11.8254 C   0  0  0  0  0  0  0  0  0  0  0  0
 29 30  1  0  0  0
 30 31  2  0  0  0
 31 32  1  0  0  0
 32 33  2  0  0  0
 33 28  1  0  0  0
 28  1  1  0  0  0
  1  2  1  0  0  0
  2  3  2  0  0  0
  2  4  1  0  0  0
  4 18  1  0  0  0
 18 19  2  0  0  0
 18 20  1  0  0  0
 20 22  1  0  0  0
 22 23  1  0  0  0
 23 24  2  0  0  0
 24 25  1  0  0  0
 25 26  2  0  0  0
 26 27  1  0  0  0
  4  5  2  0  0  0
  5  6  1  0  0  0
  6  7  1  0  0  0
  7  8  2  0  0  0
  7  9  1  0  0  0
  9 10  1  0  0  0
 10 11  2  0  0  0
 11 12  1  0  0  0
 12 13  2  0  0  0
 13 14  1  0  0  0
 14 15  2  0  0  0
 15 16  1  0  0  0
 33 34  1  0  0  0
 34 35  2  0  0  0
 35 30  1  0  0  0
 16  1  1  0  0  0
 27 23  1  0  0  0
 16  6  2  0  0  0
 14  9  1  0  0  0
  3 17  1  0  0  0
 20 21  1  0  0  0
M  END
> <minimizedAffinity>
-8.58518

> <CNNscore>
0.0672115833

> <CNNaffinity>
6.3959078789

> <CNN_VS>
0.4298790991

> <CNNaffinity_variance>
0.2723811567

$$$$
[H]N=c1c(C(=O)N([H])C([H])([H])c2oc([H])c([H])c2[H])c([H])c2c(=O)n3c([H])c([H])c([H])c([H])c3nc2n1C([H])([H])c1c([H])c([H])c(C([H])([H])[H])c([H])c1[H]


 35 39  0  0  0  0  0  0  0  0999 V2000
   38.1119   14.4570  -13.9345 N   0  0  0  0  0  0  0  0  0  0  0  0
   39.4674   14.5295  -14.0229 C   0  0  0  0  0  0  0  0  0  0  0  0
   40.0120   15.4807  -13.4174 N   0  0  0  0  0  0  0  0  0  0  0  0
   40.2340   13.6745  -14.7714 C   0  0  0  0  0  0  0  0  0  0  0  0
   39.5533   12.6797  -15.4811 C   0  0  0  0  0  0  0  0  0  0  0  0
   38.2025   12.5776  -15.4193 C   0  0  0  0  0  0  0  0  0  0  0  0
   37.5539   11.6038  -16.1363 C   0  0  0  0  0  0  0  0  0  0  0  0
   38.1835   10.7819  -16.8458 O   0  0  0  0  0  0  0  0  0  0  0  0
   36.2152   11.5124  -16.0901 N   0  0  0  0  0  0  0  0  0  0  0  0
   35.5639   10.5609  -16.7892 C   0  0  0  0  0  0  0  0  0  0  0  0
   34.2089   10.4267  -16.7755 C   0  0  0  0  0  0  0  0  0  0  0  0
   33.4524   11.3070  -16.0081 C   0  0  0  0  0  0  0  0  0  0  0  0
   34.1478   12.2643  -15.3084 C   0  0  0  0  0  0  0  0  0  0  0  0
   35.5201   12.3850  -15.3342 C   0  0  0  0  0  0  0  0  0  0  0  0
   36.1725   13.3292  -14.6401 N   0  0  0  0  0  0  0  0  0  0  0  0
   37.5103   13.4832  -14.6352 C   0  0  0  0  0  0  0  0  0  0  0  0
   40.9474   15.7851  -13.3037 H   0  0  0  0  0  0  0  0  0  0  0  0
   41.6710   13.6174  -14.8411 C   0  0  0  0  0  0  0  0  0  0  0  0
   42.1403   13.1961  -15.9752 O   0  0  0  0  0  0  0  0  0  0  0  0
   42.5970   13.9527  -13.8376 N   0  0  0  0  0  0  0  0  0  0  0  0
   42.2683   14.2542  -12.9104 H   0  0  0  0  0  0  0  0  0  0  0  0
   44.0361   13.8541  -14.0524 C   0  0  0  0  0  0  0  0  0  0  0  0
   44.6999   15.1628  -13.9742 C   0  0  0  0  0  0  0  0  0  0  0  0
   44.4289   16.1788  -13.0984 C   0  0  0  0  0  0  0  0  0  0  0  0
   45.3058   17.2342  -13.3896 C   0  0  0  0  0  0  0  0  0  0  0  0
   46.0601   16.7756  -14.4401 C   0  0  0  0  0  0  0  0  0  0  0  0
   45.6764   15.5735  -14.7464 O   0  0  0  0  0  0  0  0  0  0  0  0
   37.3563   15.4023  -13.1646 C   0  0  0  0  0  0  0  0  0  0  0  0
   36.9928   14.5189   -7.4409 C   0  0  0  0  0  0  0  0  0  0  0  0
   37.0229   14.7152   -8.9171 C   0  0  0  0  0  0  0  0  0  0  0  0
   35.9668   14.4784   -9.7331 C   0  0  0  0  0  0  0  0  0  0  0  0
   36.0610   14.6872  -11.1219 C   0  0  0  0  0  0  0  0  0  0  0  0
   37.2048   15.1345  -11.7238 C   0  0  0  0  0  0  0  0  0  0  0  0
   38.2760   15.3698  -10.8514 C   0  0  0  0  0  0  0  0  0  0  0  0
   38.1888   15.1651   -9.4805 C   0  0  0  0  0  0  0  0  0  0  0  0
 29 30  1  0  0  0
 30 31  2  0  0  0
 31 32  1  0  0  0
 32 33  2  0  0  0
 33 28  1  0  0  0
 28  1  1  0  0  0
  1  2  1  0  0  0
  2  3  2  0  0  0
  2  4  1  0  0  0
  4 18  1  0  0  0
 18 19  2  0  0  0
 18 20  1  0  0  0
 20 22  1  0  0  0
 22 23  1  0  0  0
 23 24  2  0  0  0
 24 25  1  0  0  0
 25 26  2  0  0  0
 26 27  1  0  0  0
  4  5  2  0  0  0
  5  6  1  0  0  0
  6  7  1  0  0  0
  7  8  2  0  0  0
  7  9  1  0  0  0
  9 10  1  0  0  0
 10 11  2  0  0  0
 11 12  1  0  0  0
 12 13  2  0  0  0
 13 14  1  0  0  0
 14 15  2  0  0  0
 15 16  1  0  0  0
 33 34  1  0  0  0
 34 35  2  0  0  0
 35 30  1  0  0  0
 16  1  1  0  0  0
 27 23  1  0  0  0
 16  6  2  0  0  0
 14  9  1  0  0  0
  3 17  1  0  0  0
 20 21  1  0  0  0
M  END
> <minimizedAffinity>
-9.19861

> <CNNscore>
0.0537662394

> <CNNaffinity>
6.2445993423

> <CNN_VS>
0.3357486129

> <CNNaffinity_variance>
0.2551689446

$$$$
[H]N=c1c(C(=O)N([H])C([H])([H])c2oc([H])c([H])c2[H])c([H])c2c(=O)n3c([H])c([H])c([H])c([H])c3nc2n1C([H])([H])c1c([H])c([H])c(C([H])([H])[H])c([H])c1[H]


 35 39  0  0  0  0  0  0  0  0999 V2000
   36.8736   15.3403  -12.2442 N   0  0  0  0  0  0  0  0  0  0  0  0
   38.1494   15.7734  -12.0567 C   0  0  0  0  0  0  0  0  0  0  0  0
   38.3042   16.6986  -11.2273 N   0  0  0  0  0  0  0  0  0  0  0  0
   39.2298   15.3026  -12.7567 C   0  0  0  0  0  0  0  0  0  0  0  0
   38.9740   14.3210  -13.7199 C   0  0  0  0  0  0  0  0  0  0  0  0
   37.7150   13.8663  -13.9366 C   0  0  0  0  0  0  0  0  0  0  0  0
   37.4847   12.9142  -14.8976 C   0  0  0  0  0  0  0  0  0  0  0  0
   38.4201   12.4322  -15.5817 O   0  0  0  0  0  0  0  0  0  0  0  0
   36.2363   12.4756  -15.1256 N   0  0  0  0  0  0  0  0  0  0  0  0
   35.9944   11.5405  -16.0665 C   0  0  0  0  0  0  0  0  0  0  0  0
   34.7477   11.0635  -16.3353 C   0  0  0  0  0  0  0  0  0  0  0  0
   33.6669   11.5572  -15.6114 C   0  0  0  0  0  0  0  0  0  0  0  0
   33.9487   12.5089  -14.6604 C   0  0  0  0  0  0  0  0  0  0  0  0
   35.2175   12.9800  -14.4020 C   0  0  0  0  0  0  0  0  0  0  0  0
   35.4633   13.9093  -13.4667 N   0  0  0  0  0  0  0  0  0  0  0  0
   36.6854   14.3972  -13.1803 C   0  0  0  0  0  0  0  0  0  0  0  0
   39.0862   17.2051  -10.8919 H   0  0  0  0  0  0  0  0  0  0  0  0
   40.6171   15.6301  -12.5538 C   0  0  0  0  0  0  0  0  0  0  0  0
   40.9025   16.8873  -12.7019 O   0  0  0  0  0  0  0  0  0  0  0  0
   41.6705   14.7574  -12.2282 N   0  0  0  0  0  0  0  0  0  0  0  0
   41.4964   13.7473  -12.1394 H   0  0  0  0  0  0  0  0  0  0  0  0
   43.0364   15.2334  -12.0421 C   0  0  0  0  0  0  0  0  0  0  0  0
   43.2648   15.7477  -10.6846 C   0  0  0  0  0  0  0  0  0  0  0  0
   44.2497   16.6064  -10.2782 C   0  0  0  0  0  0  0  0  0  0  0  0
   44.0831   16.8214   -8.9022 C   0  0  0  0  0  0  0  0  0  0  0  0
   42.9893   16.0646   -8.5652 C   0  0  0  0  0  0  0  0  0  0  0  0
   42.5473   15.4599   -9.6259 O   0  0  0  0  0  0  0  0  0  0  0  0
   35.7746   15.8954  -11.5084 C   0  0  0  0  0  0  0  0  0  0  0  0
   34.8325   14.2502   -6.0239 C   0  0  0  0  0  0  0  0  0  0  0  0
   35.1384   14.6433   -7.4277 C   0  0  0  0  0  0  0  0  0  0  0  0
   36.2377   14.2320   -8.1057 C   0  0  0  0  0  0  0  0  0  0  0  0
   36.4663   14.6389   -9.4336 C   0  0  0  0  0  0  0  0  0  0  0  0
   35.6078   15.4606  -10.1106 C   0  0  0  0  0  0  0  0  0  0  0  0
   34.4822   15.8659   -9.3808 C   0  0  0  0  0  0  0  0  0  0  0  0
   34.2518   15.4680   -8.0704 C   0  0  0  0  0  0  0  0  0  0  0  0
 29 30  1  0  0  0
 30 31  2  0  0  0
 31 32  1  0  0  0
 32 33  2  0  0  0
 33 28  1  0  0  0
 28  1  1  0  0  0
  1  2  1  0  0  0
  2  3  2  0  0  0
  2  4  1  0  0  0
  4 18  1  0  0  0
 18 19  2  0  0  0
 18 20  1  0  0  0
 20 22  1  0  0  0
 22 23  1  0  0  0
 23 24  2  0  0  0
 24 25  1  0  0  0
 25 26  2  0  0  0
 26 27  1  0  0  0
  4  5  2  0  0  0
  5  6  1  0  0  0
  6  7  1  0  0  0
  7  8  2  0  0  0
  7  9  1  0  0  0
  9 10  1  0  0  0
 10 11  2  0  0  0
 11 12  1  0  0  0
 12 13  2  0  0  0
 13 14  1  0  0  0
 14 15  2  0  0  0
 15 16  1  0  0  0
 33 34  1  0  0  0
 34 35  2  0  0  0
 35 30  1  0  0  0
 16  1  1  0  0  0
 27 23  1  0  0  0
 16  6  2  0  0  0
 14  9  1  0  0  0
  3 17  1  0  0  0
 20 21  1  0  0  0
M  END
> <minimizedAffinity>
-8.77412

> <CNNscore>
0.0469287671

> <CNNaffinity>
5.8056249619

> <CNN_VS>
0.2724508345

> <CNNaffinity_variance>
0.2648164630

$$$$
[H]/C(=C(\[H])C([H])([H])C([H])([H])N([H])C(=O)/C([H])=C([H])/C([H])=C([H])/C([H])=C(\[H])c1sc([H])c([H])c1[H])C([H])([H])OC(=O)C([H])([H])C([H])(C([H])([H])[H])C([H])([H])[H]


 27 27  0  0  0  0  0  0  0  0999 V2000
   34.0491   15.2091   -9.1594 N   0  0  0  0  0  0  0  0  0  0  0  0
   35.4265   14.9534   -9.0278 C   0  0  0  0  0  0  0  0  0  0  0  0
   35.9292   14.9290   -7.8768 O   0  0  0  0  0  0  0  0  0  0  0  0
   33.6229   15.2289  -10.1165 H   0  0  0  0  0  0  0  0  0  0  0  0
   36.2659   14.7204  -10.1772 C   0  0  0  0  0  0  0  0  0  0  0  0
   35.8386   14.6204  -11.4030 C   0  0  0  0  0  0  0  0  0  0  0  0
   36.7437   14.3826  -12.5329 C   0  0  0  0  0  0  0  0  0  0  0  0
   37.3147   13.2360  -12.7654 C   0  0  0  0  0  0  0  0  0  0  0  0
   38.2217   13.0241  -13.9106 C   0  0  0  0  0  0  0  0  0  0  0  0
   37.8894   12.2188  -14.8932 C   0  0  0  0  0  0  0  0  0  0  0  0
   38.8088   12.0139  -16.0385 C   0  0  0  0  0  0  0  0  0  0  0  0
   38.6021   11.2423  -17.1500 C   0  0  0  0  0  0  0  0  0  0  0  0
   39.5827   11.2061  -18.0666 C   0  0  0  0  0  0  0  0  0  0  0  0
   40.7063   11.9455  -17.8100 C   0  0  0  0  0  0  0  0  0  0  0  0
   40.3614   12.6638  -16.3063 S   0  0  0  0  0  0  0  0  0  0  0  0
   33.1707   15.4498   -8.0409 C   0  0  0  0  0  0  0  0  0  0  0  0
   33.0778   16.9134   -7.6519 C   0  0  0  0  0  0  0  0  0  0  0  0
   31.9443   17.8038   -5.6431 C   0  0  0  0  0  0  0  0  0  0  0  0
   31.9136   17.1644   -6.7826 C   0  0  0  0  0  0  0  0  0  0  0  0
   33.1804   18.3581   -5.0868 C   0  0  0  0  0  0  0  0  0  0  0  0
   33.6108   17.5708   -3.9988 O   0  0  0  0  0  0  0  0  0  0  0  0
   34.7969   16.8807   -4.0615 C   0  0  0  0  0  0  0  0  0  0  0  0
   35.8146   17.4343   -4.5261 O   0  0  0  0  0  0  0  0  0  0  0  0
   34.9237   15.4692   -3.5888 C   0  0  0  0  0  0  0  0  0  0  0  0
   35.5039   13.2667   -4.6246 C   0  0  0  0  0  0  0  0  0  0  0  0
   34.6998   14.5215   -4.7471 C   0  0  0  0  0  0  0  0  0  0  0  0
   33.2510   14.1747   -4.9233 C   0  0  0  0  0  0  0  0  0  0  0  0
 25 26  1  0  0  0
 26 27  1  0  0  0
 26 24  1  0  0  0
 24 22  1  0  0  0
 22 23  2  0  0  0
 22 21  1  0  0  0
 21 20  1  0  0  0
 20 18  1  0  0  0
 18 19  2  0  0  0
 19 17  1  0  0  0
 17 16  1  0  0  0
 16  1  1  0  0  0
  1  2  1  0  0  0
  2  3  2  0  0  0
  2  5  1  0  0  0
  5  6  2  0  0  0
  6  7  1  0  0  0
  7  8  2  0  0  0
  8  9  1  0  0  0
  9 10  2  0  0  0
 10 11  1  0  0  0
 11 12  2  0  0  0
 12 13  1  0  0  0
 13 14  2  0  0  0
 14 15  1  0  0  0
 15 11  1  0  0  0
  1  4  1  0  0  0
M  END
> <minimizedAffinity>
-5.19677

> <CNNscore>
0.4370060861

> <CNNaffinity>
5.4879994392

> <CNN_VS>
2.3982892036

> <CNNaffinity_variance>
0.2495322526

$$$$
[H]/C(=C(\[H])C([H])([H])C([H])([H])N([H])C(=O)/C([H])=C([H])/C([H])=C([H])/C([H])=C(\[H])c1sc([H])c([H])c1[H])C([H])([H])OC(=O)C([H])([H])C([H])(C([H])([H])[H])C([H])([H])[H]


 27 27  0  0  0  0  0  0  0  0999 V2000
   33.3544   15.4593   -8.6699 N   0  0  0  0  0  0  0  0  0  0  0  0
   34.6891   15.7925   -8.9659 C   0  0  0  0  0  0  0  0  0  0  0  0
   35.2534   16.6864   -8.2873 O   0  0  0  0  0  0  0  0  0  0  0  0
   32.8782   14.7132   -9.2308 H   0  0  0  0  0  0  0  0  0  0  0  0
   35.4164   15.1343  -10.0231 C   0  0  0  0  0  0  0  0  0  0  0  0
   35.0607   15.1217  -11.2755 C   0  0  0  0  0  0  0  0  0  0  0  0
   35.8441   14.4332  -12.3073 C   0  0  0  0  0  0  0  0  0  0  0  0
   35.6829   13.1778  -12.6118 C   0  0  0  0  0  0  0  0  0  0  0  0
   36.4853   12.5096  -13.6551 C   0  0  0  0  0  0  0  0  0  0  0  0
   36.1507   12.5972  -14.9219 C   0  0  0  0  0  0  0  0  0  0  0  0
   36.9648   11.9216  -15.9611 C   0  0  0  0  0  0  0  0  0  0  0  0
   38.3286   11.9038  -16.0754 C   0  0  0  0  0  0  0  0  0  0  0  0
   38.8522   11.2209  -17.1062 C   0  0  0  0  0  0  0  0  0  0  0  0
   37.9752   10.6002  -17.9551 C   0  0  0  0  0  0  0  0  0  0  0  0
   36.4562   10.9868  -17.2923 S   0  0  0  0  0  0  0  0  0  0  0  0
   32.5862   16.0906   -7.6249 C   0  0  0  0  0  0  0  0  0  0  0  0
   32.2315   15.1518   -6.4870 C   0  0  0  0  0  0  0  0  0  0  0  0
   32.9773   16.1097   -4.3332 C   0  0  0  0  0  0  0  0  0  0  0  0
   32.0460   15.8875   -5.2228 C   0  0  0  0  0  0  0  0  0  0  0  0
   34.3526   15.6351   -4.5009 C   0  0  0  0  0  0  0  0  0  0  0  0
   34.4714   14.3240   -3.9951 O   0  0  0  0  0  0  0  0  0  0  0  0
   35.6038   13.5835   -4.2322 C   0  0  0  0  0  0  0  0  0  0  0  0
   35.5376   12.3373   -4.2586 O   0  0  0  0  0  0  0  0  0  0  0  0
   36.9366   14.2174   -4.4639 C   0  0  0  0  0  0  0  0  0  0  0  0
   38.0044   15.7014   -6.1721 C   0  0  0  0  0  0  0  0  0  0  0  0
   37.1026   14.5324   -5.9347 C   0  0  0  0  0  0  0  0  0  0  0  0
   37.5963   13.3502   -6.7149 C   0  0  0  0  0  0  0  0  0  0  0  0
 25 26  1  0  0  0
 26 27  1  0  0  0
 26 24  1  0  0  0
 24 22  1  0  0  0
 22 23  2  0  0  0
 22 21  1  0  0  0
 21 20  1  0  0  0
 20 18  1  0  0  0
 18 19  2  0  0  0
 19 17  1  0  0  0
 17 16  1  0  0  0
 16  1  1  0  0  0
  1  2  1  0  0  0
  2  3  2  0  0  0
  2  5  1  0  0  0
  5  6  2  0  0  0
  6  7  1  0  0  0
  7  8  2  0  0  0
  8  9  1  0  0  0
  9 10  2  0  0  0
 10 11  1  0  0  0
 11 12  2  0  0  0
 12 13  1  0  0  0
 13 14  2  0  0  0
 14 15  1  0  0  0
 15 11  1  0  0  0
  1  4  1  0  0  0
M  END
> <minimizedAffinity>
-5.91457

> <CNNscore>
0.4193364978

> <CNNaffinity>
5.6996717453

> <CNN_VS>
2.3900804520

> <CNNaffinity_variance>
0.0880856290

$$$$
[H]/C(=C(\[H])C([H])([H])C([H])([H])N([H])C(=O)/C([H])=C([H])/C([H])=C([H])/C([H])=C(\[H])c1sc([H])c([H])c1[H])C([H])([H])OC(=O)C([H])([H])C([H])(C([H])([H])[H])C([H])([H])[H]


 27 27  0  0  0  0  0  0  0  0999 V2000
   34.5976   15.3006   -9.2442 N   0  0  0  0  0  0  0  0  0  0  0  0
   35.9474   14.9076   -9.3025 C   0  0  0  0  0  0  0  0  0  0  0  0
   36.6091   14.8587   -8.2357 O   0  0  0  0  0  0  0  0  0  0  0  0
   34.0393   15.3418  -10.1300 H   0  0  0  0  0  0  0  0  0  0  0  0
   36.5815   14.5625  -10.5510 C   0  0  0  0  0  0  0  0  0  0  0  0
   36.0265   13.8649  -11.4999 C   0  0  0  0  0  0  0  0  0  0  0  0
   36.7242   13.5457  -12.7504 C   0  0  0  0  0  0  0  0  0  0  0  0
   37.9584   13.8839  -12.9896 C   0  0  0  0  0  0  0  0  0  0  0  0
   38.6366   13.5495  -14.2574 C   0  0  0  0  0  0  0  0  0  0  0  0
   38.3778   12.4247  -14.8836 C   0  0  0  0  0  0  0  0  0  0  0  0
   39.0654   12.0998  -16.1568 C   0  0  0  0  0  0  0  0  0  0  0  0
   38.6524   11.2351  -17.1340 C   0  0  0  0  0  0  0  0  0  0  0  0
   39.4433   11.0976  -18.2104 C   0  0  0  0  0  0  0  0  0  0  0  0
   40.5964   11.8357  -18.2375 C   0  0  0  0  0  0  0  0  0  0  0  0
   40.5412   12.6932  -16.7686 S   0  0  0  0  0  0  0  0  0  0  0  0
   33.9213   15.6569   -8.0209 C   0  0  0  0  0  0  0  0  0  0  0  0
   33.9139   17.1495   -7.7492 C   0  0  0  0  0  0  0  0  0  0  0  0
   33.5348   18.4233   -5.6643 C   0  0  0  0  0  0  0  0  0  0  0  0
   34.0904   17.4341   -6.3133 C   0  0  0  0  0  0  0  0  0  0  0  0
   32.6474   19.3895   -6.3153 C   0  0  0  0  0  0  0  0  0  0  0  0
   32.8482   20.6714   -5.7629 O   0  0  0  0  0  0  0  0  0  0  0  0
   33.1131   21.7482   -6.5737 C   0  0  0  0  0  0  0  0  0  0  0  0
   32.3554   22.0067   -7.5313 O   0  0  0  0  0  0  0  0  0  0  0  0
   34.2917   22.6398   -6.3547 C   0  0  0  0  0  0  0  0  0  0  0  0
   36.4373   23.2908   -7.4652 C   0  0  0  0  0  0  0  0  0  0  0  0
   35.4335   22.2040   -7.2470 C   0  0  0  0  0  0  0  0  0  0  0  0
   36.1245   20.9791   -6.7250 C   0  0  0  0  0  0  0  0  0  0  0  0
 25 26  1  0  0  0
 26 27  1  0  0  0
 26 24  1  0  0  0
 24 22  1  0  0  0
 22 23  2  0  0  0
 22 21  1  0  0  0
 21 20  1  0  0  0
 20 18  1  0  0  0
 18 19  2  0  0  0
 19 17  1  0  0  0
 17 16  1  0  0  0
 16  1  1  0  0  0
  1  2  1  0  0  0
  2  3  2  0  0  0
  2  5  1  0  0  0
  5  6  2  0  0  0
  6  7  1  0  0  0
  7  8  2  0  0  0
  8  9  1  0  0  0
  9 10  2  0  0  0
 10 11  1  0  0  0
 11 12  2  0  0  0
 12 13  1  0  0  0
 13 14  2  0  0  0
 14 15  1  0  0  0
 15 11  1  0  0  0
  1  4  1  0  0  0
M  END
> <minimizedAffinity>
-5.32198

> <CNNscore>
0.3916823268

> <CNNaffinity>
5.5916185379

> <CNN_VS>
2.1901381016

> <CNNaffinity_variance>
0.2070930749

$$$$
[H]/C(=C(\[H])C([H])([H])C([H])([H])N([H])C(=O)/C([H])=C([H])/C([H])=C([H])/C([H])=C(\[H])c1sc([H])c([H])c1[H])C([H])([H])OC(=O)C([H])([H])C([H])(C([H])([H])[H])C([H])([H])[H]


 27 27  0  0  0  0  0  0  0  0999 V2000
   33.8684   15.3977   -9.6159 N   0  0  0  0  0  0  0  0  0  0  0  0
   35.1883   15.7421   -9.9610 C   0  0  0  0  0  0  0  0  0  0  0  0
   35.7783   16.6239   -9.2884 O   0  0  0  0  0  0  0  0  0  0  0  0
   33.3710   14.6616  -10.1716 H   0  0  0  0  0  0  0  0  0  0  0  0
   35.8721   15.1088  -11.0617 C   0  0  0  0  0  0  0  0  0  0  0  0
   36.1711   15.6918  -12.1867 C   0  0  0  0  0  0  0  0  0  0  0  0
   36.8694   14.9933  -13.2716 C   0  0  0  0  0  0  0  0  0  0  0  0
   36.3639   13.9807  -13.9149 C   0  0  0  0  0  0  0  0  0  0  0  0
   37.0888   13.2959  -15.0033 C   0  0  0  0  0  0  0  0  0  0  0  0
   38.4000   13.2242  -14.9988 C   0  0  0  0  0  0  0  0  0  0  0  0
   39.1171   12.5335  -16.0977 C   0  0  0  0  0  0  0  0  0  0  0  0
   38.7716   11.3625  -16.7165 C   0  0  0  0  0  0  0  0  0  0  0  0
   39.5775   10.9214  -17.6958 C   0  0  0  0  0  0  0  0  0  0  0  0
   40.6769   11.6823  -17.9913 C   0  0  0  0  0  0  0  0  0  0  0  0
   40.5525   12.9818  -16.8996 S   0  0  0  0  0  0  0  0  0  0  0  0
   33.1434   16.0042   -8.5262 C   0  0  0  0  0  0  0  0  0  0  0  0
   33.5049   15.4307   -7.1689 C   0  0  0  0  0  0  0  0  0  0  0  0
   33.4778   16.9232   -5.1980 C   0  0  0  0  0  0  0  0  0  0  0  0
   34.0563   16.4681   -6.2780 C   0  0  0  0  0  0  0  0  0  0  0  0
   32.1745   16.4364   -4.7407 C   0  0  0  0  0  0  0  0  0  0  0  0
   31.1718   17.3719   -5.0698 O   0  0  0  0  0  0  0  0  0  0  0  0
   30.3604   17.1721   -6.1602 C   0  0  0  0  0  0  0  0  0  0  0  0
   29.5180   16.2512   -6.1479 O   0  0  0  0  0  0  0  0  0  0  0  0
   30.4446   18.0259   -7.3833 C   0  0  0  0  0  0  0  0  0  0  0  0
   30.0230   20.3361   -8.2467 C   0  0  0  0  0  0  0  0  0  0  0  0
   29.9527   19.4213   -7.0659 C   0  0  0  0  0  0  0  0  0  0  0  0
   28.5575   19.4184   -6.5149 C   0  0  0  0  0  0  0  0  0  0  0  0
 25 26  1  0  0  0
 26 27  1  0  0  0
 26 24  1  0  0  0
 24 22  1  0  0  0
 22 23  2  0  0  0
 22 21  1  0  0  0
 21 20  1  0  0  0
 20 18  1  0  0  0
 18 19  2  0  0  0
 19 17  1  0  0  0
 17 16  1  0  0  0
 16  1  1  0  0  0
  1  2  1  0  0  0
  2  3  2  0  0  0
  2  5  1  0  0  0
  5  6  2  0  0  0
  6  7  1  0  0  0
  7  8  2  0  0  0
  8  9  1  0  0  0
  9 10  2  0  0  0
 10 11  1  0  0  0
 11 12  2  0  0  0
 12 13  1  0  0  0
 13 14  2  0  0  0
 14 15  1  0  0  0
 15 11  1  0  0  0
  1  4  1  0  0  0
M  END
> <minimizedAffinity>
-5.64805

> <CNNscore>
0.2951793671

> <CNNaffinity>
5.4189510345

> <CNN_VS>
1.5995625257

> <CNNaffinity_variance>
0.1941636354

$$$$
[H]/C(=C(\[H])C([H])([H])C([H])([H])N([H])C(=O)/C([H])=C([H])/C([H])=C([H])/C([H])=C(\[H])c1sc([H])c([H])c1[H])C([H])([H])OC(=O)C([H])([H])C([H])(C([H])([H])[H])C([H])([H])[H]


 27 27  0  0  0  0  0  0  0  0999 V2000
   34.8142   13.4347  -12.5679 N   0  0  0  0  0  0  0  0  0  0  0  0
   35.9283   14.1561  -12.1007 C   0  0  0  0  0  0  0  0  0  0  0  0
   37.0740   13.8157  -12.4875 O   0  0  0  0  0  0  0  0  0  0  0  0
   33.8554   13.7145  -12.2507 H   0  0  0  0  0  0  0  0  0  0  0  0
   35.7832   15.2689  -11.1949 C   0  0  0  0  0  0  0  0  0  0  0  0
   36.7688   15.9704  -10.7137 C   0  0  0  0  0  0  0  0  0  0  0  0
   36.5573   17.0938   -9.7940 C   0  0  0  0  0  0  0  0  0  0  0  0
   35.9031   16.9898   -8.6733 C   0  0  0  0  0  0  0  0  0  0  0  0
   35.7051   18.1371   -7.7659 C   0  0  0  0  0  0  0  0  0  0  0  0
   36.3999   19.2414   -7.9144 C   0  0  0  0  0  0  0  0  0  0  0  0
   36.1920   20.3875   -6.9966 C   0  0  0  0  0  0  0  0  0  0  0  0
   36.6410   21.6718   -7.1464 C   0  0  0  0  0  0  0  0  0  0  0  0
   36.3296   22.5506   -6.1802 C   0  0  0  0  0  0  0  0  0  0  0  0
   35.5884   22.0855   -5.1269 C   0  0  0  0  0  0  0  0  0  0  0  0
   35.3508   20.4458   -5.5156 S   0  0  0  0  0  0  0  0  0  0  0  0
   34.9094   12.3146  -13.4717 C   0  0  0  0  0  0  0  0  0  0  0  0
   34.3736   12.6130  -14.8594 C   0  0  0  0  0  0  0  0  0  0  0  0
   35.7400   11.2011  -16.3603 C   0  0  0  0  0  0  0  0  0  0  0  0
   34.6044   11.4828  -15.7779 C   0  0  0  0  0  0  0  0  0  0  0  0
   36.9471   12.0053  -16.1576 C   0  0  0  0  0  0  0  0  0  0  0  0
   37.7561   11.9532  -17.3116 O   0  0  0  0  0  0  0  0  0  0  0  0
   39.0924   11.6494  -17.2152 C   0  0  0  0  0  0  0  0  0  0  0  0
   39.4533   10.4593  -17.1087 O   0  0  0  0  0  0  0  0  0  0  0  0
   40.1522   12.7022  -17.2323 C   0  0  0  0  0  0  0  0  0  0  0  0
   42.2391   13.1143  -15.9149 C   0  0  0  0  0  0  0  0  0  0  0  0
   40.7736   12.8226  -15.8578 C   0  0  0  0  0  0  0  0  0  0  0  0
   40.0878   13.8567  -15.0148 C   0  0  0  0  0  0  0  0  0  0  0  0
 25 26  1  0  0  0
 26 27  1  0  0  0
 26 24  1  0  0  0
 24 22  1  0  0  0
 22 23  2  0  0  0
 22 21  1  0  0  0
 21 20  1  0  0  0
 20 18  1  0  0  0
 18 19  2  0  0  0
 19 17  1  0  0  0
 17 16  1  0  0  0
 16  1  1  0  0  0
  1  2  1  0  0  0
  2  3  2  0  0  0
  2  5  1  0  0  0
  5  6  2  0  0  0
  6  7  1  0  0  0
  7  8  2  0  0  0
  8  9  1  0  0  0
  9 10  2  0  0  0
 10 11  1  0  0  0
 11 12  2  0  0  0
 12 13  1  0  0  0
 13 14  2  0  0  0
 14 15  1  0  0  0
 15 11  1  0  0  0
  1  4  1  0  0  0
M  END
> <minimizedAffinity>
-5.71986

> <CNNscore>
0.2812824547

> <CNNaffinity>
5.6615653038

> <CNN_VS>
1.5924990177

> <CNNaffinity_variance>
0.0576504655

$$$$
[H]/C(=C(\[H])C([H])([H])C([H])([H])N([H])C(=O)/C([H])=C([H])/C([H])=C([H])/C([H])=C(\[H])c1sc([H])c([H])c1[H])C([H])([H])OC(=O)C([H])([H])C([H])(C([H])([H])[H])C([H])([H])[H]


 27 27  0  0  0  0  0  0  0  0999 V2000
   36.3117   12.9382  -14.0664 N   0  0  0  0  0  0  0  0  0  0  0  0
   36.6345   14.0146  -13.2196 C   0  0  0  0  0  0  0  0  0  0  0  0
   37.6608   14.6942  -13.4707 O   0  0  0  0  0  0  0  0  0  0  0  0
   35.4559   12.3684  -13.8639 H   0  0  0  0  0  0  0  0  0  0  0  0
   35.8182   14.3511  -12.0792 C   0  0  0  0  0  0  0  0  0  0  0  0
   35.4518   15.5580  -11.7562 C   0  0  0  0  0  0  0  0  0  0  0  0
   34.6189   15.8375  -10.5812 C   0  0  0  0  0  0  0  0  0  0  0  0
   35.0560   15.7603   -9.3574 C   0  0  0  0  0  0  0  0  0  0  0  0
   34.1957   16.0473   -8.1927 C   0  0  0  0  0  0  0  0  0  0  0  0
   34.7018   16.5433   -7.0872 C   0  0  0  0  0  0  0  0  0  0  0  0
   33.8275   16.8276   -5.9236 C   0  0  0  0  0  0  0  0  0  0  0  0
   33.7086   16.1022   -4.7691 C   0  0  0  0  0  0  0  0  0  0  0  0
   32.8464   16.5529   -3.8435 C   0  0  0  0  0  0  0  0  0  0  0  0
   32.1597   17.7011   -4.1351 C   0  0  0  0  0  0  0  0  0  0  0  0
   32.7351   18.1134   -5.6827 S   0  0  0  0  0  0  0  0  0  0  0  0
   37.0977   12.5625  -15.2161 C   0  0  0  0  0  0  0  0  0  0  0  0
   36.2641   12.3013  -16.4565 C   0  0  0  0  0  0  0  0  0  0  0  0
   36.8934   10.1956  -17.5891 C   0  0  0  0  0  0  0  0  0  0  0  0
   36.1567   10.8577  -16.7364 C   0  0  0  0  0  0  0  0  0  0  0  0
   37.9402   10.8378  -18.3869 C   0  0  0  0  0  0  0  0  0  0  0  0
   39.1343   10.9104  -17.6400 O   0  0  0  0  0  0  0  0  0  0  0  0
   40.1165   11.8094  -17.9781 C   0  0  0  0  0  0  0  0  0  0  0  0
   40.8541   11.5846  -18.9596 O   0  0  0  0  0  0  0  0  0  0  0  0
   40.3443   13.0683  -17.2067 C   0  0  0  0  0  0  0  0  0  0  0  0
   42.5234   12.7657  -16.0148 C   0  0  0  0  0  0  0  0  0  0  0  0
   41.0326   12.7469  -15.8979 C   0  0  0  0  0  0  0  0  0  0  0  0
   40.6037   13.6650  -14.7919 C   0  0  0  0  0  0  0  0  0  0  0  0
 25 26  1  0  0  0
 26 27  1  0  0  0
 26 24  1  0  0  0
 24 22  1  0  0  0
 22 23  2  0  0  0
 22 21  1  0  0  0
 21 20  1  0  0  0
 20 18  1  0  0  0
 18 19  2  0  0  0
 19 17  1  0  0  0
 17 16  1  0  0  0
 16  1  1  0  0  0
  1  2  1  0  0  0
  2  3  2  0  0  0
  2  5  1  0  0  0
  5  6  2  0  0  0
  6  7  1  0  0  0
  7  8  2  0  0  0
  8  9  1  0  0  0
  9 10  2  0  0  0
 10 11  1  0  0  0
 11 12  2  0  0  0
 12 13  1  0  0  0
 13 14  2  0  0  0
 14 15  1  0  0  0
 15 11  1  0  0  0
  1  4  1  0  0  0
M  END
> <minimizedAffinity>
-6.02912

> <CNNscore>
0.2645323277

> <CNNaffinity>
5.7029228210

> <CNN_VS>
1.5086075068

> <CNNaffinity_variance>
0.0287575424

$$$$
[H]/C(=C(\[H])C([H])([H])C([H])([H])N([H])C(=O)/C([H])=C([H])/C([H])=C([H])/C([H])=C(\[H])c1sc([H])c([H])c1[H])C([H])([H])OC(=O)C([H])([H])C([H])(C([H])([H])[H])C([H])([H])[H]


 27 27  0  0  0  0  0  0  0  0999 V2000
   33.2013   15.6012   -9.0924 N   0  0  0  0  0  0  0  0  0  0  0  0
   34.4999   15.9393   -9.5158 C   0  0  0  0  0  0  0  0  0  0  0  0
   35.1260   16.8315   -8.8912 O   0  0  0  0  0  0  0  0  0  0  0  0
   32.6742   14.8564   -9.6077 H   0  0  0  0  0  0  0  0  0  0  0  0
   35.1218   15.2880  -10.6423 C   0  0  0  0  0  0  0  0  0  0  0  0
   36.3389   14.8259  -10.6563 C   0  0  0  0  0  0  0  0  0  0  0  0
   36.9168   14.1716  -11.8354 C   0  0  0  0  0  0  0  0  0  0  0  0
   36.3386   13.1908  -12.4668 C   0  0  0  0  0  0  0  0  0  0  0  0
   36.9426   12.5501  -13.6516 C   0  0  0  0  0  0  0  0  0  0  0  0
   36.2484   12.3803  -14.7532 C   0  0  0  0  0  0  0  0  0  0  0  0
   36.8661   11.7354  -15.9371 C   0  0  0  0  0  0  0  0  0  0  0  0
   38.1968   11.6548  -16.2471 C   0  0  0  0  0  0  0  0  0  0  0  0
   38.5282   11.0171  -17.3814 C   0  0  0  0  0  0  0  0  0  0  0  0
   37.5048   10.5017  -18.1310 C   0  0  0  0  0  0  0  0  0  0  0  0
   36.1201   10.9207  -17.2349 S   0  0  0  0  0  0  0  0  0  0  0  0
   32.5376   16.2255   -7.9742 C   0  0  0  0  0  0  0  0  0  0  0  0
   31.1854   16.8150   -8.3287 C   0  0  0  0  0  0  0  0  0  0  0  0
   30.2585   17.9950   -6.3637 C   0  0  0  0  0  0  0  0  0  0  0  0
   30.3271   16.9434   -7.1367 C   0  0  0  0  0  0  0  0  0  0  0  0
   31.0544   19.2004   -6.6053 C   0  0  0  0  0  0  0  0  0  0  0  0
   31.8778   19.4616   -5.4905 O   0  0  0  0  0  0  0  0  0  0  0  0
   33.1966   19.0771   -5.4903 C   0  0  0  0  0  0  0  0  0  0  0  0
   33.8385   19.0571   -6.5606 O   0  0  0  0  0  0  0  0  0  0  0  0
   33.9090   18.6739   -4.2406 C   0  0  0  0  0  0  0  0  0  0  0  0
   32.6613   16.5051   -4.2508 C   0  0  0  0  0  0  0  0  0  0  0  0
   34.0008   17.1651   -4.1702 C   0  0  0  0  0  0  0  0  0  0  0  0
   34.9027   16.6025   -5.2287 C   0  0  0  0  0  0  0  0  0  0  0  0
 25 26  1  0  0  0
 26 27  1  0  0  0
 26 24  1  0  0  0
 24 22  1  0  0  0
 22 23  2  0  0  0
 22 21  1  0  0  0
 21 20  1  0  0  0
 20 18  1  0  0  0
 18 19  2  0  0  0
 19 17  1  0  0  0
 17 16  1  0  0  0
 16  1  1  0  0  0
  1  2  1  0  0  0
  2  3  2  0  0  0
  2  5  1  0  0  0
  5  6  2  0  0  0
  6  7  1  0  0  0
  7  8  2  0  0  0
  8  9  1  0  0  0
  9 10  2  0  0  0
 10 11  1  0  0  0
 11 12  2  0  0  0
 12 13  1  0  0  0
 13 14  2  0  0  0
 14 15  1  0  0  0
 15 11  1  0  0  0
  1  4  1  0  0  0
M  END
> <minimizedAffinity>
-5.44521

> <CNNscore>
0.2497300804

> <CNNaffinity>
5.4476251602

> <CNN_VS>
1.3604358435

> <CNNaffinity_variance>
0.1263986677

$$$$
[H]/C(=C(\[H])C([H])([H])C([H])([H])N([H])C(=O)/C([H])=C([H])/C([H])=C([H])/C([H])=C(\[H])c1sc([H])c([H])c1[H])C([H])([H])OC(=O)C([H])([H])C([H])(C([H])([H])[H])C([H])([H])[H]


 27 27  0  0  0  0  0  0  0  0999 V2000
   39.9718   12.8056  -15.7798 N   0  0  0  0  0  0  0  0  0  0  0  0
   38.7313   12.2088  -16.0709 C   0  0  0  0  0  0  0  0  0  0  0  0
   38.6166   11.5374  -17.1265 O   0  0  0  0  0  0  0  0  0  0  0  0
   40.0750   13.3653  -14.9000 H   0  0  0  0  0  0  0  0  0  0  0  0
   37.5984   12.3505  -15.1897 C   0  0  0  0  0  0  0  0  0  0  0  0
   36.3573   12.4168  -15.5776 C   0  0  0  0  0  0  0  0  0  0  0  0
   35.2456   12.5611  -14.6312 C   0  0  0  0  0  0  0  0  0  0  0  0
   34.7609   13.7123  -14.2644 C   0  0  0  0  0  0  0  0  0  0  0  0
   33.6409   13.8288  -13.3099 C   0  0  0  0  0  0  0  0  0  0  0  0
   33.5229   14.8824  -12.5350 C   0  0  0  0  0  0  0  0  0  0  0  0
   32.3933   14.9883  -11.5800 C   0  0  0  0  0  0  0  0  0  0  0  0
   31.1388   14.4553  -11.7052 C   0  0  0  0  0  0  0  0  0  0  0  0
   30.2702   14.6815  -10.7065 C   0  0  0  0  0  0  0  0  0  0  0  0
   30.7151   15.4269   -9.6476 C   0  0  0  0  0  0  0  0  0  0  0  0
   32.3223   15.7868  -10.0761 S   0  0  0  0  0  0  0  0  0  0  0  0
   41.1314   12.6939  -16.6304 C   0  0  0  0  0  0  0  0  0  0  0  0
   42.4393   12.9389  -15.9015 C   0  0  0  0  0  0  0  0  0  0  0  0
   44.8057   12.2835  -16.1903 C   0  0  0  0  0  0  0  0  0  0  0  0
   43.5425   12.1702  -16.5063 C   0  0  0  0  0  0  0  0  0  0  0  0
   45.2782   13.2187  -15.1671 C   0  0  0  0  0  0  0  0  0  0  0  0
   45.5187   12.5275  -13.9615 O   0  0  0  0  0  0  0  0  0  0  0  0
   46.8013   12.3445  -13.5047 C   0  0  0  0  0  0  0  0  0  0  0  0
   47.7599   12.4064  -14.3017 O   0  0  0  0  0  0  0  0  0  0  0  0
   47.1038   12.0693  -12.0679 C   0  0  0  0  0  0  0  0  0  0  0  0
   47.0321    9.5914  -11.7280 C   0  0  0  0  0  0  0  0  0  0  0  0
   46.2917   10.8837  -11.5939 C   0  0  0  0  0  0  0  0  0  0  0  0
   45.8211   11.0487  -10.1791 C   0  0  0  0  0  0  0  0  0  0  0  0
 25 26  1  0  0  0
 26 27  1  0  0  0
 26 24  1  0  0  0
 24 22  1  0  0  0
 22 23  2  0  0  0
 22 21  1  0  0  0
 21 20  1  0  0  0
 20 18  1  0  0  0
 18 19  2  0  0  0
 19 17  1  0  0  0
 17 16  1  0  0  0
 16  1  1  0  0  0
  1  2  1  0  0  0
  2  3  2  0  0  0
  2  5  1  0  0  0
  5  6  2  0  0  0
  6  7  1  0  0  0
  7  8  2  0  0  0
  8  9  1  0  0  0
  9 10  2  0  0  0
 10 11  1  0  0  0
 11 12  2  0  0  0
 12 13  1  0  0  0
 13 14  2  0  0  0
 14 15  1  0  0  0
 15 11  1  0  0  0
  1  4  1  0  0  0
M  END
> <minimizedAffinity>
-6.07249

> <CNNscore>
0.2339970618

> <CNNaffinity>
5.5738806725

> <CNN_VS>
1.3042716980

> <CNNaffinity_variance>
0.1559426039

$$$$
[H]/C(=C(\[H])C([H])([H])C([H])([H])N([H])C(=O)/C([H])=C([H])/C([H])=C([H])/C([H])=C(\[H])c1sc([H])c([H])c1[H])C([H])([H])OC(=O)C([H])([H])C([H])(C([H])([H])[H])C([H])([H])[H]


 27 27  0  0  0  0  0  0  0  0999 V2000
   36.4777   14.5684  -13.5961 N   0  0  0  0  0  0  0  0  0  0  0  0
   35.7513   14.8344  -12.4207 C   0  0  0  0  0  0  0  0  0  0  0  0
   34.5371   14.5154  -12.3755 O   0  0  0  0  0  0  0  0  0  0  0  0
   37.4914   14.8302  -13.6399 H   0  0  0  0  0  0  0  0  0  0  0  0
   36.3668   15.4602  -11.2764 C   0  0  0  0  0  0  0  0  0  0  0  0
   36.5056   14.9029  -10.1080 C   0  0  0  0  0  0  0  0  0  0  0  0
   37.1421   15.5920   -8.9800 C   0  0  0  0  0  0  0  0  0  0  0  0
   38.4300   15.6227   -8.7927 C   0  0  0  0  0  0  0  0  0  0  0  0
   39.0444   16.3242   -7.6484 C   0  0  0  0  0  0  0  0  0  0  0  0
   39.9991   15.7593   -6.9456 C   0  0  0  0  0  0  0  0  0  0  0  0
   40.6088   16.4740   -5.7981 C   0  0  0  0  0  0  0  0  0  0  0  0
   41.5337   15.9954   -4.9099 C   0  0  0  0  0  0  0  0  0  0  0  0
   41.9475   16.8285   -3.9416 C   0  0  0  0  0  0  0  0  0  0  0  0
   41.4078   18.0869   -3.9264 C   0  0  0  0  0  0  0  0  0  0  0  0
   40.3458   18.0682   -5.2560 S   0  0  0  0  0  0  0  0  0  0  0  0
   35.9056   13.9471  -14.7655 C   0  0  0  0  0  0  0  0  0  0  0  0
   36.0832   12.4407  -14.7952 C   0  0  0  0  0  0  0  0  0  0  0  0
   36.5494   11.3462  -16.9626 C   0  0  0  0  0  0  0  0  0  0  0  0
   35.7169   11.8833  -16.1102 C   0  0  0  0  0  0  0  0  0  0  0  0
   37.9852   11.2370  -16.6955 C   0  0  0  0  0  0  0  0  0  0  0  0
   38.6942   11.1649  -17.9124 O   0  0  0  0  0  0  0  0  0  0  0  0
   39.9550   11.6999  -18.0195 C   0  0  0  0  0  0  0  0  0  0  0  0
   40.3234   12.2126  -19.0962 O   0  0  0  0  0  0  0  0  0  0  0  0
   40.9224   11.6942  -16.8811 C   0  0  0  0  0  0  0  0  0  0  0  0
   40.2288   13.7083  -15.5686 C   0  0  0  0  0  0  0  0  0  0  0  0
   41.2520   13.1170  -16.4850 C   0  0  0  0  0  0  0  0  0  0  0  0
   42.6112   13.2307  -15.8607 C   0  0  0  0  0  0  0  0  0  0  0  0
 25 26  1  0  0  0
 26 27  1  0  0  0
 26 24  1  0  0  0
 24 22  1  0  0  0
 22 23  2  0  0  0
 22 21  1  0  0  0
 21 20  1  0  0  0
 20 18  1  0  0  0
 18 19  2  0  0  0
 19 17  1  0  0  0
 17 16  1  0  0  0
 16  1  1  0  0  0
  1  2  1  0  0  0
  2  3  2  0  0  0
  2  5  1  0  0  0
  5  6  2  0  0  0
  6  7  1  0  0  0
  7  8  2  0  0  0
  8  9  1  0  0  0
  9 10  2  0  0  0
 10 11  1  0  0  0
 11 12  2  0  0  0
 12 13  1  0  0  0
 13 14  2  0  0  0
 14 15  1  0  0  0
 15 11  1  0  0  0
  1  4  1  0  0  0
M  END
> <minimizedAffinity>
-5.46276

> <CNNscore>
0.2309114486

> <CNNaffinity>
5.5371947289

> <CNN_VS>
1.2786016464

> <CNNaffinity_variance>
0.0281461477

$$$$
[H]Oc1nc(N([H])c2c([H])c(OC([H])([H])[H])c([H])c([H])c2OC([H])([H])[H])c([H])c2c([H])c([H])c([H])c([H])c12


 24 26  0  0  0  0  0  0  0  0999 V2000
   37.1061   12.0607  -16.3836 N   0  0  0  0  0  0  0  0  0  0  0  0
   36.7224   11.5130  -17.2418 H   0  0  0  0  0  0  0  0  0  0  0  0
   38.4854   12.2500  -16.3834 C   0  0  0  0  0  0  0  0  0  0  0  0
   39.0953   12.8197  -15.2660 C   0  0  0  0  0  0  0  0  0  0  0  0
   40.4625   13.0279  -15.2187 C   0  0  0  0  0  0  0  0  0  0  0  0
   41.0752   13.5910  -14.1171 C   0  0  0  0  0  0  0  0  0  0  0  0
   42.4379   13.7773  -14.1188 C   0  0  0  0  0  0  0  0  0  0  0  0
   43.1915   13.4140  -15.1917 C   0  0  0  0  0  0  0  0  0  0  0  0
   42.5868   12.8539  -16.2889 C   0  0  0  0  0  0  0  0  0  0  0  0
   41.2307   12.6647  -16.2961 C   0  0  0  0  0  0  0  0  0  0  0  0
   40.6130   12.1028  -17.3933 C   0  0  0  0  0  0  0  0  0  0  0  0
   41.3821   11.7338  -18.4843 O   0  0  0  0  0  0  0  0  0  0  0  0
   39.2881   11.9298  -17.3731 N   0  0  0  0  0  0  0  0  0  0  0  0
   41.6662   10.7669  -18.5328 H   0  0  0  0  0  0  0  0  0  0  0  0
   35.2998   13.8154  -13.6049 C   0  0  0  0  0  0  0  0  0  0  0  0
   34.0984   13.1622  -13.6928 C   0  0  0  0  0  0  0  0  0  0  0  0
   33.8745   12.1757  -14.6289 C   0  0  0  0  0  0  0  0  0  0  0  0
   34.8801   11.8206  -15.5147 C   0  0  0  0  0  0  0  0  0  0  0  0
   36.1227   12.4533  -15.4694 C   0  0  0  0  0  0  0  0  0  0  0  0
   36.2964   13.4353  -14.5126 C   0  0  0  0  0  0  0  0  0  0  0  0
   36.2379   14.6258  -11.4813 C   0  0  0  0  0  0  0  0  0  0  0  0
   35.5154   14.8095  -12.6565 O   0  0  0  0  0  0  0  0  0  0  0  0
   34.6869   10.8355  -16.4648 O   0  0  0  0  0  0  0  0  0  0  0  0
   33.4578   10.7877  -17.1815 C   0  0  0  0  0  0  0  0  0  0  0  0
 21 22  1  0  0  0
 22 15  1  0  0  0
 15 16  2  0  0  0
 16 17  1  0  0  0
 17 18  2  0  0  0
 18 23  1  0  0  0
 23 24  1  0  0  0
 18 19  1  0  0  0
 19  1  1  0  0  0
  1  3  1  0  0  0
  3  4  2  0  0  0
  4  5  1  0  0  0
  5  6  2  0  0  0
  6  7  1  0  0  0
  7  8  2  0  0  0
  8  9  1  0  0  0
  9 10  2  0  0  0
 10 11  1  0  0  0
 11 12  1  0  0  0
 11 13  2  0  0  0
 19 20  2  0  0  0
 20 15  1  0  0  0
 13  3  1  0  0  0
 10  5  1  0  0  0
  1  2  1  0  0  0
 12 14  1  0  0  0
M  END
> <minimizedAffinity>
-8.44035

> <CNNscore>
0.4211872816

> <CNNaffinity>
6.1477904320

> <CNN_VS>
2.5893712044

> <CNNaffinity_variance>
0.0391695574

$$$$
[H]Oc1nc(N([H])c2c([H])c(OC([H])([H])[H])c([H])c([H])c2OC([H])([H])[H])c([H])c2c([H])c([H])c([H])c([H])c12


 24 26  0  0  0  0  0  0  0  0999 V2000
   38.8494   14.0414  -14.5268 N   0  0  0  0  0  0  0  0  0  0  0  0
   38.8862   15.0670  -14.1657 H   0  0  0  0  0  0  0  0  0  0  0  0
   40.0342   13.5818  -15.0952 C   0  0  0  0  0  0  0  0  0  0  0  0
   41.2334   13.7520  -14.4036 C   0  0  0  0  0  0  0  0  0  0  0  0
   42.4363   13.3122  -14.9272 C   0  0  0  0  0  0  0  0  0  0  0  0
   43.6282   13.4762  -14.2501 C   0  0  0  0  0  0  0  0  0  0  0  0
   44.7977   13.0216  -14.8133 C   0  0  0  0  0  0  0  0  0  0  0  0
   44.7967   12.4117  -16.0295 C   0  0  0  0  0  0  0  0  0  0  0  0
   43.6143   12.2465  -16.7062 C   0  0  0  0  0  0  0  0  0  0  0  0
   42.4451   12.6959  -16.1532 C   0  0  0  0  0  0  0  0  0  0  0  0
   41.2516   12.5350  -16.8246 C   0  0  0  0  0  0  0  0  0  0  0  0
   41.2530   11.9140  -18.0624 O   0  0  0  0  0  0  0  0  0  0  0  0
   40.1257   12.9834  -16.2614 N   0  0  0  0  0  0  0  0  0  0  0  0
   41.0405   10.9278  -18.0753 H   0  0  0  0  0  0  0  0  0  0  0  0
   35.6578   12.1683  -15.1340 C   0  0  0  0  0  0  0  0  0  0  0  0
   35.1599   12.1867  -13.8575 C   0  0  0  0  0  0  0  0  0  0  0  0
   35.8389   12.7907  -12.8213 C   0  0  0  0  0  0  0  0  0  0  0  0
   37.0608   13.4016  -13.0571 C   0  0  0  0  0  0  0  0  0  0  0  0
   37.6142   13.4125  -14.3379 C   0  0  0  0  0  0  0  0  0  0  0  0
   36.8938   12.7934  -15.3418 C   0  0  0  0  0  0  0  0  0  0  0  0
   33.6452   11.1222  -16.0833 C   0  0  0  0  0  0  0  0  0  0  0  0
   34.9645   11.5561  -16.1726 O   0  0  0  0  0  0  0  0  0  0  0  0
   37.7663   14.0158  -12.0395 O   0  0  0  0  0  0  0  0  0  0  0  0
   37.0658   14.7937  -11.0747 C   0  0  0  0  0  0  0  0  0  0  0  0
 21 22  1  0  0  0
 22 15  1  0  0  0
 15 16  2  0  0  0
 16 17  1  0  0  0
 17 18  2  0  0  0
 18 23  1  0  0  0
 23 24  1  0  0  0
 18 19  1  0  0  0
 19  1  1  0  0  0
  1  3  1  0  0  0
  3  4  2  0  0  0
  4  5  1  0  0  0
  5  6  2  0  0  0
  6  7  1  0  0  0
  7  8  2  0  0  0
  8  9  1  0  0  0
  9 10  2  0  0  0
 10 11  1  0  0  0
 11 12  1  0  0  0
 11 13  2  0  0  0
 19 20  2  0  0  0
 20 15  1  0  0  0
 13  3  1  0  0  0
 10  5  1  0  0  0
  1  2  1  0  0  0
 12 14  1  0  0  0
M  END
> <minimizedAffinity>
-7.92101

> <CNNscore>
0.3658461571

> <CNNaffinity>
5.8244976997

> <CNN_VS>
2.1308701038

> <CNNaffinity_variance>
0.0975333303

$$$$
[H]Oc1nc(N([H])c2c([H])c(OC([H])([H])[H])c([H])c([H])c2OC([H])([H])[H])c([H])c2c([H])c([H])c([H])c([H])c12


 24 26  0  0  0  0  0  0  0  0999 V2000
   38.9096   13.9357  -14.3048 N   0  0  0  0  0  0  0  0  0  0  0  0
   39.0035   14.7973  -13.6471 H   0  0  0  0  0  0  0  0  0  0  0  0
   37.6221   13.4151  -14.4016 C   0  0  0  0  0  0  0  0  0  0  0  0
   37.2934   12.6067  -15.4896 C   0  0  0  0  0  0  0  0  0  0  0  0
   36.0273   12.0662  -15.6296 C   0  0  0  0  0  0  0  0  0  0  0  0
   35.6926   11.2650  -16.7029 C   0  0  0  0  0  0  0  0  0  0  0  0
   34.4201   10.7516  -16.7968 C   0  0  0  0  0  0  0  0  0  0  0  0
   33.4855   11.0223  -15.8459 C   0  0  0  0  0  0  0  0  0  0  0  0
   33.8136   11.8183  -14.7773 C   0  0  0  0  0  0  0  0  0  0  0  0
   35.0780   12.3338  -14.6755 C   0  0  0  0  0  0  0  0  0  0  0  0
   35.4183   13.1346  -13.6059 C   0  0  0  0  0  0  0  0  0  0  0  0
   34.4653   13.4088  -12.6393 O   0  0  0  0  0  0  0  0  0  0  0  0
   36.6595   13.6243  -13.5321 N   0  0  0  0  0  0  0  0  0  0  0  0
   34.4759   12.8282  -11.8142 H   0  0  0  0  0  0  0  0  0  0  0  0
   41.4009   12.4334  -16.6712 C   0  0  0  0  0  0  0  0  0  0  0  0
   42.5512   12.8101  -16.0288 C   0  0  0  0  0  0  0  0  0  0  0  0
   42.5249   13.5339  -14.8562 C   0  0  0  0  0  0  0  0  0  0  0  0
   41.3110   13.9004  -14.2958 C   0  0  0  0  0  0  0  0  0  0  0  0
   40.1093   13.5432  -14.9079 C   0  0  0  0  0  0  0  0  0  0  0  0
   40.1901   12.8178  -16.0815 C   0  0  0  0  0  0  0  0  0  0  0  0
   40.3119   11.3473  -18.5897 C   0  0  0  0  0  0  0  0  0  0  0  0
   41.4385   11.7030  -17.8541 O   0  0  0  0  0  0  0  0  0  0  0  0
   41.2510   14.6261  -13.1210 O   0  0  0  0  0  0  0  0  0  0  0  0
   42.4598   15.0390  -12.4925 C   0  0  0  0  0  0  0  0  0  0  0  0
 21 22  1  0  0  0
 22 15  1  0  0  0
 15 16  2  0  0  0
 16 17  1  0  0  0
 17 18  2  0  0  0
 18 23  1  0  0  0
 23 24  1  0  0  0
 18 19  1  0  0  0
 19  1  1  0  0  0
  1  3  1  0  0  0
  3  4  2  0  0  0
  4  5  1  0  0  0
  5  6  2  0  0  0
  6  7  1  0  0  0
  7  8  2  0  0  0
  8  9  1  0  0  0
  9 10  2  0  0  0
 10 11  1  0  0  0
 11 12  1  0  0  0
 11 13  2  0  0  0
 19 20  2  0  0  0
 20 15  1  0  0  0
 13  3  1  0  0  0
 10  5  1  0  0  0
  1  2  1  0  0  0
 12 14  1  0  0  0
M  END
> <minimizedAffinity>
-8.31725

> <CNNscore>
0.2903215587

> <CNNaffinity>
5.8674478531

> <CNN_VS>
1.7034466267

> <CNNaffinity_variance>
0.0348770283

$$$$
[H]Oc1nc(N([H])c2c([H])c(OC([H])([H])[H])c([H])c([H])c2OC([H])([H])[H])c([H])c2c([H])c([H])c([H])c([H])c12


 24 26  0  0  0  0  0  0  0  0999 V2000
   38.7207   13.7895  -14.4625 N   0  0  0  0  0  0  0  0  0  0  0  0
   38.5806   14.6239  -13.7785 H   0  0  0  0  0  0  0  0  0  0  0  0
   40.0448   13.5405  -14.8132 C   0  0  0  0  0  0  0  0  0  0  0  0
   41.0586   13.8355  -13.9019 C   0  0  0  0  0  0  0  0  0  0  0  0
   42.3891   13.6057  -14.2045 C   0  0  0  0  0  0  0  0  0  0  0  0
   43.3995   13.8944  -13.3091 C   0  0  0  0  0  0  0  0  0  0  0  0
   44.7070   13.6478  -13.6573 C   0  0  0  0  0  0  0  0  0  0  0  0
   45.0192   13.1226  -14.8730 C   0  0  0  0  0  0  0  0  0  0  0  0
   44.0182   12.8341  -15.7662 C   0  0  0  0  0  0  0  0  0  0  0  0
   42.7136   13.0763  -15.4282 C   0  0  0  0  0  0  0  0  0  0  0  0
   41.7001   12.7901  -16.3181 C   0  0  0  0  0  0  0  0  0  0  0  0
   42.0203   12.2556  -17.5550 O   0  0  0  0  0  0  0  0  0  0  0  0
   40.4360   13.0368  -15.9619 N   0  0  0  0  0  0  0  0  0  0  0  0
   41.9658   11.2521  -17.6433 H   0  0  0  0  0  0  0  0  0  0  0  0
   36.2402   11.5868  -16.2113 C   0  0  0  0  0  0  0  0  0  0  0  0
   35.1179   11.9380  -15.5077 C   0  0  0  0  0  0  0  0  0  0  0  0
   35.1594   12.8663  -14.4898 C   0  0  0  0  0  0  0  0  0  0  0  0
   36.3601   13.4722  -14.1537 C   0  0  0  0  0  0  0  0  0  0  0  0
   37.5333   13.1518  -14.8375 C   0  0  0  0  0  0  0  0  0  0  0  0
   37.4383   12.2154  -15.8495 C   0  0  0  0  0  0  0  0  0  0  0  0
   37.2449   10.3714  -18.0981 C   0  0  0  0  0  0  0  0  0  0  0  0
   36.1874   10.6488  -17.2368 O   0  0  0  0  0  0  0  0  0  0  0  0
   36.4348   14.4068  -13.1382 O   0  0  0  0  0  0  0  0  0  0  0  0
   36.1923   14.0002  -11.7956 C   0  0  0  0  0  0  0  0  0  0  0  0
 21 22  1  0  0  0
 22 15  1  0  0  0
 15 16  2  0  0  0
 16 17  1  0  0  0
 17 18  2  0  0  0
 18 23  1  0  0  0
 23 24  1  0  0  0
 18 19  1  0  0  0
 19  1  1  0  0  0
  1  3  1  0  0  0
  3  4  2  0  0  0
  4  5  1  0  0  0
  5  6  2  0  0  0
  6  7  1  0  0  0
  7  8  2  0  0  0
  8  9  1  0  0  0
  9 10  2  0  0  0
 10 11  1  0  0  0
 11 12  1  0  0  0
 11 13  2  0  0  0
 19 20  2  0  0  0
 20 15  1  0  0  0
 13  3  1  0  0  0
 10  5  1  0  0  0
  1  2  1  0  0  0
 12 14  1  0  0  0
M  END
> <minimizedAffinity>
-7.68633

> <CNNscore>
0.2901348472

> <CNNaffinity>
5.9043331146

> <CNN_VS>
1.7130527496

> <CNNaffinity_variance>
0.1430292130

$$$$
[H]Oc1nc(N([H])c2c([H])c(OC([H])([H])[H])c([H])c([H])c2OC([H])([H])[H])c([H])c2c([H])c([H])c([H])c([H])c12


 24 26  0  0  0  0  0  0  0  0999 V2000
   37.2100   11.7046  -15.5088 N   0  0  0  0  0  0  0  0  0  0  0  0
   36.7923   10.7360  -15.7750 H   0  0  0  0  0  0  0  0  0  0  0  0
   36.3814   12.4991  -14.7211 C   0  0  0  0  0  0  0  0  0  0  0  0
   36.8794   13.0374  -13.5347 C   0  0  0  0  0  0  0  0  0  0  0  0
   36.0945   13.8326  -12.7186 C   0  0  0  0  0  0  0  0  0  0  0  0
   36.5786   14.3699  -11.5426 C   0  0  0  0  0  0  0  0  0  0  0  0
   35.7584   15.1544  -10.7657 C   0  0  0  0  0  0  0  0  0  0  0  0
   34.4754   15.4089  -11.1402 C   0  0  0  0  0  0  0  0  0  0  0  0
   33.9899   14.8770  -12.3083 C   0  0  0  0  0  0  0  0  0  0  0  0
   34.7992   14.0949  -13.0880 C   0  0  0  0  0  0  0  0  0  0  0  0
   34.3215   13.5555  -14.2636 C   0  0  0  0  0  0  0  0  0  0  0  0
   33.0152   13.8159  -14.6428 O   0  0  0  0  0  0  0  0  0  0  0  0
   35.1333   12.7957  -15.0050 N   0  0  0  0  0  0  0  0  0  0  0  0
   32.8741   14.5752  -15.2920 H   0  0  0  0  0  0  0  0  0  0  0  0
   40.7342   12.9197  -15.9181 C   0  0  0  0  0  0  0  0  0  0  0  0
   41.0176   12.3330  -17.1237 C   0  0  0  0  0  0  0  0  0  0  0  0
   40.0916   11.5611  -17.7918 C   0  0  0  0  0  0  0  0  0  0  0  0
   38.8334   11.3610  -17.2451 C   0  0  0  0  0  0  0  0  0  0  0  0
   38.4916   11.9349  -16.0202 C   0  0  0  0  0  0  0  0  0  0  0  0
   39.4554   12.6999  -15.3908 C   0  0  0  0  0  0  0  0  0  0  0  0
   42.9751   13.2831  -14.9734 C   0  0  0  0  0  0  0  0  0  0  0  0
   41.6758   13.6968  -15.2522 O   0  0  0  0  0  0  0  0  0  0  0  0
   37.8828   10.5925  -17.8901 O   0  0  0  0  0  0  0  0  0  0  0  0
   37.8277   10.5984  -19.3126 C   0  0  0  0  0  0  0  0  0  0  0  0
 21 22  1  0  0  0
 22 15  1  0  0  0
 15 16  2  0  0  0
 16 17  1  0  0  0
 17 18  2  0  0  0
 18 23  1  0  0  0
 23 24  1  0  0  0
 18 19  1  0  0  0
 19  1  1  0  0  0
  1  3  1  0  0  0
  3  4  2  0  0  0
  4  5  1  0  0  0
  5  6  2  0  0  0
  6  7  1  0  0  0
  7  8  2  0  0  0
  8  9  1  0  0  0
  9 10  2  0  0  0
 10 11  1  0  0  0
 11 12  1  0  0  0
 11 13  2  0  0  0
 19 20  2  0  0  0
 20 15  1  0  0  0
 13  3  1  0  0  0
 10  5  1  0  0  0
  1  2  1  0  0  0
 12 14  1  0  0  0
M  END
> <minimizedAffinity>
-7.65317

> <CNNscore>
0.2800821960

> <CNNaffinity>
5.9161734581

> <CNN_VS>
1.6570148468

> <CNNaffinity_variance>
0.1147525460

$$$$
[H]Oc1nc(N([H])c2c([H])c(OC([H])([H])[H])c([H])c([H])c2OC([H])([H])[H])c([H])c2c([H])c([H])c([H])c([H])c12


 24 26  0  0  0  0  0  0  0  0999 V2000
   33.1984   15.1291  -13.0181 N   0  0  0  0  0  0  0  0  0  0  0  0
   33.0888   15.9882  -13.6766 H   0  0  0  0  0  0  0  0  0  0  0  0
   32.5860   15.2666  -11.7754 C   0  0  0  0  0  0  0  0  0  0  0  0
   31.2847   14.7961  -11.6007 C   0  0  0  0  0  0  0  0  0  0  0  0
   30.6341   14.9101  -10.3847 C   0  0  0  0  0  0  0  0  0  0  0  0
   29.3463   14.4473  -10.2022 C   0  0  0  0  0  0  0  0  0  0  0  0
   28.7429   14.5842   -8.9738 C   0  0  0  0  0  0  0  0  0  0  0  0
   29.3979   15.1695   -7.9349 C   0  0  0  0  0  0  0  0  0  0  0  0
   30.6781   15.6310   -8.1117 C   0  0  0  0  0  0  0  0  0  0  0  0
   31.2868   15.4990   -9.3311 C   0  0  0  0  0  0  0  0  0  0  0  0
   32.5728   15.9591   -9.5196 C   0  0  0  0  0  0  0  0  0  0  0  0
   33.2375   16.5547   -8.4606 O   0  0  0  0  0  0  0  0  0  0  0  0
   33.1423   15.8174  -10.7202 N   0  0  0  0  0  0  0  0  0  0  0  0
   33.8548   15.9647   -7.9232 H   0  0  0  0  0  0  0  0  0  0  0  0
   34.1529   12.0548  -14.9418 C   0  0  0  0  0  0  0  0  0  0  0  0
   35.4846   12.0140  -14.6211 C   0  0  0  0  0  0  0  0  0  0  0  0
   36.0638   12.9584  -13.8012 C   0  0  0  0  0  0  0  0  0  0  0  0
   35.2944   13.9855  -13.2768 C   0  0  0  0  0  0  0  0  0  0  0  0
   33.9335   14.0749  -13.5707 C   0  0  0  0  0  0  0  0  0  0  0  0
   33.4012   13.1036  -14.3973 C   0  0  0  0  0  0  0  0  0  0  0  0
   34.2292   10.5019  -16.8468 C   0  0  0  0  0  0  0  0  0  0  0  0
   33.5782   11.0967  -15.7701 O   0  0  0  0  0  0  0  0  0  0  0  0
   35.8454   14.9478  -12.4516 O   0  0  0  0  0  0  0  0  0  0  0  0
   37.2385   15.2277  -12.5383 C   0  0  0  0  0  0  0  0  0  0  0  0
 21 22  1  0  0  0
 22 15  1  0  0  0
 15 16  2  0  0  0
 16 17  1  0  0  0
 17 18  2  0  0  0
 18 23  1  0  0  0
 23 24  1  0  0  0
 18 19  1  0  0  0
 19  1  1  0  0  0
  1  3  1  0  0  0
  3  4  2  0  0  0
  4  5  1  0  0  0
  5  6  2  0  0  0
  6  7  1  0  0  0
  7  8  2  0  0  0
  8  9  1  0  0  0
  9 10  2  0  0  0
 10 11  1  0  0  0
 11 12  1  0  0  0
 11 13  2  0  0  0
 19 20  2  0  0  0
 20 15  1  0  0  0
 13  3  1  0  0  0
 10  5  1  0  0  0
  1  2  1  0  0  0
 12 14  1  0  0  0
M  END
> <minimizedAffinity>
-7.09815

> <CNNscore>
0.2317791581

> <CNNaffinity>
5.2508692741

> <CNN_VS>
1.2170420885

> <CNNaffinity_variance>
0.2508379817

$$$$
[H]Oc1nc(N([H])c2c([H])c(OC([H])([H])[H])c([H])c([H])c2OC([H])([H])[H])c([H])c2c([H])c([H])c([H])c([H])c12


 24 26  0  0  0  0  0  0  0  0999 V2000
   40.4384   14.5261  -14.3462 N   0  0  0  0  0  0  0  0  0  0  0  0
   39.7462   15.3498  -14.1841 H   0  0  0  0  0  0  0  0  0  0  0  0
   40.0451   13.6200  -15.3273 C   0  0  0  0  0  0  0  0  0  0  0  0
   38.7565   13.0880  -15.2872 C   0  0  0  0  0  0  0  0  0  0  0  0
   38.3197   12.1843  -16.2396 C   0  0  0  0  0  0  0  0  0  0  0  0
   37.0461   11.6524  -16.2082 C   0  0  0  0  0  0  0  0  0  0  0  0
   36.6595   10.7573  -17.1783 C   0  0  0  0  0  0  0  0  0  0  0  0
   37.5152   10.3884  -18.1696 C   0  0  0  0  0  0  0  0  0  0  0  0
   38.7821   10.9145  -18.2049 C   0  0  0  0  0  0  0  0  0  0  0  0
   39.1757   11.8063  -17.2433 C   0  0  0  0  0  0  0  0  0  0  0  0
   40.4463   12.3410  -17.2693 C   0  0  0  0  0  0  0  0  0  0  0  0
   41.3156   11.9640  -18.2794 O   0  0  0  0  0  0  0  0  0  0  0  0
   40.8038   13.2090  -16.3182 N   0  0  0  0  0  0  0  0  0  0  0  0
   41.3733   12.5753  -19.0799 H   0  0  0  0  0  0  0  0  0  0  0  0
   43.7528   13.7225  -12.7868 C   0  0  0  0  0  0  0  0  0  0  0  0
   43.7902   14.7227  -11.8508 C   0  0  0  0  0  0  0  0  0  0  0  0
   42.7677   15.6382  -11.7244 C   0  0  0  0  0  0  0  0  0  0  0  0
   41.6627   15.5614  -12.5581 C   0  0  0  0  0  0  0  0  0  0  0  0
   41.5729   14.5631  -13.5285 C   0  0  0  0  0  0  0  0  0  0  0  0
   42.6242   13.6701  -13.6145 C   0  0  0  0  0  0  0  0  0  0  0  0
   45.8004   12.8843  -13.8598 C   0  0  0  0  0  0  0  0  0  0  0  0
   44.7901   12.8037  -12.9061 O   0  0  0  0  0  0  0  0  0  0  0  0
   40.6209   16.4641  -12.4565 O   0  0  0  0  0  0  0  0  0  0  0  0
   39.8126   16.4689  -11.2846 C   0  0  0  0  0  0  0  0  0  0  0  0
 21 22  1  0  0  0
 22 15  1  0  0  0
 15 16  2  0  0  0
 16 17  1  0  0  0
 17 18  2  0  0  0
 18 23  1  0  0  0
 23 24  1  0  0  0
 18 19  1  0  0  0
 19  1  1  0  0  0
  1  3  1  0  0  0
  3  4  2  0  0  0
  4  5  1  0  0  0
  5  6  2  0  0  0
  6  7  1  0  0  0
  7  8  2  0  0  0
  8  9  1  0  0  0
  9 10  2  0  0  0
 10 11  1  0  0  0
 11 12  1  0  0  0
 11 13  2  0  0  0
 19 20  2  0  0  0
 20 15  1  0  0  0
 13  3  1  0  0  0
 10  5  1  0  0  0
  1  2  1  0  0  0
 12 14  1  0  0  0
M  END
> <minimizedAffinity>
-7.90537

> <CNNscore>
0.2274097651

> <CNNaffinity>
5.4512453079

> <CNN_VS>
1.2396664619

> <CNNaffinity_variance>
0.0631685108

$$$$
[H]Oc1nc(N([H])c2c([H])c(OC([H])([H])[H])c([H])c([H])c2OC([H])([H])[H])c([H])c2c([H])c([H])c([H])c([H])c12


 24 26  0  0  0  0  0  0  0  0999 V2000
   37.4854   12.6023  -13.2262 N   0  0  0  0  0  0  0  0  0  0  0  0
   37.6123   11.7812  -12.5239 H   0  0  0  0  0  0  0  0  0  0  0  0
   38.2137   12.4768  -14.4060 C   0  0  0  0  0  0  0  0  0  0  0  0
   37.6831   11.7318  -15.4590 C   0  0  0  0  0  0  0  0  0  0  0  0
   38.3691   11.5782  -16.6508 C   0  0  0  0  0  0  0  0  0  0  0  0
   37.8521   10.8428  -17.6986 C   0  0  0  0  0  0  0  0  0  0  0  0
   38.5732   10.7199  -18.8634 C   0  0  0  0  0  0  0  0  0  0  0  0
   39.7900   11.3134  -18.9978 C   0  0  0  0  0  0  0  0  0  0  0  0
   40.3079   12.0453  -17.9590 C   0  0  0  0  0  0  0  0  0  0  0  0
   39.5971   12.1732  -16.7957 C   0  0  0  0  0  0  0  0  0  0  0  0
   40.1082   12.9063  -15.7457 C   0  0  0  0  0  0  0  0  0  0  0  0
   41.3470   13.5095  -15.8849 O   0  0  0  0  0  0  0  0  0  0  0  0
   39.3930   13.0143  -14.6220 N   0  0  0  0  0  0  0  0  0  0  0  0
   41.3506   14.4794  -16.1628 H   0  0  0  0  0  0  0  0  0  0  0  0
   36.1379   15.7980  -11.7996 C   0  0  0  0  0  0  0  0  0  0  0  0
   34.7992   15.5363  -11.9315 C   0  0  0  0  0  0  0  0  0  0  0  0
   34.3395   14.3535  -12.4694 C   0  0  0  0  0  0  0  0  0  0  0  0
   35.2408   13.3898  -12.8946 C   0  0  0  0  0  0  0  0  0  0  0  0
   36.6150   13.6041  -12.7837 C   0  0  0  0  0  0  0  0  0  0  0  0
   37.0242   14.8060  -12.2376 C   0  0  0  0  0  0  0  0  0  0  0  0
   37.5219   17.0823  -10.2244 C   0  0  0  0  0  0  0  0  0  0  0  0
   36.5912   16.9949  -11.2554 O   0  0  0  0  0  0  0  0  0  0  0  0
   34.8118   12.1936  -13.4381 O   0  0  0  0  0  0  0  0  0  0  0  0
   33.9911   12.2095  -14.6013 C   0  0  0  0  0  0  0  0  0  0  0  0
 21 22  1  0  0  0
 22 15  1  0  0  0
 15 16  2  0  0  0
 16 17  1  0  0  0
 17 18  2  0  0  0
 18 23  1  0  0  0
 23 24  1  0  0  0
 18 19  1  0  0  0
 19  1  1  0  0  0
  1  3  1  0  0  0
  3  4  2  0  0  0
  4  5  1  0  0  0
  5  6  2  0  0  0
  6  7  1  0  0  0
  7  8  2  0  0  0
  8  9  1  0  0  0
  9 10  2  0  0  0
 10 11  1  0  0  0
 11 12  1  0  0  0
 11 13  2  0  0  0
 19 20  2  0  0  0
 20 15  1  0  0  0
 13  3  1  0  0  0
 10  5  1  0  0  0
  1  2  1  0  0  0
 12 14  1  0  0  0
M  END
> <minimizedAffinity>
-8.26647

> <CNNscore>
0.2118674517

> <CNNaffinity>
5.6395339966

> <CNN_VS>
1.1948337555

> <CNNaffinity_variance>
0.0918817669

$$$$
[H]Oc1nc(N([H])c2c([H])c(OC([H])([H])[H])c([H])c([H])c2OC([H])([H])[H])c([H])c2c([H])c([H])c([H])c([H])c12


 24 26  0  0  0  0  0  0  0  0999 V2000
   37.7372   13.3055  -14.4974 N   0  0  0  0  0  0  0  0  0  0  0  0
   38.7890   13.5712  -14.4153 H   0  0  0  0  0  0  0  0  0  0  0  0
   36.9125   13.8920  -13.5412 C   0  0  0  0  0  0  0  0  0  0  0  0
   37.4306   14.1816  -12.2791 C   0  0  0  0  0  0  0  0  0  0  0  0
   36.6504   14.7641  -11.2959 C   0  0  0  0  0  0  0  0  0  0  0  0
   37.1542   15.0544  -10.0438 C   0  0  0  0  0  0  0  0  0  0  0  0
   36.3379   15.6337   -9.1005 C   0  0  0  0  0  0  0  0  0  0  0  0
   35.0396   15.9252   -9.3842 C   0  0  0  0  0  0  0  0  0  0  0  0
   34.5344   15.6384  -10.6274 C   0  0  0  0  0  0  0  0  0  0  0  0
   35.3397   15.0616  -11.5728 C   0  0  0  0  0  0  0  0  0  0  0  0
   34.8423   14.7693  -12.8251 C   0  0  0  0  0  0  0  0  0  0  0  0
   33.5204   15.0668  -13.1115 O   0  0  0  0  0  0  0  0  0  0  0  0
   35.6506   14.2065  -13.7283 N   0  0  0  0  0  0  0  0  0  0  0  0
   33.3441   15.9418  -13.5820 H   0  0  0  0  0  0  0  0  0  0  0  0
   35.9049   11.1432  -16.9530 C   0  0  0  0  0  0  0  0  0  0  0  0
   36.9800   10.6821  -17.6667 C   0  0  0  0  0  0  0  0  0  0  0  0
   38.2701   11.0603  -17.3629 C   0  0  0  0  0  0  0  0  0  0  0  0
   38.5067   11.9305  -16.3099 C   0  0  0  0  0  0  0  0  0  0  0  0
   37.4488   12.4304  -15.5500 C   0  0  0  0  0  0  0  0  0  0  0  0
   36.1749   12.0206  -15.8952 C   0  0  0  0  0  0  0  0  0  0  0  0
   33.5003   10.9982  -16.4598 C   0  0  0  0  0  0  0  0  0  0  0  0
   34.6070   10.7553  -17.2680 O   0  0  0  0  0  0  0  0  0  0  0  0
   39.7885   12.3287  -15.9800 O   0  0  0  0  0  0  0  0  0  0  0  0
   40.5552   13.0677  -16.9248 C   0  0  0  0  0  0  0  0  0  0  0  0
 21 22  1  0  0  0
 22 15  1  0  0  0
 15 16  2  0  0  0
 16 17  1  0  0  0
 17 18  2  0  0  0
 18 23  1  0  0  0
 23 24  1  0  0  0
 18 19  1  0  0  0
 19  1  1  0  0  0
  1  3  1  0  0  0
  3  4  2  0  0  0
  4  5  1  0  0  0
  5  6  2  0  0  0
  6  7  1  0  0  0
  7  8  2  0  0  0
  8  9  1  0  0  0
  9 10  2  0  0  0
 10 11  1  0  0  0
 11 12  1  0  0  0
 11 13  2  0  0  0
 19 20  2  0  0  0
 20 15  1  0  0  0
 13  3  1  0  0  0
 10  5  1  0  0  0
  1  2  1  0  0  0
 12 14  1  0  0  0
M  END
> <minimizedAffinity>
-7.62725

> <CNNscore>
0.2004747838

> <CNNaffinity>
5.4580039978

> <CNN_VS>
1.0941921473

> <CNNaffinity_variance>
0.1381348372

$$$$
[H]Oc1c([H])c2c(c([H])c1O[H])[C@]1([H])c3c(sc(Cl)c3[H])C([H])([H])N([H])[C@@]1([H])C([H])([H])C2([H])[H]


 23 26  0  0  0  0  0  0  0  0999 V2000
   42.0448   13.1807  -16.7524 O   0  0  0  0  0  0  0  0  0  0  0  0
   40.7636   13.0917  -16.2413 C   0  0  0  0  0  0  0  0  0  0  0  0
   40.5415   13.5804  -14.9648 C   0  0  0  0  0  0  0  0  0  0  0  0
   39.2880   13.4994  -14.4496 C   0  0  0  0  0  0  0  0  0  0  0  0
   38.2429   12.9309  -15.1976 C   0  0  0  0  0  0  0  0  0  0  0  0
   38.4748   12.4543  -16.4541 C   0  0  0  0  0  0  0  0  0  0  0  0
   39.7634   12.5318  -16.9981 C   0  0  0  0  0  0  0  0  0  0  0  0
   40.0569   12.0635  -18.2677 O   0  0  0  0  0  0  0  0  0  0  0  0
   36.9617   12.9323  -14.4634 C   0  0  0  0  0  0  0  0  0  0  0  0
   35.8401   12.2110  -15.1075 C   0  0  0  0  0  0  0  0  0  0  0  0
   35.8939   10.9545  -15.6436 C   0  0  0  0  0  0  0  0  0  0  0  0
   34.7497   10.4646  -16.1860 C   0  0  0  0  0  0  0  0  0  0  0  0
   34.4990    8.8981  -16.9467 Cl  0  0  0  0  0  0  0  0  0  0  0  0
   33.6282   11.7245  -15.9530 S   0  0  0  0  0  0  0  0  0  0  0  0
   34.6347   12.8438  -15.1728 C   0  0  0  0  0  0  0  0  0  0  0  0
   34.3728   14.2087  -14.6189 C   0  0  0  0  0  0  0  0  0  0  0  0
   35.3432   14.4424  -13.5544 N   0  0  0  0  0  0  0  0  0  0  0  0
   36.6530   14.3479  -14.1521 C   0  0  0  0  0  0  0  0  0  0  0  0
   37.7224   14.9383  -13.2508 C   0  0  0  0  0  0  0  0  0  0  0  0
   38.9232   14.0170  -13.0967 C   0  0  0  0  0  0  0  0  0  0  0  0
   42.8036   13.5865  -16.2234 H   0  0  0  0  0  0  0  0  0  0  0  0
   39.3917   11.6446  -18.8807 H   0  0  0  0  0  0  0  0  0  0  0  0
   35.1361   15.3616  -13.1316 H   0  0  0  0  0  0  0  0  0  0  0  0
  1  2  1  0  0  0
  2  3  2  0  0  0
  3  4  1  0  0  0
  4  5  2  0  0  0
  5  6  1  0  0  0
  6  7  2  0  0  0
  7  8  1  0  0  0
  5  9  1  0  0  0
  9 10  1  0  0  0
 10 11  1  0  0  0
 11 12  2  0  0  0
 12 13  1  0  0  0
 12 14  1  0  0  0
 14 15  1  0  0  0
 15 16  1  0  0  0
 16 17  1  0  0  0
 17 18  1  0  0  0
 18 19  1  0  0  0
 19 20  1  0  0  0
  7  2  1  0  0  0
 18  9  1  0  0  0
 20  4  1  0  0  0
 15 10  2  0  0  0
  1 21  1  0  0  0
  8 22  1  0  0  0
 17 23  1  0  0  0
M  END
> <minimizedAffinity>
-6.59394

> <CNNscore>
0.6855835319

> <CNNaffinity>
6.5525040627

> <CNN_VS>
4.4922890663

> <CNNaffinity_variance>
0.3402506411

$$$$
[H]Oc1c([H])c2c(c([H])c1O[H])[C@]1([H])c3c(sc(Cl)c3[H])C([H])([H])N([H])[C@@]1([H])C([H])([H])C2([H])[H]


 23 26  0  0  0  0  0  0  0  0999 V2000
   38.3746   16.5315  -11.3081 O   0  0  0  0  0  0  0  0  0  0  0  0
   38.1193   16.0157  -10.0514 C   0  0  0  0  0  0  0  0  0  0  0  0
   39.1014   15.2390   -9.4598 C   0  0  0  0  0  0  0  0  0  0  0  0
   38.8645   14.7253   -8.2256 C   0  0  0  0  0  0  0  0  0  0  0  0
   37.6488   14.9777   -7.5673 C   0  0  0  0  0  0  0  0  0  0  0  0
   36.6903   15.7453   -8.1606 C   0  0  0  0  0  0  0  0  0  0  0  0
   36.9217   16.2818   -9.4338 C   0  0  0  0  0  0  0  0  0  0  0  0
   35.9848   17.0670  -10.0842 O   0  0  0  0  0  0  0  0  0  0  0  0
   37.5830   14.3304   -6.2418 C   0  0  0  0  0  0  0  0  0  0  0  0
   36.2801   14.4077   -5.5421 C   0  0  0  0  0  0  0  0  0  0  0  0
   35.0568   14.1329   -6.0872 C   0  0  0  0  0  0  0  0  0  0  0  0
   33.9762   14.2578   -5.2747 C   0  0  0  0  0  0  0  0  0  0  0  0
   32.2856   13.9798   -5.6750 Cl  0  0  0  0  0  0  0  0  0  0  0  0
   34.6502   14.7452   -3.7890 S   0  0  0  0  0  0  0  0  0  0  0  0
   36.2868   14.7792   -4.2308 C   0  0  0  0  0  0  0  0  0  0  0  0
   37.5264   15.0937   -3.4543 C   0  0  0  0  0  0  0  0  0  0  0  0
   38.6329   14.3880   -4.0922 N   0  0  0  0  0  0  0  0  0  0  0  0
   38.7125   14.8712   -5.4494 C   0  0  0  0  0  0  0  0  0  0  0  0
   40.0367   14.5065   -6.0956 C   0  0  0  0  0  0  0  0  0  0  0  0
   39.8580   13.8972   -7.4782 C   0  0  0  0  0  0  0  0  0  0  0  0
   39.2443   16.3558  -11.7908 H   0  0  0  0  0  0  0  0  0  0  0  0
   35.0935   17.3075   -9.7079 H   0  0  0  0  0  0  0  0  0  0  0  0
   39.4836   14.5580   -3.5318 H   0  0  0  0  0  0  0  0  0  0  0  0
  1  2  1  0  0  0
  2  3  2  0  0  0
  3  4  1  0  0  0
  4  5  2  0  0  0
  5  6  1  0  0  0
  6  7  2  0  0  0
  7  8  1  0  0  0
  5  9  1  0  0  0
  9 10  1  0  0  0
 10 11  1  0  0  0
 11 12  2  0  0  0
 12 13  1  0  0  0
 12 14  1  0  0  0
 14 15  1  0  0  0
 15 16  1  0  0  0
 16 17  1  0  0  0
 17 18  1  0  0  0
 18 19  1  0  0  0
 19 20  1  0  0  0
  7  2  1  0  0  0
 18  9  1  0  0  0
 20  4  1  0  0  0
 15 10  2  0  0  0
  1 21  1  0  0  0
  8 22  1  0  0  0
 17 23  1  0  0  0
M  END
> <minimizedAffinity>
-5.45150

> <CNNscore>
0.3523320258

> <CNNaffinity>
4.7032647133

> <CNN_VS>
1.6571108103

> <CNNaffinity_variance>
0.4356653094

$$$$
[H]Oc1c([H])c2c(c([H])c1O[H])[C@]1([H])c3c(sc(Cl)c3[H])C([H])([H])N([H])[C@@]1([H])C([H])([H])C2([H])[H]


 23 26  0  0  0  0  0  0  0  0999 V2000
   40.5457   16.9822  -10.2177 O   0  0  0  0  0  0  0  0  0  0  0  0
   39.5886   16.1845  -10.8163 C   0  0  0  0  0  0  0  0  0  0  0  0
   38.4993   15.7987  -10.0531 C   0  0  0  0  0  0  0  0  0  0  0  0
   37.5514   15.0148  -10.6277 C   0  0  0  0  0  0  0  0  0  0  0  0
   37.6770   14.6056  -11.9662 C   0  0  0  0  0  0  0  0  0  0  0  0
   38.7541   14.9935  -12.7072 C   0  0  0  0  0  0  0  0  0  0  0  0
   39.7397   15.8025  -12.1270 C   0  0  0  0  0  0  0  0  0  0  0  0
   40.8545   16.2257  -12.8309 O   0  0  0  0  0  0  0  0  0  0  0  0
   36.5492   13.7582  -12.4025 C   0  0  0  0  0  0  0  0  0  0  0  0
   36.6729   13.1491  -13.7467 C   0  0  0  0  0  0  0  0  0  0  0  0
   37.7676   12.4909  -14.2339 C   0  0  0  0  0  0  0  0  0  0  0  0
   37.6807   11.9969  -15.4956 C   0  0  0  0  0  0  0  0  0  0  0  0
   38.9061   11.1123  -16.3964 Cl  0  0  0  0  0  0  0  0  0  0  0  0
   36.1119   12.4389  -15.9884 S   0  0  0  0  0  0  0  0  0  0  0  0
   35.6011   13.2396  -14.5838 C   0  0  0  0  0  0  0  0  0  0  0  0
   34.3070   13.8973  -14.2216 C   0  0  0  0  0  0  0  0  0  0  0  0
   34.1862   13.8542  -12.7680 N   0  0  0  0  0  0  0  0  0  0  0  0
   35.3197   14.5676  -12.2311 C   0  0  0  0  0  0  0  0  0  0  0  0
   35.1162   14.9204  -10.7688 C   0  0  0  0  0  0  0  0  0  0  0  0
   36.3212   14.5595   -9.9130 C   0  0  0  0  0  0  0  0  0  0  0  0
   40.4661   17.2814   -9.2563 H   0  0  0  0  0  0  0  0  0  0  0  0
   41.0402   15.9945  -13.7826 H   0  0  0  0  0  0  0  0  0  0  0  0
   33.2713   14.2596  -12.5129 H   0  0  0  0  0  0  0  0  0  0  0  0
  1  2  1  0  0  0
  2  3  2  0  0  0
  3  4  1  0  0  0
  4  5  2  0  0  0
  5  6  1  0  0  0
  6  7  2  0  0  0
  7  8  1  0  0  0
  5  9  1  0  0  0
  9 10  1  0  0  0
 10 11  1  0  0  0
 11 12  2  0  0  0
 12 13  1  0  0  0
 12 14  1  0  0  0
 14 15  1  0  0  0
 15 16  1  0  0  0
 16 17  1  0  0  0
 17 18  1  0  0  0
 18 19  1  0  0  0
 19 20  1  0  0  0
  7  2  1  0  0  0
 18  9  1  0  0  0
 20  4  1  0  0  0
 15 10  2  0  0  0
  1 21  1  0  0  0
  8 22  1  0  0  0
 17 23  1  0  0  0
M  END
> <minimizedAffinity>
-7.72333

> <CNNscore>
0.3437583745

> <CNNaffinity>
5.6302123070

> <CNN_VS>
1.9354326725

> <CNNaffinity_variance>
0.1160367727

$$$$
[H]Oc1c([H])c2c(c([H])c1O[H])[C@]1([H])c3c(sc(Cl)c3[H])C([H])([H])N([H])[C@@]1([H])C([H])([H])C2([H])[H]


 23 26  0  0  0  0  0  0  0  0999 V2000
   43.6116   12.1352  -17.6233 O   0  0  0  0  0  0  0  0  0  0  0  0
   42.5087   12.4336  -16.8453 C   0  0  0  0  0  0  0  0  0  0  0  0
   42.7309   12.8880  -15.5562 C   0  0  0  0  0  0  0  0  0  0  0  0
   41.6572   13.1847  -14.7802 C   0  0  0  0  0  0  0  0  0  0  0  0
   40.3516   13.0319  -15.2774 C   0  0  0  0  0  0  0  0  0  0  0  0
   40.1465   12.5845  -16.5492 C   0  0  0  0  0  0  0  0  0  0  0  0
   41.2455   12.2748  -17.3608 C   0  0  0  0  0  0  0  0  0  0  0  0
   41.0972   11.8161  -18.6589 O   0  0  0  0  0  0  0  0  0  0  0  0
   39.3250   13.4018  -14.2825 C   0  0  0  0  0  0  0  0  0  0  0  0
   37.9205   13.1230  -14.6601 C   0  0  0  0  0  0  0  0  0  0  0  0
   37.4451   11.9522  -15.1819 C   0  0  0  0  0  0  0  0  0  0  0  0
   36.1170   11.8928  -15.4577 C   0  0  0  0  0  0  0  0  0  0  0  0
   35.2123   10.5415  -16.1293 Cl  0  0  0  0  0  0  0  0  0  0  0  0
   35.5468   13.4306  -14.9999 S   0  0  0  0  0  0  0  0  0  0  0  0
   37.0047   14.1141  -14.4687 C   0  0  0  0  0  0  0  0  0  0  0  0
   37.3278   15.4535  -13.8854 C   0  0  0  0  0  0  0  0  0  0  0  0
   38.5203   15.2948  -13.0596 N   0  0  0  0  0  0  0  0  0  0  0  0
   39.5712   14.8192  -13.9265 C   0  0  0  0  0  0  0  0  0  0  0  0
   40.9381   14.9755  -13.2852 C   0  0  0  0  0  0  0  0  0  0  0  0
   41.7733   13.7078  -13.3858 C   0  0  0  0  0  0  0  0  0  0  0  0
   44.5542   12.2404  -17.2760 H   0  0  0  0  0  0  0  0  0  0  0  0
   40.2190   11.6734  -19.1084 H   0  0  0  0  0  0  0  0  0  0  0  0
   38.7200   16.2036  -12.6116 H   0  0  0  0  0  0  0  0  0  0  0  0
  1  2  1  0  0  0
  2  3  2  0  0  0
  3  4  1  0  0  0
  4  5  2  0  0  0
  5  6  1  0  0  0
  6  7  2  0  0  0
  7  8  1  0  0  0
  5  9  1  0  0  0
  9 10  1  0  0  0
 10 11  1  0  0  0
 11 12  2  0  0  0
 12 13  1  0  0  0
 12 14  1  0  0  0
 14 15  1  0  0  0
 15 16  1  0  0  0
 16 17  1  0  0  0
 17 18  1  0  0  0
 18 19  1  0  0  0
 19 20  1  0  0  0
  7  2  1  0  0  0
 18  9  1  0  0  0
 20  4  1  0  0  0
 15 10  2  0  0  0
  1 21  1  0  0  0
  8 22  1  0  0  0
 17 23  1  0  0  0
M  END
> <minimizedAffinity>
-7.71640

> <CNNscore>
0.3360318542

> <CNNaffinity>
5.8743753433

> <CNN_VS>
1.9739772081

> <CNNaffinity_variance>
0.2115784883

$$$$
[H]Oc1c([H])c2c(c([H])c1O[H])[C@]1([H])c3c(sc(Cl)c3[H])C([H])([H])N([H])[C@@]1([H])C([H])([H])C2([H])[H]


 23 26  0  0  0  0  0  0  0  0999 V2000
   47.8902   19.0555  -13.5454 O   0  0  0  0  0  0  0  0  0  0  0  0
   46.9609   18.0336  -13.4939 C   0  0  0  0  0  0  0  0  0  0  0  0
   46.4695   17.6687  -12.2517 C   0  0  0  0  0  0  0  0  0  0  0  0
   45.5564   16.6662  -12.1856 C   0  0  0  0  0  0  0  0  0  0  0  0
   45.1231   16.0155  -13.3535 C   0  0  0  0  0  0  0  0  0  0  0  0
   45.6142   16.3853  -14.5709 C   0  0  0  0  0  0  0  0  0  0  0  0
   46.5567   17.4184  -14.6535 C   0  0  0  0  0  0  0  0  0  0  0  0
   47.0898   17.8349  -15.8617 O   0  0  0  0  0  0  0  0  0  0  0  0
   44.1346   14.9554  -13.0719 C   0  0  0  0  0  0  0  0  0  0  0  0
   43.7400   14.1095  -14.2216 C   0  0  0  0  0  0  0  0  0  0  0  0
   44.5900   13.5177  -15.1140 C   0  0  0  0  0  0  0  0  0  0  0  0
   44.0292   12.7721  -16.1004 C   0  0  0  0  0  0  0  0  0  0  0  0
   44.8455   11.8945  -17.3884 Cl  0  0  0  0  0  0  0  0  0  0  0  0
   42.3594   12.8932  -15.7897 S   0  0  0  0  0  0  0  0  0  0  0  0
   42.4097   13.8860  -14.4161 C   0  0  0  0  0  0  0  0  0  0  0  0
   41.3303   14.4255  -13.5315 C   0  0  0  0  0  0  0  0  0  0  0  0
   41.9189   14.6611  -12.2172 N   0  0  0  0  0  0  0  0  0  0  0  0
   42.9884   15.6122  -12.4004 C   0  0  0  0  0  0  0  0  0  0  0  0
   43.4251   16.2228  -11.0810 C   0  0  0  0  0  0  0  0  0  0  0  0
   44.9364   16.2054  -10.9071 C   0  0  0  0  0  0  0  0  0  0  0  0
   48.2093   19.5294  -12.7123 H   0  0  0  0  0  0  0  0  0  0  0  0
   46.8515   17.4431  -16.7469 H   0  0  0  0  0  0  0  0  0  0  0  0
   41.1682   14.9845  -11.5861 H   0  0  0  0  0  0  0  0  0  0  0  0
  1  2  1  0  0  0
  2  3  2  0  0  0
  3  4  1  0  0  0
  4  5  2  0  0  0
  5  6  1  0  0  0
  6  7  2  0  0  0
  7  8  1  0  0  0
  5  9  1  0  0  0
  9 10  1  0  0  0
 10 11  1  0  0  0
 11 12  2  0  0  0
 12 13  1  0  0  0
 12 14  1  0  0  0
 14 15  1  0  0  0
 15 16  1  0  0  0
 16 17  1  0  0  0
 17 18  1  0  0  0
 18 19  1  0  0  0
 19 20  1  0  0  0
  7  2  1  0  0  0
 18  9  1  0  0  0
 20  4  1  0  0  0
 15 10  2  0  0  0
  1 21  1  0  0  0
  8 22  1  0  0  0
 17 23  1  0  0  0
M  END
> <minimizedAffinity>
-6.48552

> <CNNscore>
0.2877150774

> <CNNaffinity>
4.6016845703

> <CNN_VS>
1.3239740133

> <CNNaffinity_variance>
0.0665016919

$$$$
[H]Oc1c([H])c2c(c([H])c1O[H])[C@]1([H])c3c(sc(Cl)c3[H])C([H])([H])N([H])[C@@]1([H])C([H])([H])C2([H])[H]


 23 26  0  0  0  0  0  0  0  0999 V2000
   33.4870    9.9437  -17.1568 O   0  0  0  0  0  0  0  0  0  0  0  0
   34.2442   10.8784  -16.4758 C   0  0  0  0  0  0  0  0  0  0  0  0
   33.5744   11.8864  -15.8028 C   0  0  0  0  0  0  0  0  0  0  0  0
   34.3050   12.8119  -15.1298 C   0  0  0  0  0  0  0  0  0  0  0  0
   35.7087   12.7454  -15.1198 C   0  0  0  0  0  0  0  0  0  0  0  0
   36.3560   11.7468  -15.7858 C   0  0  0  0  0  0  0  0  0  0  0  0
   35.6145   10.7851  -16.4842 C   0  0  0  0  0  0  0  0  0  0  0  0
   36.2180    9.7501  -17.1783 O   0  0  0  0  0  0  0  0  0  0  0  0
   36.3172   13.8405  -14.3382 C   0  0  0  0  0  0  0  0  0  0  0  0
   37.7930   13.9453  -14.4018 C   0  0  0  0  0  0  0  0  0  0  0  0
   38.5538   13.9089  -15.5371 C   0  0  0  0  0  0  0  0  0  0  0  0
   39.8977   14.0277  -15.3845 C   0  0  0  0  0  0  0  0  0  0  0  0
   41.1326   14.0174  -16.6377 Cl  0  0  0  0  0  0  0  0  0  0  0  0
   40.0939   14.1867  -13.7005 S   0  0  0  0  0  0  0  0  0  0  0  0
   38.4680   14.0996  -13.2278 C   0  0  0  0  0  0  0  0  0  0  0  0
   37.8097   14.1880  -11.8872 C   0  0  0  0  0  0  0  0  0  0  0  0
   36.4499   14.6732  -12.0987 N   0  0  0  0  0  0  0  0  0  0  0  0
   35.7922   13.7185  -12.9577 C   0  0  0  0  0  0  0  0  0  0  0  0
   34.2853   13.9007  -12.9451 C   0  0  0  0  0  0  0  0  0  0  0  0
   33.6934   13.9271  -14.3464 C   0  0  0  0  0  0  0  0  0  0  0  0
   32.4778    9.9824  -17.1715 H   0  0  0  0  0  0  0  0  0  0  0  0
   37.2033    9.6099  -17.2351 H   0  0  0  0  0  0  0  0  0  0  0  0
   36.0053   14.7867  -11.1735 H   0  0  0  0  0  0  0  0  0  0  0  0
  1  2  1  0  0  0
  2  3  2  0  0  0
  3  4  1  0  0  0
  4  5  2  0  0  0
  5  6  1  0  0  0
  6  7  2  0  0  0
  7  8  1  0  0  0
  5  9  1  0  0  0
  9 10  1  0  0  0
 10 11  1  0  0  0
 11 12  2  0  0  0
 12 13  1  0  0  0
 12 14  1  0  0  0
 14 15  1  0  0  0
 15 16  1  0  0  0
 16 17  1  0  0  0
 17 18  1  0  0  0
 18 19  1  0  0  0
 19 20  1  0  0  0
  7  2  1  0  0  0
 18  9  1  0  0  0
 20  4  1  0  0  0
 15 10  2  0  0  0
  1 21  1  0  0  0
  8 22  1  0  0  0
 17 23  1  0  0  0
M  END
> <minimizedAffinity>
-6.02613

> <CNNscore>
0.2763065994

> <CNNaffinity>
5.7198014259

> <CNN_VS>
1.5804188251

> <CNNaffinity_variance>
0.0650618821

$$$$
[H]Oc1c([H])c2c(c([H])c1O[H])[C@]1([H])c3c(sc(Cl)c3[H])C([H])([H])N([H])[C@@]1([H])C([H])([H])C2([H])[H]


 23 26  0  0  0  0  0  0  0  0999 V2000
   28.7916   11.7334   -7.8261 O   0  0  0  0  0  0  0  0  0  0  0  0
   29.7862   12.6685   -7.6096 C   0  0  0  0  0  0  0  0  0  0  0  0
   30.0278   13.5981   -8.6072 C   0  0  0  0  0  0  0  0  0  0  0  0
   31.0020   14.5225   -8.4086 C   0  0  0  0  0  0  0  0  0  0  0  0
   31.7466   14.5318   -7.2167 C   0  0  0  0  0  0  0  0  0  0  0  0
   31.4978   13.6115   -6.2416 C   0  0  0  0  0  0  0  0  0  0  0  0
   30.4953   12.6520   -6.4334 C   0  0  0  0  0  0  0  0  0  0  0  0
   30.2000   11.6936   -5.4787 O   0  0  0  0  0  0  0  0  0  0  0  0
   32.7573   15.6081   -7.1945 C   0  0  0  0  0  0  0  0  0  0  0  0
   33.6955   15.5983   -6.0487 C   0  0  0  0  0  0  0  0  0  0  0  0
   34.3819   14.5126   -5.5805 C   0  0  0  0  0  0  0  0  0  0  0  0
   35.2023   14.7118   -4.5171 C   0  0  0  0  0  0  0  0  0  0  0  0
   36.2083   13.5275   -3.6919 Cl  0  0  0  0  0  0  0  0  0  0  0  0
   35.0206   16.3710   -4.1802 S   0  0  0  0  0  0  0  0  0  0  0  0
   33.9092   16.7751   -5.3953 C   0  0  0  0  0  0  0  0  0  0  0  0
   33.2710   18.0737   -5.7757 C   0  0  0  0  0  0  0  0  0  0  0  0
   32.9295   17.9949   -7.1922 N   0  0  0  0  0  0  0  0  0  0  0  0
   32.0201   16.8850   -7.3438 C   0  0  0  0  0  0  0  0  0  0  0  0
   31.3018   16.9298   -8.6804 C   0  0  0  0  0  0  0  0  0  0  0  0
   31.3333   15.5897   -9.3999 C   0  0  0  0  0  0  0  0  0  0  0  0
   28.2509   11.7169   -8.6792 H   0  0  0  0  0  0  0  0  0  0  0  0
   30.6652   11.6117   -4.6008 H   0  0  0  0  0  0  0  0  0  0  0  0
   32.5357   18.9066   -7.4755 H   0  0  0  0  0  0  0  0  0  0  0  0
  1  2  1  0  0  0
  2  3  2  0  0  0
  3  4  1  0  0  0
  4  5  2  0  0  0
  5  6  1  0  0  0
  6  7  2  0  0  0
  7  8  1  0  0  0
  5  9  1  0  0  0
  9 10  1  0  0  0
 10 11  1  0  0  0
 11 12  2  0  0  0
 12 13  1  0  0  0
 12 14  1  0  0  0
 14 15  1  0  0  0
 15 16  1  0  0  0
 16 17  1  0  0  0
 17 18  1  0  0  0
 18 19  1  0  0  0
 19 20  1  0  0  0
  7  2  1  0  0  0
 18  9  1  0  0  0
 20  4  1  0  0  0
 15 10  2  0  0  0
  1 21  1  0  0  0
  8 22  1  0  0  0
 17 23  1  0  0  0
M  END
> <minimizedAffinity>
-6.43971

> <CNNscore>
0.2564622760

> <CNNaffinity>
4.6813330650

> <CNN_VS>
1.2005853653

> <CNNaffinity_variance>
0.3548285365

$$$$
[H]Oc1c([H])c2c(c([H])c1O[H])[C@]1([H])c3c(sc(Cl)c3[H])C([H])([H])N([H])[C@@]1([H])C([H])([H])C2([H])[H]


 23 26  0  0  0  0  0  0  0  0999 V2000
   36.1458   15.0012  -12.0340 O   0  0  0  0  0  0  0  0  0  0  0  0
   35.0129   15.2950  -11.2985 C   0  0  0  0  0  0  0  0  0  0  0  0
   33.7903   15.2452  -11.9470 C   0  0  0  0  0  0  0  0  0  0  0  0
   32.6689   15.5318  -11.2374 C   0  0  0  0  0  0  0  0  0  0  0  0
   32.7514   15.8716   -9.8762 C   0  0  0  0  0  0  0  0  0  0  0  0
   33.9616   15.9158   -9.2492 C   0  0  0  0  0  0  0  0  0  0  0  0
   35.1268   15.6223   -9.9694 C   0  0  0  0  0  0  0  0  0  0  0  0
   36.3818   15.6522   -9.3851 O   0  0  0  0  0  0  0  0  0  0  0  0
   31.4270   16.1505   -9.2859 C   0  0  0  0  0  0  0  0  0  0  0  0
   31.4275   16.6709   -7.8994 C   0  0  0  0  0  0  0  0  0  0  0  0
   32.2050   17.6893   -7.4227 C   0  0  0  0  0  0  0  0  0  0  0  0
   32.0524   18.0236   -6.1156 C   0  0  0  0  0  0  0  0  0  0  0  0
   32.8985   19.2758   -5.2147 Cl  0  0  0  0  0  0  0  0  0  0  0  0
   30.8545   16.9451   -5.5669 S   0  0  0  0  0  0  0  0  0  0  0  0
   30.5737   16.0949   -7.0067 C   0  0  0  0  0  0  0  0  0  0  0  0
   29.6271   14.9871   -7.3461 C   0  0  0  0  0  0  0  0  0  0  0  0
   29.3545   15.0677   -8.7773 N   0  0  0  0  0  0  0  0  0  0  0  0
   30.6198   14.9193   -9.4549 C   0  0  0  0  0  0  0  0  0  0  0  0
   30.4313   14.6065  -10.9282 C   0  0  0  0  0  0  0  0  0  0  0  0
   31.2950   15.4842  -11.8217 C   0  0  0  0  0  0  0  0  0  0  0  0
   36.0983   14.7567  -13.0128 H   0  0  0  0  0  0  0  0  0  0  0  0
   36.5523   15.8792   -8.4295 H   0  0  0  0  0  0  0  0  0  0  0  0
   28.6614   14.3385   -9.0105 H   0  0  0  0  0  0  0  0  0  0  0  0
  1  2  1  0  0  0
  2  3  2  0  0  0
  3  4  1  0  0  0
  4  5  2  0  0  0
  5  6  1  0  0  0
  6  7  2  0  0  0
  7  8  1  0  0  0
  5  9  1  0  0  0
  9 10  1  0  0  0
 10 11  1  0  0  0
 11 12  2  0  0  0
 12 13  1  0  0  0
 12 14  1  0  0  0
 14 15  1  0  0  0
 15 16  1  0  0  0
 16 17  1  0  0  0
 17 18  1  0  0  0
 18 19  1  0  0  0
 19 20  1  0  0  0
  7  2  1  0  0  0
 18  9  1  0  0  0
 20  4  1  0  0  0
 15 10  2  0  0  0
  1 21  1  0  0  0
  8 22  1  0  0  0
 17 23  1  0  0  0
M  END
> <minimizedAffinity>
-5.62707

> <CNNscore>
0.2475804985

> <CNNaffinity>
4.8990550041

> <CNN_VS>
1.2129105330

> <CNNaffinity_variance>
0.2142426074

$$$$
[H]Oc1c([H])c2c(c([H])c1O[H])[C@]1([H])c3c(sc(Cl)c3[H])C([H])([H])N([H])[C@@]1([H])C([H])([H])C2([H])[H]


 23 26  0  0  0  0  0  0  0  0999 V2000
   41.6838    8.3652   -3.3609 O   0  0  0  0  0  0  0  0  0  0  0  0
   42.4630    9.2318   -4.1042 C   0  0  0  0  0  0  0  0  0  0  0  0
   41.9109   10.4492   -4.4658 C   0  0  0  0  0  0  0  0  0  0  0  0
   42.6645   11.3104   -5.1964 C   0  0  0  0  0  0  0  0  0  0  0  0
   43.9741   10.9698   -5.5757 C   0  0  0  0  0  0  0  0  0  0  0  0
   44.5064    9.7681   -5.2120 C   0  0  0  0  0  0  0  0  0  0  0  0
   43.7400    8.8700   -4.4581 C   0  0  0  0  0  0  0  0  0  0  0  0
   44.2281    7.6364   -4.0616 O   0  0  0  0  0  0  0  0  0  0  0  0
   44.6245   12.0341   -6.3660 C   0  0  0  0  0  0  0  0  0  0  0  0
   45.9465   11.7014   -6.9447 C   0  0  0  0  0  0  0  0  0  0  0  0
   46.2596   10.5626   -7.6332 C   0  0  0  0  0  0  0  0  0  0  0  0
   47.5327   10.4475   -8.0908 C   0  0  0  0  0  0  0  0  0  0  0  0
   48.2378    9.1164   -9.0000 Cl  0  0  0  0  0  0  0  0  0  0  0  0
   48.2728   11.8913   -7.5742 S   0  0  0  0  0  0  0  0  0  0  0  0
   46.9517   12.6087   -6.7901 C   0  0  0  0  0  0  0  0  0  0  0  0
   46.7959   13.9223   -6.0911 C   0  0  0  0  0  0  0  0  0  0  0  0
   45.3868   14.2937   -6.1667 N   0  0  0  0  0  0  0  0  0  0  0  0
   44.6407   13.2458   -5.5130 C   0  0  0  0  0  0  0  0  0  0  0  0
   43.2244   13.6864   -5.1901 C   0  0  0  0  0  0  0  0  0  0  0  0
   42.1865   12.6606   -5.6205 C   0  0  0  0  0  0  0  0  0  0  0  0
   40.7411    8.5992   -3.0836 H   0  0  0  0  0  0  0  0  0  0  0  0
   45.1409    7.2972   -4.2754 H   0  0  0  0  0  0  0  0  0  0  0  0
   45.2795   15.2242   -5.7319 H   0  0  0  0  0  0  0  0  0  0  0  0
  1  2  1  0  0  0
  2  3  2  0  0  0
  3  4  1  0  0  0
  4  5  2  0  0  0
  5  6  1  0  0  0
  6  7  2  0  0  0
  7  8  1  0  0  0
  5  9  1  0  0  0
  9 10  1  0  0  0
 10 11  1  0  0  0
 11 12  2  0  0  0
 12 13  1  0  0  0
 12 14  1  0  0  0
 14 15  1  0  0  0
 15 16  1  0  0  0
 16 17  1  0  0  0
 17 18  1  0  0  0
 18 19  1  0  0  0
 19 20  1  0  0  0
  7  2  1  0  0  0
 18  9  1  0  0  0
 20  4  1  0  0  0
 15 10  2  0  0  0
  1 21  1  0  0  0
  8 22  1  0  0  0
 17 23  1  0  0  0
M  END
> <minimizedAffinity>
-5.64376

> <CNNscore>
0.2317088544

> <CNNaffinity>
4.1227440834

> <CNN_VS>
0.9552763104

> <CNNaffinity_variance>
0.2199326307

$$$$
[H]c1c(-c2c([H])c([H])c([H])c(C([H])([H])n3nc(-c4c([H])c(F)c([H])c(F)c4[H])c([H])c([H])c3=O)c2[H])nnc(C([H])([H])[H])c1[H]


 29 32  0  0  0  0  0  0  0  0999 V2000
   39.7123   11.9085  -17.5147 N   0  0  0  0  0  0  0  0  0  0  0  0
   38.7754   12.0938  -16.5892 N   0  0  0  0  0  0  0  0  0  0  0  0
   37.5312   11.5805  -16.6543 C   0  0  0  0  0  0  0  0  0  0  0  0
   37.2013   10.8108  -17.7517 C   0  0  0  0  0  0  0  0  0  0  0  0
   38.1480   10.5947  -18.7363 C   0  0  0  0  0  0  0  0  0  0  0  0
   39.4110   11.1632  -18.5894 C   0  0  0  0  0  0  0  0  0  0  0  0
   40.3050   11.0070  -19.4391 O   0  0  0  0  0  0  0  0  0  0  0  0
   36.5738   11.8492  -15.5730 C   0  0  0  0  0  0  0  0  0  0  0  0
   35.2197   11.7074  -15.6850 C   0  0  0  0  0  0  0  0  0  0  0  0
   34.3642   11.9796  -14.6182 C   0  0  0  0  0  0  0  0  0  0  0  0
   33.0332   11.8327  -14.7518 F   0  0  0  0  0  0  0  0  0  0  0  0
   34.8573   12.4037  -13.4066 C   0  0  0  0  0  0  0  0  0  0  0  0
   36.2215   12.5497  -13.2841 C   0  0  0  0  0  0  0  0  0  0  0  0
   36.7101   12.9667  -12.0936 F   0  0  0  0  0  0  0  0  0  0  0  0
   37.0554   12.2768  -14.3478 C   0  0  0  0  0  0  0  0  0  0  0  0
   40.9860   12.5180  -17.2913 C   0  0  0  0  0  0  0  0  0  0  0  0
   42.6774   13.5334  -14.1004 C   0  0  0  0  0  0  0  0  0  0  0  0
   41.6608   14.3133  -13.5742 C   0  0  0  0  0  0  0  0  0  0  0  0
   40.4642   14.5147  -14.2107 C   0  0  0  0  0  0  0  0  0  0  0  0
   40.2415   13.9247  -15.4290 C   0  0  0  0  0  0  0  0  0  0  0  0
   41.2093   13.1445  -15.9967 C   0  0  0  0  0  0  0  0  0  0  0  0
   42.3966   12.9658  -15.3277 C   0  0  0  0  0  0  0  0  0  0  0  0
   47.3547   12.8929  -10.9073 C   0  0  0  0  0  0  0  0  0  0  0  0
   46.1513   13.0563  -11.7987 C   0  0  0  0  0  0  0  0  0  0  0  0
   46.2705   13.0101  -13.1696 C   0  0  0  0  0  0  0  0  0  0  0  0
   45.1406   13.1641  -13.9772 C   0  0  0  0  0  0  0  0  0  0  0  0
   43.9223   13.3604  -13.3739 C   0  0  0  0  0  0  0  0  0  0  0  0
   43.8833   13.3938  -12.0365 N   0  0  0  0  0  0  0  0  0  0  0  0
   44.9452   13.2492  -11.2702 N   0  0  0  0  0  0  0  0  0  0  0  0
 23 24  1  0  0  0
 24 25  2  0  0  0
 25 26  1  0  0  0
 26 27  2  0  0  0
 27 17  1  0  0  0
 17 18  2  0  0  0
 18 19  1  0  0  0
 19 20  2  0  0  0
 20 21  1  0  0  0
 21 16  1  0  0  0
 16  1  1  0  0  0
  1  2  1  0  0  0
  2  3  2  0  0  0
  3  8  1  0  0  0
  8  9  2  0  0  0
  9 10  1  0  0  0
 10 11  1  0  0  0
 10 12  2  0  0  0
 12 13  1  0  0  0
 13 14  1  0  0  0
 13 15  2  0  0  0
  3  4  1  0  0  0
  4  5  2  0  0  0
  5  6  1  0  0  0
  6  7  2  0  0  0
 21 22  2  0  0  0
 27 28  1  0  0  0
 28 29  2  0  0  0
 29 24  1  0  0  0
 22 17  1  0  0  0
  6  1  1  0  0  0
 15  8  1  0  0  0
M  END
> <minimizedAffinity>
-9.65167

> <CNNscore>
0.8497647047

> <CNNaffinity>
7.2880311012

> <CNN_VS>
6.1931114197

> <CNNaffinity_variance>
0.0772503018

$$$$
[H]c1c(-c2c([H])c([H])c([H])c(C([H])([H])n3nc(-c4c([H])c(F)c([H])c(F)c4[H])c([H])c([H])c3=O)c2[H])nnc(C([H])([H])[H])c1[H]


 29 32  0  0  0  0  0  0  0  0999 V2000
   39.6736   11.9550  -17.5719 N   0  0  0  0  0  0  0  0  0  0  0  0
   38.8611   12.2406  -16.5586 N   0  0  0  0  0  0  0  0  0  0  0  0
   37.6178   11.7404  -16.4176 C   0  0  0  0  0  0  0  0  0  0  0  0
   37.1511   10.8742  -17.3857 C   0  0  0  0  0  0  0  0  0  0  0  0
   37.9659   10.5522  -18.4558 C   0  0  0  0  0  0  0  0  0  0  0  0
   39.2381   11.1148  -18.5236 C   0  0  0  0  0  0  0  0  0  0  0  0
   40.0178   10.8661  -19.4595 O   0  0  0  0  0  0  0  0  0  0  0  0
   36.8046   12.1242  -15.2559 C   0  0  0  0  0  0  0  0  0  0  0  0
   37.3125   12.5719  -14.0693 C   0  0  0  0  0  0  0  0  0  0  0  0
   36.4842   12.9206  -13.0033 C   0  0  0  0  0  0  0  0  0  0  0  0
   37.0072   13.3594  -11.8436 F   0  0  0  0  0  0  0  0  0  0  0  0
   35.1165   12.8253  -13.1097 C   0  0  0  0  0  0  0  0  0  0  0  0
   34.5951   12.3748  -14.3024 C   0  0  0  0  0  0  0  0  0  0  0  0
   33.2500   12.2797  -14.4107 F   0  0  0  0  0  0  0  0  0  0  0  0
   35.4265   12.0335  -15.3482 C   0  0  0  0  0  0  0  0  0  0  0  0
   40.9662   12.5656  -17.5695 C   0  0  0  0  0  0  0  0  0  0  0  0
   43.4402   13.2210  -14.8266 C   0  0  0  0  0  0  0  0  0  0  0  0
   42.5635   13.7328  -13.8842 C   0  0  0  0  0  0  0  0  0  0  0  0
   41.2182   13.8677  -14.1069 C   0  0  0  0  0  0  0  0  0  0  0  0
   40.6934   13.4834  -15.3146 C   0  0  0  0  0  0  0  0  0  0  0  0
   41.5113   12.9715  -16.2825 C   0  0  0  0  0  0  0  0  0  0  0  0
   42.8555   12.8515  -16.0220 C   0  0  0  0  0  0  0  0  0  0  0  0
   49.0557   12.6562  -14.0333 C   0  0  0  0  0  0  0  0  0  0  0  0
   47.5662   12.8207  -14.1872 C   0  0  0  0  0  0  0  0  0  0  0  0
   46.7799   13.2056  -13.1246 C   0  0  0  0  0  0  0  0  0  0  0  0
   45.4001   13.3519  -13.2903 C   0  0  0  0  0  0  0  0  0  0  0  0
   44.8558   13.1046  -14.5268 C   0  0  0  0  0  0  0  0  0  0  0  0
   45.6820   12.7343  -15.5126 N   0  0  0  0  0  0  0  0  0  0  0  0
   46.9835   12.5947  -15.3621 N   0  0  0  0  0  0  0  0  0  0  0  0
 23 24  1  0  0  0
 24 25  2  0  0  0
 25 26  1  0  0  0
 26 27  2  0  0  0
 27 17  1  0  0  0
 17 18  2  0  0  0
 18 19  1  0  0  0
 19 20  2  0  0  0
 20 21  1  0  0  0
 21 16  1  0  0  0
 16  1  1  0  0  0
  1  2  1  0  0  0
  2  3  2  0  0  0
  3  8  1  0  0  0
  8  9  2  0  0  0
  9 10  1  0  0  0
 10 11  1  0  0  0
 10 12  2  0  0  0
 12 13  1  0  0  0
 13 14  1  0  0  0
 13 15  2  0  0  0
  3  4  1  0  0  0
  4  5  2  0  0  0
  5  6  1  0  0  0
  6  7  2  0  0  0
 21 22  2  0  0  0
 27 28  1  0  0  0
 28 29  2  0  0  0
 29 24  1  0  0  0
 22 17  1  0  0  0
  6  1  1  0  0  0
 15  8  1  0  0  0
M  END
> <minimizedAffinity>
-10.10528

> <CNNscore>
0.8392047286

> <CNNaffinity>
7.2554092407

> <CNN_VS>
6.0887737274

> <CNNaffinity_variance>
0.0538611040

$$$$
[H]c1c(-c2c([H])c([H])c([H])c(C([H])([H])n3nc(-c4c([H])c(F)c([H])c(F)c4[H])c([H])c([H])c3=O)c2[H])nnc(C([H])([H])[H])c1[H]


 29 32  0  0  0  0  0  0  0  0999 V2000
   39.6386   12.3734  -17.4756 N   0  0  0  0  0  0  0  0  0  0  0  0
   38.5410   12.4251  -16.7262 N   0  0  0  0  0  0  0  0  0  0  0  0
   37.5117   11.5612  -16.8261 C   0  0  0  0  0  0  0  0  0  0  0  0
   37.5961   10.5541  -17.7663 C   0  0  0  0  0  0  0  0  0  0  0  0
   38.7215   10.4664  -18.5654 C   0  0  0  0  0  0  0  0  0  0  0  0
   39.7395   11.4016  -18.3956 C   0  0  0  0  0  0  0  0  0  0  0  0
   40.7755   11.3774  -19.0825 O   0  0  0  0  0  0  0  0  0  0  0  0
   36.3454   11.7115  -15.9457 C   0  0  0  0  0  0  0  0  0  0  0  0
   36.3827   12.2712  -14.7001 C   0  0  0  0  0  0  0  0  0  0  0  0
   35.2370   12.3843  -13.9134 C   0  0  0  0  0  0  0  0  0  0  0  0
   35.2978   12.9395  -12.6891 F   0  0  0  0  0  0  0  0  0  0  0  0
   34.0200   11.9328  -14.3674 C   0  0  0  0  0  0  0  0  0  0  0  0
   33.9725   11.3668  -15.6223 C   0  0  0  0  0  0  0  0  0  0  0  0
   32.7769   10.9215  -16.0722 F   0  0  0  0  0  0  0  0  0  0  0  0
   35.1137   11.2617  -16.3891 C   0  0  0  0  0  0  0  0  0  0  0  0
   40.6426   13.3633  -17.2390 C   0  0  0  0  0  0  0  0  0  0  0  0
   40.3964   14.5108  -13.6759 C   0  0  0  0  0  0  0  0  0  0  0  0
   41.6590   14.1278  -13.2544 C   0  0  0  0  0  0  0  0  0  0  0  0
   42.5721   13.5211  -14.0766 C   0  0  0  0  0  0  0  0  0  0  0  0
   42.2400   13.2717  -15.3840 C   0  0  0  0  0  0  0  0  0  0  0  0
   41.0075   13.6278  -15.8552 C   0  0  0  0  0  0  0  0  0  0  0  0
   40.1187   14.2345  -15.0002 C   0  0  0  0  0  0  0  0  0  0  0  0
   37.0820   17.2677   -9.9480 C   0  0  0  0  0  0  0  0  0  0  0  0
   37.9130   16.5048  -10.9465 C   0  0  0  0  0  0  0  0  0  0  0  0
   37.3770   15.4624  -11.6688 C   0  0  0  0  0  0  0  0  0  0  0  0
   38.1665   14.7686  -12.5897 C   0  0  0  0  0  0  0  0  0  0  0  0
   39.4759   15.1500  -12.7531 C   0  0  0  0  0  0  0  0  0  0  0  0
   39.9276   16.1721  -12.0165 N   0  0  0  0  0  0  0  0  0  0  0  0
   39.1879   16.8297  -11.1468 N   0  0  0  0  0  0  0  0  0  0  0  0
 23 24  1  0  0  0
 24 25  2  0  0  0
 25 26  1  0  0  0
 26 27  2  0  0  0
 27 17  1  0  0  0
 17 18  2  0  0  0
 18 19  1  0  0  0
 19 20  2  0  0  0
 20 21  1  0  0  0
 21 16  1  0  0  0
 16  1  1  0  0  0
  1  2  1  0  0  0
  2  3  2  0  0  0
  3  8  1  0  0  0
  8  9  2  0  0  0
  9 10  1  0  0  0
 10 11  1  0  0  0
 10 12  2  0  0  0
 12 13  1  0  0  0
 13 14  1  0  0  0
 13 15  2  0  0  0
  3  4  1  0  0  0
  4  5  2  0  0  0
  5  6  1  0  0  0
  6  7  2  0  0  0
 21 22  2  0  0  0
 27 28  1  0  0  0
 28 29  2  0  0  0
 29 24  1  0  0  0
 22 17  1  0  0  0
  6  1  1  0  0  0
 15  8  1  0  0  0
M  END
> <minimizedAffinity>
-10.00355

> <CNNscore>
0.8059505224

> <CNNaffinity>
7.5268502235

> <CNN_VS>
6.0662689209

> <CNNaffinity_variance>
0.1609834433

$$$$
[H]c1c(-c2c([H])c([H])c([H])c(C([H])([H])n3nc(-c4c([H])c(F)c([H])c(F)c4[H])c([H])c([H])c3=O)c2[H])nnc(C([H])([H])[H])c1[H]


 29 32  0  0  0  0  0  0  0  0999 V2000
   40.0577   12.1032  -16.7396 N   0  0  0  0  0  0  0  0  0  0  0  0
   38.8386   12.1108  -16.2080 N   0  0  0  0  0  0  0  0  0  0  0  0
   37.7473   11.5905  -16.8030 C   0  0  0  0  0  0  0  0  0  0  0  0
   37.8982   11.0102  -18.0464 C   0  0  0  0  0  0  0  0  0  0  0  0
   39.1502   10.9825  -18.6331 C   0  0  0  0  0  0  0  0  0  0  0  0
   40.2250   11.5438  -17.9479 C   0  0  0  0  0  0  0  0  0  0  0  0
   41.3746   11.5513  -18.4213 O   0  0  0  0  0  0  0  0  0  0  0  0
   36.4463   11.6536  -16.1237 C   0  0  0  0  0  0  0  0  0  0  0  0
   36.2518   12.1578  -14.8690 C   0  0  0  0  0  0  0  0  0  0  0  0
   34.9883   12.1888  -14.2800 C   0  0  0  0  0  0  0  0  0  0  0  0
   34.8207   12.6905  -13.0426 F   0  0  0  0  0  0  0  0  0  0  0  0
   33.8853   11.7090  -14.9465 C   0  0  0  0  0  0  0  0  0  0  0  0
   34.0717   11.1984  -16.2122 C   0  0  0  0  0  0  0  0  0  0  0  0
   32.9888   10.7256  -16.8709 F   0  0  0  0  0  0  0  0  0  0  0  0
   35.3270   11.1744  -16.7821 C   0  0  0  0  0  0  0  0  0  0  0  0
   41.1117   12.6923  -15.9741 C   0  0  0  0  0  0  0  0  0  0  0  0
   41.3883   15.0345  -13.0567 C   0  0  0  0  0  0  0  0  0  0  0  0
   40.0600   15.4199  -12.9825 C   0  0  0  0  0  0  0  0  0  0  0  0
   39.0943   14.9501  -13.8337 C   0  0  0  0  0  0  0  0  0  0  0  0
   39.4382   14.0541  -14.8139 C   0  0  0  0  0  0  0  0  0  0  0  0
   40.7345   13.6384  -14.9345 C   0  0  0  0  0  0  0  0  0  0  0  0
   41.6749   14.1319  -14.0620 C   0  0  0  0  0  0  0  0  0  0  0  0
   45.4638   17.1847   -9.7027 C   0  0  0  0  0  0  0  0  0  0  0  0
   44.3526   16.6109  -10.5425 C   0  0  0  0  0  0  0  0  0  0  0  0
   43.1540   16.2377   -9.9770 C   0  0  0  0  0  0  0  0  0  0  0  0
   42.1371   15.7075  -10.7752 C   0  0  0  0  0  0  0  0  0  0  0  0
   42.3624   15.5704  -12.1232 C   0  0  0  0  0  0  0  0  0  0  0  0
   43.5517   15.9545  -12.6022 N   0  0  0  0  0  0  0  0  0  0  0  0
   44.5141   16.4549  -11.8543 N   0  0  0  0  0  0  0  0  0  0  0  0
 23 24  1  0  0  0
 24 25  2  0  0  0
 25 26  1  0  0  0
 26 27  2  0  0  0
 27 17  1  0  0  0
 17 18  2  0  0  0
 18 19  1  0  0  0
 19 20  2  0  0  0
 20 21  1  0  0  0
 21 16  1  0  0  0
 16  1  1  0  0  0
  1  2  1  0  0  0
  2  3  2  0  0  0
  3  8  1  0  0  0
  8  9  2  0  0  0
  9 10  1  0  0  0
 10 11  1  0  0  0
 10 12  2  0  0  0
 12 13  1  0  0  0
 13 14  1  0  0  0
 13 15  2  0  0  0
  3  4  1  0  0  0
  4  5  2  0  0  0
  5  6  1  0  0  0
  6  7  2  0  0  0
 21 22  2  0  0  0
 27 28  1  0  0  0
 28 29  2  0  0  0
 29 24  1  0  0  0
 22 17  1  0  0  0
  6  1  1  0  0  0
 15  8  1  0  0  0
M  END
> <minimizedAffinity>
-9.76817

> <CNNscore>
0.7373369336

> <CNNaffinity>
7.0831565857

> <CNN_VS>
5.2226729393

> <CNNaffinity_variance>
0.1133944169

$$$$
[H]c1c(-c2c([H])c([H])c([H])c(C([H])([H])n3nc(-c4c([H])c(F)c([H])c(F)c4[H])c([H])c([H])c3=O)c2[H])nnc(C([H])([H])[H])c1[H]


 29 32  0  0  0  0  0  0  0  0999 V2000
   39.6743   12.2911  -17.3742 N   0  0  0  0  0  0  0  0  0  0  0  0
   38.7536   12.5183  -16.4417 N   0  0  0  0  0  0  0  0  0  0  0  0
   37.6001   11.8308  -16.3298 C   0  0  0  0  0  0  0  0  0  0  0  0
   37.3520   10.8232  -17.2401 C   0  0  0  0  0  0  0  0  0  0  0  0
   38.2850   10.5560  -18.2253 C   0  0  0  0  0  0  0  0  0  0  0  0
   39.4515   11.3157  -18.2686 C   0  0  0  0  0  0  0  0  0  0  0  0
   40.3282   11.1255  -19.1294 O   0  0  0  0  0  0  0  0  0  0  0  0
   36.6520   12.1664  -15.2591 C   0  0  0  0  0  0  0  0  0  0  0  0
   35.2925   12.1319  -15.3899 C   0  0  0  0  0  0  0  0  0  0  0  0
   34.4464   12.4630  -14.3323 C   0  0  0  0  0  0  0  0  0  0  0  0
   33.1100   12.4216  -14.4844 F   0  0  0  0  0  0  0  0  0  0  0  0
   34.9546   12.8389  -13.1110 C   0  0  0  0  0  0  0  0  0  0  0  0
   36.3243   12.8767  -12.9695 C   0  0  0  0  0  0  0  0  0  0  0  0
   36.8277   13.2461  -11.7695 F   0  0  0  0  0  0  0  0  0  0  0  0
   37.1487   12.5465  -14.0243 C   0  0  0  0  0  0  0  0  0  0  0  0
   40.8479   13.1070  -17.3508 C   0  0  0  0  0  0  0  0  0  0  0  0
   41.3797   14.3155  -13.8394 C   0  0  0  0  0  0  0  0  0  0  0  0
   42.6328   13.7654  -13.6258 C   0  0  0  0  0  0  0  0  0  0  0  0
   43.2993   13.0290  -14.5699 C   0  0  0  0  0  0  0  0  0  0  0  0
   42.7153   12.8142  -15.7924 C   0  0  0  0  0  0  0  0  0  0  0  0
   41.4794   13.3331  -16.0591 C   0  0  0  0  0  0  0  0  0  0  0  0
   40.8421   14.0665  -15.0869 C   0  0  0  0  0  0  0  0  0  0  0  0
   38.4682   17.2523   -9.9176 C   0  0  0  0  0  0  0  0  0  0  0  0
   39.2868   16.4905  -10.9269 C   0  0  0  0  0  0  0  0  0  0  0  0
   40.6594   16.4352  -10.8330 C   0  0  0  0  0  0  0  0  0  0  0  0
   41.3988   15.7226  -11.7806 C   0  0  0  0  0  0  0  0  0  0  0  0
   40.7277   15.0862  -12.7961 C   0  0  0  0  0  0  0  0  0  0  0  0
   39.3931   15.1838  -12.8231 N   0  0  0  0  0  0  0  0  0  0  0  0
   38.6909   15.8543  -11.9325 N   0  0  0  0  0  0  0  0  0  0  0  0
 23 24  1  0  0  0
 24 25  2  0  0  0
 25 26  1  0  0  0
 26 27  2  0  0  0
 27 17  1  0  0  0
 17 18  2  0  0  0
 18 19  1  0  0  0
 19 20  2  0  0  0
 20 21  1  0  0  0
 21 16  1  0  0  0
 16  1  1  0  0  0
  1  2  1  0  0  0
  2  3  2  0  0  0
  3  8  1  0  0  0
  8  9  2  0  0  0
  9 10  1  0  0  0
 10 11  1  0  0  0
 10 12  2  0  0  0
 12 13  1  0  0  0
 13 14  1  0  0  0
 13 15  2  0  0  0
  3  4  1  0  0  0
  4  5  2  0  0  0
  5  6  1  0  0  0
  6  7  2  0  0  0
 21 22  2  0  0  0
 27 28  1  0  0  0
 28 29  2  0  0  0
 29 24  1  0  0  0
 22 17  1  0  0  0
  6  1  1  0  0  0
 15  8  1  0  0  0
M  END
> <minimizedAffinity>
-9.80409

> <CNNscore>
0.7248770595

> <CNNaffinity>
7.3250808716

> <CNN_VS>
5.3097829819

> <CNNaffinity_variance>
0.1534407437

$$$$
[H]c1c(-c2c([H])c([H])c([H])c(C([H])([H])n3nc(-c4c([H])c(F)c([H])c(F)c4[H])c([H])c([H])c3=O)c2[H])nnc(C([H])([H])[H])c1[H]


 29 32  0  0  0  0  0  0  0  0999 V2000
   40.0179   12.7034  -17.0381 N   0  0  0  0  0  0  0  0  0  0  0  0
   39.0197   12.8178  -16.1667 N   0  0  0  0  0  0  0  0  0  0  0  0
   37.9627   11.9841  -16.1087 C   0  0  0  0  0  0  0  0  0  0  0  0
   37.9064   10.9407  -17.0107 C   0  0  0  0  0  0  0  0  0  0  0  0
   38.9253   10.7875  -17.9332 C   0  0  0  0  0  0  0  0  0  0  0  0
   39.9815   11.6954  -17.9234 C   0  0  0  0  0  0  0  0  0  0  0  0
   40.9268   11.6126  -18.7266 O   0  0  0  0  0  0  0  0  0  0  0  0
   36.9146   12.2042  -15.1032 C   0  0  0  0  0  0  0  0  0  0  0  0
   37.1437   12.6380  -13.8283 C   0  0  0  0  0  0  0  0  0  0  0  0
   36.1022   12.8271  -12.9207 C   0  0  0  0  0  0  0  0  0  0  0  0
   36.3520   13.2555  -11.6697 F   0  0  0  0  0  0  0  0  0  0  0  0
   34.7978   12.5815  -13.2800 C   0  0  0  0  0  0  0  0  0  0  0  0
   34.5568   12.1436  -14.5636 C   0  0  0  0  0  0  0  0  0  0  0  0
   33.2747   11.9010  -14.9205 F   0  0  0  0  0  0  0  0  0  0  0  0
   35.5968   11.9612  -15.4503 C   0  0  0  0  0  0  0  0  0  0  0  0
   41.0696   13.6687  -16.9626 C   0  0  0  0  0  0  0  0  0  0  0  0
   43.0355   13.7264  -13.7680 C   0  0  0  0  0  0  0  0  0  0  0  0
   44.1159   12.9659  -14.1838 C   0  0  0  0  0  0  0  0  0  0  0  0
   44.2249   12.4458  -15.4469 C   0  0  0  0  0  0  0  0  0  0  0  0
   43.2271   12.6774  -16.3593 C   0  0  0  0  0  0  0  0  0  0  0  0
   42.1368   13.4211  -16.0044 C   0  0  0  0  0  0  0  0  0  0  0  0
   42.0632   13.9262  -14.7282 C   0  0  0  0  0  0  0  0  0  0  0  0
   42.5799   16.0654   -8.5907 C   0  0  0  0  0  0  0  0  0  0  0  0
   42.7352   15.4067   -9.9365 C   0  0  0  0  0  0  0  0  0  0  0  0
   43.5151   14.2827  -10.0922 C   0  0  0  0  0  0  0  0  0  0  0  0
   43.6449   13.6882  -11.3501 C   0  0  0  0  0  0  0  0  0  0  0  0
   42.9815   14.2484  -12.4144 C   0  0  0  0  0  0  0  0  0  0  0  0
   42.2418   15.3406  -12.1875 N   0  0  0  0  0  0  0  0  0  0  0  0
   42.1159   15.9053  -11.0038 N   0  0  0  0  0  0  0  0  0  0  0  0
 23 24  1  0  0  0
 24 25  2  0  0  0
 25 26  1  0  0  0
 26 27  2  0  0  0
 27 17  1  0  0  0
 17 18  2  0  0  0
 18 19  1  0  0  0
 19 20  2  0  0  0
 20 21  1  0  0  0
 21 16  1  0  0  0
 16  1  1  0  0  0
  1  2  1  0  0  0
  2  3  2  0  0  0
  3  8  1  0  0  0
  8  9  2  0  0  0
  9 10  1  0  0  0
 10 11  1  0  0  0
 10 12  2  0  0  0
 12 13  1  0  0  0
 13 14  1  0  0  0
 13 15  2  0  0  0
  3  4  1  0  0  0
  4  5  2  0  0  0
  5  6  1  0  0  0
  6  7  2  0  0  0
 21 22  2  0  0  0
 27 28  1  0  0  0
 28 29  2  0  0  0
 29 24  1  0  0  0
 22 17  1  0  0  0
  6  1  1  0  0  0
 15  8  1  0  0  0
M  END
> <minimizedAffinity>
-8.75382

> <CNNscore>
0.6913329959

> <CNNaffinity>
7.2702131271

> <CNN_VS>
5.0261383057

> <CNNaffinity_variance>
0.2896410525

$$$$
[H]c1c(-c2c([H])c([H])c([H])c(C([H])([H])n3nc(-c4c([H])c(F)c([H])c(F)c4[H])c([H])c([H])c3=O)c2[H])nnc(C([H])([H])[H])c1[H]


 29 32  0  0  0  0  0  0  0  0999 V2000
   35.7859   11.0082  -16.3479 N   0  0  0  0  0  0  0  0  0  0  0  0
   36.3996   11.7870  -15.4615 N   0  0  0  0  0  0  0  0  0  0  0  0
   35.7648   12.6247  -14.6183 C   0  0  0  0  0  0  0  0  0  0  0  0
   34.3867   12.6830  -14.6735 C   0  0  0  0  0  0  0  0  0  0  0  0
   33.7114   11.8886  -15.5821 C   0  0  0  0  0  0  0  0  0  0  0  0
   34.4463   11.0506  -16.4172 C   0  0  0  0  0  0  0  0  0  0  0  0
   33.8989   10.3130  -17.2550 O   0  0  0  0  0  0  0  0  0  0  0  0
   36.5436   13.4410  -13.6775 C   0  0  0  0  0  0  0  0  0  0  0  0
   37.6670   14.1442  -14.0088 C   0  0  0  0  0  0  0  0  0  0  0  0
   38.3615   14.9014  -13.0662 C   0  0  0  0  0  0  0  0  0  0  0  0
   39.4660   15.5862  -13.4157 F   0  0  0  0  0  0  0  0  0  0  0  0
   37.9369   14.9672  -11.7600 C   0  0  0  0  0  0  0  0  0  0  0  0
   36.8050   14.2613  -11.4164 C   0  0  0  0  0  0  0  0  0  0  0  0
   36.3843   14.3238  -10.1322 F   0  0  0  0  0  0  0  0  0  0  0  0
   36.1283   13.5168  -12.3593 C   0  0  0  0  0  0  0  0  0  0  0  0
   36.6065   10.1706  -17.1656 C   0  0  0  0  0  0  0  0  0  0  0  0
   39.9606   11.8410  -17.3496 C   0  0  0  0  0  0  0  0  0  0  0  0
   40.1026   11.8540  -18.7273 C   0  0  0  0  0  0  0  0  0  0  0  0
   39.1596   11.3481  -19.5832 C   0  0  0  0  0  0  0  0  0  0  0  0
   38.0119   10.7974  -19.0717 C   0  0  0  0  0  0  0  0  0  0  0  0
   37.8179   10.7572  -17.7195 C   0  0  0  0  0  0  0  0  0  0  0  0
   38.7865   11.2748  -16.8931 C   0  0  0  0  0  0  0  0  0  0  0  0
   44.3061   13.8481  -14.2560 C   0  0  0  0  0  0  0  0  0  0  0  0
   43.1208   13.3423  -15.0362 C   0  0  0  0  0  0  0  0  0  0  0  0
   41.8337   13.6153  -14.6305 C   0  0  0  0  0  0  0  0  0  0  0  0
   40.7491   13.1360  -15.3697 C   0  0  0  0  0  0  0  0  0  0  0  0
   40.9984   12.3940  -16.4984 C   0  0  0  0  0  0  0  0  0  0  0  0
   42.2751   12.1689  -16.8312 N   0  0  0  0  0  0  0  0  0  0  0  0
   43.3015   12.6183  -16.1381 N   0  0  0  0  0  0  0  0  0  0  0  0
 23 24  1  0  0  0
 24 25  2  0  0  0
 25 26  1  0  0  0
 26 27  2  0  0  0
 27 17  1  0  0  0
 17 18  2  0  0  0
 18 19  1  0  0  0
 19 20  2  0  0  0
 20 21  1  0  0  0
 21 16  1  0  0  0
 16  1  1  0  0  0
  1  2  1  0  0  0
  2  3  2  0  0  0
  3  8  1  0  0  0
  8  9  2  0  0  0
  9 10  1  0  0  0
 10 11  1  0  0  0
 10 12  2  0  0  0
 12 13  1  0  0  0
 13 14  1  0  0  0
 13 15  2  0  0  0
  3  4  1  0  0  0
  4  5  2  0  0  0
  5  6  1  0  0  0
  6  7  2  0  0  0
 21 22  2  0  0  0
 27 28  1  0  0  0
 28 29  2  0  0  0
 29 24  1  0  0  0
 22 17  1  0  0  0
  6  1  1  0  0  0
 15  8  1  0  0  0
M  END
> <minimizedAffinity>
-9.90603

> <CNNscore>
0.5919343233

> <CNNaffinity>
7.4883985519

> <CNN_VS>
4.4326400757

> <CNNaffinity_variance>
0.0582212023

$$$$
[H]c1c(-c2c([H])c([H])c([H])c(C([H])([H])n3nc(-c4c([H])c(F)c([H])c(F)c4[H])c([H])c([H])c3=O)c2[H])nnc(C([H])([H])[H])c1[H]


 29 32  0  0  0  0  0  0  0  0999 V2000
   35.3110   12.2076  -14.6594 N   0  0  0  0  0  0  0  0  0  0  0  0
   36.5741   12.2652  -15.0719 N   0  0  0  0  0  0  0  0  0  0  0  0
   37.0217   11.7307  -16.2250 C   0  0  0  0  0  0  0  0  0  0  0  0
   36.1143   11.0791  -17.0359 C   0  0  0  0  0  0  0  0  0  0  0  0
   34.7911   10.9976  -16.6421 C   0  0  0  0  0  0  0  0  0  0  0  0
   34.4135   11.5782  -15.4337 C   0  0  0  0  0  0  0  0  0  0  0  0
   33.2405   11.5387  -15.0236 O   0  0  0  0  0  0  0  0  0  0  0  0
   38.4411   11.8535  -16.5832 C   0  0  0  0  0  0  0  0  0  0  0  0
   39.0128   11.2869  -17.6871 C   0  0  0  0  0  0  0  0  0  0  0  0
   40.3691   11.4421  -17.9706 C   0  0  0  0  0  0  0  0  0  0  0  0
   40.9104   10.8746  -19.0642 F   0  0  0  0  0  0  0  0  0  0  0  0
   41.1853   12.1764  -17.1425 C   0  0  0  0  0  0  0  0  0  0  0  0
   40.6178   12.7515  -16.0268 C   0  0  0  0  0  0  0  0  0  0  0  0
   41.4177   13.4746  -15.2099 F   0  0  0  0  0  0  0  0  0  0  0  0
   39.2749   12.5896  -15.7592 C   0  0  0  0  0  0  0  0  0  0  0  0
   34.9983   12.8320  -13.4120 C   0  0  0  0  0  0  0  0  0  0  0  0
   36.9726   14.7238  -10.8436 C   0  0  0  0  0  0  0  0  0  0  0  0
   37.9049   15.2990  -11.6913 C   0  0  0  0  0  0  0  0  0  0  0  0
   37.9114   15.0968  -13.0466 C   0  0  0  0  0  0  0  0  0  0  0  0
   36.9573   14.2893  -13.6118 C   0  0  0  0  0  0  0  0  0  0  0  0
   36.0120   13.6949  -12.8238 C   0  0  0  0  0  0  0  0  0  0  0  0
   36.0379   13.9217  -11.4684 C   0  0  0  0  0  0  0  0  0  0  0  0
   36.8848   15.4410   -5.1902 C   0  0  0  0  0  0  0  0  0  0  0  0
   36.9484   15.2929   -6.6880 C   0  0  0  0  0  0  0  0  0  0  0  0
   37.7979   16.0694   -7.4438 C   0  0  0  0  0  0  0  0  0  0  0  0
   37.8403   15.9150   -8.8319 C   0  0  0  0  0  0  0  0  0  0  0  0
   37.0216   14.9792   -9.4154 C   0  0  0  0  0  0  0  0  0  0  0  0
   36.2222   14.2610   -8.6174 N   0  0  0  0  0  0  0  0  0  0  0  0
   36.1781   14.4023   -7.3082 N   0  0  0  0  0  0  0  0  0  0  0  0
 23 24  1  0  0  0
 24 25  2  0  0  0
 25 26  1  0  0  0
 26 27  2  0  0  0
 27 17  1  0  0  0
 17 18  2  0  0  0
 18 19  1  0  0  0
 19 20  2  0  0  0
 20 21  1  0  0  0
 21 16  1  0  0  0
 16  1  1  0  0  0
  1  2  1  0  0  0
  2  3  2  0  0  0
  3  8  1  0  0  0
  8  9  2  0  0  0
  9 10  1  0  0  0
 10 11  1  0  0  0
 10 12  2  0  0  0
 12 13  1  0  0  0
 13 14  1  0  0  0
 13 15  2  0  0  0
  3  4  1  0  0  0
  4  5  2  0  0  0
  5  6  1  0  0  0
  6  7  2  0  0  0
 21 22  2  0  0  0
 27 28  1  0  0  0
 28 29  2  0  0  0
 29 24  1  0  0  0
 22 17  1  0  0  0
  6  1  1  0  0  0
 15  8  1  0  0  0
M  END
> <minimizedAffinity>
-9.58563

> <CNNscore>
0.3026878238

> <CNNaffinity>
6.4104776382

> <CNN_VS>
1.9403735399

> <CNNaffinity_variance>
0.2003512681

$$$$
[H]c1c(-c2c([H])c([H])c([H])c(C([H])([H])n3nc(-c4c([H])c(F)c([H])c(F)c4[H])c([H])c([H])c3=O)c2[H])nnc(C([H])([H])[H])c1[H]


 29 32  0  0  0  0  0  0  0  0999 V2000
   38.1970   11.8149  -16.8731 N   0  0  0  0  0  0  0  0  0  0  0  0
   37.6298   12.5283  -15.9045 N   0  0  0  0  0  0  0  0  0  0  0  0
   36.3321   12.4359  -15.5534 C   0  0  0  0  0  0  0  0  0  0  0  0
   35.5338   11.5439  -16.2408 C   0  0  0  0  0  0  0  0  0  0  0  0
   36.0862   10.7836  -17.2553 C   0  0  0  0  0  0  0  0  0  0  0  0
   37.4374   10.9423  -17.5533 C   0  0  0  0  0  0  0  0  0  0  0  0
   37.9931   10.2895  -18.4537 O   0  0  0  0  0  0  0  0  0  0  0  0
   35.8095   13.2735  -14.4657 C   0  0  0  0  0  0  0  0  0  0  0  0
   36.5492   14.1845  -13.7662 C   0  0  0  0  0  0  0  0  0  0  0  0
   35.9915   14.9498  -12.7428 C   0  0  0  0  0  0  0  0  0  0  0  0
   36.7397   15.8413  -12.0673 F   0  0  0  0  0  0  0  0  0  0  0  0
   34.6670   14.8133  -12.3989 C   0  0  0  0  0  0  0  0  0  0  0  0
   33.9131   13.8971  -13.0986 C   0  0  0  0  0  0  0  0  0  0  0  0
   32.6097   13.7602  -12.7630 F   0  0  0  0  0  0  0  0  0  0  0  0
   34.4782   13.1472  -14.1084 C   0  0  0  0  0  0  0  0  0  0  0  0
   39.5895   12.0282  -17.1166 C   0  0  0  0  0  0  0  0  0  0  0  0
   42.5283   13.2665  -15.1408 C   0  0  0  0  0  0  0  0  0  0  0  0
   41.8335   13.8819  -14.1126 C   0  0  0  0  0  0  0  0  0  0  0  0
   40.4652   13.9054  -14.0411 C   0  0  0  0  0  0  0  0  0  0  0  0
   39.7287   13.2961  -15.0250 C   0  0  0  0  0  0  0  0  0  0  0  0
   40.3609   12.6733  -16.0644 C   0  0  0  0  0  0  0  0  0  0  0  0
   41.7349   12.6707  -16.1014 C   0  0  0  0  0  0  0  0  0  0  0  0
   48.2118   13.0366  -15.4980 C   0  0  0  0  0  0  0  0  0  0  0  0
   46.7149   13.1368  -15.3614 C   0  0  0  0  0  0  0  0  0  0  0  0
   46.1401   13.9852  -14.4419 C   0  0  0  0  0  0  0  0  0  0  0  0
   44.7492   14.0620  -14.3324 C   0  0  0  0  0  0  0  0  0  0  0  0
   43.9799   13.2779  -15.1569 C   0  0  0  0  0  0  0  0  0  0  0  0
   44.6083   12.4774  -16.0263 N   0  0  0  0  0  0  0  0  0  0  0  0
   45.9192   12.4009  -16.1337 N   0  0  0  0  0  0  0  0  0  0  0  0
 23 24  1  0  0  0
 24 25  2  0  0  0
 25 26  1  0  0  0
 26 27  2  0  0  0
 27 17  1  0  0  0
 17 18  2  0  0  0
 18 19  1  0  0  0
 19 20  2  0  0  0
 20 21  1  0  0  0
 21 16  1  0  0  0
 16  1  1  0  0  0
  1  2  1  0  0  0
  2  3  2  0  0  0
  3  8  1  0  0  0
  8  9  2  0  0  0
  9 10  1  0  0  0
 10 11  1  0  0  0
 10 12  2  0  0  0
 12 13  1  0  0  0
 13 14  1  0  0  0
 13 15  2  0  0  0
  3  4  1  0  0  0
  4  5  2  0  0  0
  5  6  1  0  0  0
  6  7  2  0  0  0
 21 22  2  0  0  0
 27 28  1  0  0  0
 28 29  2  0  0  0
 29 24  1  0  0  0
 22 17  1  0  0  0
  6  1  1  0  0  0
 15  8  1  0  0  0
M  END
> <minimizedAffinity>
-10.04141

> <CNNscore>
0.2994050980

> <CNNaffinity>
6.5890336037

> <CNN_VS>
1.9727902412

> <CNNaffinity_variance>
0.1077662557

$$$$
[H]c1c([H])c([H])c(-c2c([H])c([H])c(C([H])([H])Sc3nnc(-c4c([H])c([H])c5c(c4[H])O[C@@]([H])(C([H])([H])OC([H])([H])[H])C([H])([H])O5)o3)c([H])c2[H])c(C#N)c1[H]


 34 38  0  0  0  0  0  0  0  0999 V2000
   41.0256   11.9912  -17.1020 C   0  0  0  0  0  0  0  0  0  0  0  0
   40.8357   11.9737  -18.4205 N   0  0  0  0  0  0  0  0  0  0  0  0
   39.6250   11.5167  -18.6552 N   0  0  0  0  0  0  0  0  0  0  0  0
   39.0428   11.2428  -17.4848 C   0  0  0  0  0  0  0  0  0  0  0  0
   39.9491   11.5530  -16.5539 O   0  0  0  0  0  0  0  0  0  0  0  0
   44.4682   15.1334  -13.1361 C   0  0  0  0  0  0  0  0  0  0  0  0
   45.5662   14.0799  -13.1499 C   0  0  0  0  0  0  0  0  0  0  0  0
   45.7306   13.6881  -14.5267 O   0  0  0  0  0  0  0  0  0  0  0  0
   44.5889   13.2593  -15.1799 C   0  0  0  0  0  0  0  0  0  0  0  0
   44.6701   12.5118  -16.3587 C   0  0  0  0  0  0  0  0  0  0  0  0
   43.4888   12.1192  -16.9536 C   0  0  0  0  0  0  0  0  0  0  0  0
   42.2579   12.4374  -16.4286 C   0  0  0  0  0  0  0  0  0  0  0  0
   42.2044   13.1650  -15.2820 C   0  0  0  0  0  0  0  0  0  0  0  0
   43.3645   13.5881  -14.6382 C   0  0  0  0  0  0  0  0  0  0  0  0
   43.2829   14.3296  -13.4688 O   0  0  0  0  0  0  0  0  0  0  0  0
   44.2411   15.7470  -11.7986 C   0  0  0  0  0  0  0  0  0  0  0  0
   42.4435   16.1354  -10.3058 C   0  0  0  0  0  0  0  0  0  0  0  0
   43.0762   16.2934  -11.4746 O   0  0  0  0  0  0  0  0  0  0  0  0
   37.4151   10.6026  -17.1989 S   0  0  0  0  0  0  0  0  0  0  0  0
   36.1865   11.8585  -16.8271 C   0  0  0  0  0  0  0  0  0  0  0  0
   36.4493   12.5658  -15.5577 C   0  0  0  0  0  0  0  0  0  0  0  0
   37.1950   11.9067  -14.5806 C   0  0  0  0  0  0  0  0  0  0  0  0
   37.4511   12.5114  -13.3703 C   0  0  0  0  0  0  0  0  0  0  0  0
   36.9975   13.7689  -13.0638 C   0  0  0  0  0  0  0  0  0  0  0  0
   36.2595   14.4161  -14.0349 C   0  0  0  0  0  0  0  0  0  0  0  0
   35.9988   13.8124  -15.2532 C   0  0  0  0  0  0  0  0  0  0  0  0
   37.2491   14.4552  -11.8062 C   0  0  0  0  0  0  0  0  0  0  0  0
   36.3410   14.3452  -10.7448 C   0  0  0  0  0  0  0  0  0  0  0  0
   36.5694   14.9754   -9.5458 C   0  0  0  0  0  0  0  0  0  0  0  0
   37.6933   15.7416   -9.3270 C   0  0  0  0  0  0  0  0  0  0  0  0
   38.5941   15.8595  -10.3597 C   0  0  0  0  0  0  0  0  0  0  0  0
   38.3654   15.2195  -11.5823 C   0  0  0  0  0  0  0  0  0  0  0  0
   39.3297   15.3848  -12.6373 C   0  0  0  0  0  0  0  0  0  0  0  0
   40.1219   15.4981  -13.4831 N   0  0  0  0  0  0  0  0  0  0  0  0
 17 18  1  0  0  0
 18 16  1  0  0  0
 16  6  1  0  0  0
  6  7  1  0  0  0
  7  8  1  0  0  0
  8  9  1  0  0  0
  9 10  2  0  0  0
 10 11  1  0  0  0
 11 12  2  0  0  0
 12  1  1  0  0  0
  1  2  2  0  0  0
  2  3  1  0  0  0
  3  4  2  0  0  0
  4 19  1  0  0  0
 19 20  1  0  0  0
 20 21  1  0  0  0
 21 22  2  0  0  0
 22 23  1  0  0  0
 23 24  2  0  0  0
 24 27  1  0  0  0
 27 28  2  0  0  0
 28 29  1  0  0  0
 29 30  2  0  0  0
 30 31  1  0  0  0
 31 32  2  0  0  0
 32 33  1  0  0  0
 33 34  3  0  0  0
 24 25  1  0  0  0
 25 26  2  0  0  0
  4  5  1  0  0  0
 12 13  1  0  0  0
 13 14  2  0  0  0
 14 15  1  0  0  0
 15  6  1  0  0  0
 14  9  1  0  0  0
  5  1  1  0  0  0
 26 21  1  0  0  0
 32 27  1  0  0  0
M  END
> <minimizedAffinity>
-8.45377

> <CNNscore>
0.5993803740

> <CNNaffinity>
7.0752134323

> <CNN_VS>
4.2407441139

> <CNNaffinity_variance>
0.1805944890

$$$$
[H]c1c([H])c([H])c(-c2c([H])c([H])c(C([H])([H])Sc3nnc(-c4c([H])c([H])c5c(c4[H])O[C@@]([H])(C([H])([H])OC([H])([H])[H])C([H])([H])O5)o3)c([H])c2[H])c(C#N)c1[H]


 34 38  0  0  0  0  0  0  0  0999 V2000
   40.7030   12.5769  -16.3935 C   0  0  0  0  0  0  0  0  0  0  0  0
   40.9613   13.7536  -15.8249 N   0  0  0  0  0  0  0  0  0  0  0  0
   42.2667   13.8995  -15.7576 N   0  0  0  0  0  0  0  0  0  0  0  0
   42.8406   12.8146  -16.2840 C   0  0  0  0  0  0  0  0  0  0  0  0
   41.8319   12.0254  -16.6633 O   0  0  0  0  0  0  0  0  0  0  0  0
   34.7753   11.4656  -15.3538 C   0  0  0  0  0  0  0  0  0  0  0  0
   34.4764   11.2992  -16.8367 C   0  0  0  0  0  0  0  0  0  0  0  0
   35.5602   10.5210  -17.3806 O   0  0  0  0  0  0  0  0  0  0  0  0
   36.8349   11.0103  -17.1578 C   0  0  0  0  0  0  0  0  0  0  0  0
   37.9181   10.5794  -17.9300 C   0  0  0  0  0  0  0  0  0  0  0  0
   39.1596   11.1119  -17.6497 C   0  0  0  0  0  0  0  0  0  0  0  0
   39.3563   12.0369  -16.6508 C   0  0  0  0  0  0  0  0  0  0  0  0
   38.2883   12.4402  -15.9135 C   0  0  0  0  0  0  0  0  0  0  0  0
   37.0121   11.9365  -16.1522 C   0  0  0  0  0  0  0  0  0  0  0  0
   35.9383   12.3647  -15.3857 O   0  0  0  0  0  0  0  0  0  0  0  0
   33.6917   12.1499  -14.5957 C   0  0  0  0  0  0  0  0  0  0  0  0
   33.6684   14.1222  -13.2841 C   0  0  0  0  0  0  0  0  0  0  0  0
   33.6716   13.4689  -14.4523 O   0  0  0  0  0  0  0  0  0  0  0  0
   44.5705   12.4691  -16.4551 S   0  0  0  0  0  0  0  0  0  0  0  0
   45.6185   13.3869  -15.3219 C   0  0  0  0  0  0  0  0  0  0  0  0
   44.9100   13.8171  -14.0997 C   0  0  0  0  0  0  0  0  0  0  0  0
   44.7906   15.1853  -13.8567 C   0  0  0  0  0  0  0  0  0  0  0  0
   44.1587   15.6411  -12.7215 C   0  0  0  0  0  0  0  0  0  0  0  0
   43.6222   14.7940  -11.7857 C   0  0  0  0  0  0  0  0  0  0  0  0
   43.7440   13.4407  -12.0315 C   0  0  0  0  0  0  0  0  0  0  0  0
   44.3788   12.9772  -13.1711 C   0  0  0  0  0  0  0  0  0  0  0  0
   42.9365   15.2242  -10.5771 C   0  0  0  0  0  0  0  0  0  0  0  0
   43.5273   15.0330   -9.3210 C   0  0  0  0  0  0  0  0  0  0  0  0
   42.9001   15.4452   -8.1704 C   0  0  0  0  0  0  0  0  0  0  0  0
   41.6686   16.0624   -8.1921 C   0  0  0  0  0  0  0  0  0  0  0  0
   41.0756   16.2569   -9.4178 C   0  0  0  0  0  0  0  0  0  0  0  0
   41.7107   15.8386  -10.5919 C   0  0  0  0  0  0  0  0  0  0  0  0
   41.0437   16.0509  -11.8490 C   0  0  0  0  0  0  0  0  0  0  0  0
   40.5066   16.1984  -12.8715 N   0  0  0  0  0  0  0  0  0  0  0  0
 17 18  1  0  0  0
 18 16  1  0  0  0
 16  6  1  0  0  0
  6  7  1  0  0  0
  7  8  1  0  0  0
  8  9  1  0  0  0
  9 10  2  0  0  0
 10 11  1  0  0  0
 11 12  2  0  0  0
 12  1  1  0  0  0
  1  2  2  0  0  0
  2  3  1  0  0  0
  3  4  2  0  0  0
  4 19  1  0  0  0
 19 20  1  0  0  0
 20 21  1  0  0  0
 21 22  2  0  0  0
 22 23  1  0  0  0
 23 24  2  0  0  0
 24 27  1  0  0  0
 27 28  2  0  0  0
 28 29  1  0  0  0
 29 30  2  0  0  0
 30 31  1  0  0  0
 31 32  2  0  0  0
 32 33  1  0  0  0
 33 34  3  0  0  0
 24 25  1  0  0  0
 25 26  2  0  0  0
  4  5  1  0  0  0
 12 13  1  0  0  0
 13 14  2  0  0  0
 14 15  1  0  0  0
 15  6  1  0  0  0
 14  9  1  0  0  0
  5  1  1  0  0  0
 26 21  1  0  0  0
 32 27  1  0  0  0
M  END
> <minimizedAffinity>
-8.16977

> <CNNscore>
0.4037116170

> <CNNaffinity>
6.6876249313

> <CNN_VS>
2.6998717785

> <CNNaffinity_variance>
0.0543398559

$$$$
[H]c1c([H])c([H])c(-c2c([H])c([H])c(C([H])([H])Sc3nnc(-c4c([H])c([H])c5c(c4[H])O[C@@]([H])(C([H])([H])OC([H])([H])[H])C([H])([H])O5)o3)c([H])c2[H])c(C#N)c1[H]


 34 38  0  0  0  0  0  0  0  0999 V2000
   37.0573   11.8876  -16.1082 C   0  0  0  0  0  0  0  0  0  0  0  0
   36.0743   11.2951  -16.7845 N   0  0  0  0  0  0  0  0  0  0  0  0
   34.9489   11.4965  -16.1344 N   0  0  0  0  0  0  0  0  0  0  0  0
   35.2152   12.2182  -15.0427 C   0  0  0  0  0  0  0  0  0  0  0  0
   36.5329   12.4353  -15.0707 O   0  0  0  0  0  0  0  0  0  0  0  0
   42.9706   13.4498  -15.8948 C   0  0  0  0  0  0  0  0  0  0  0  0
   43.4083   12.1485  -16.5513 C   0  0  0  0  0  0  0  0  0  0  0  0
   42.4755   11.9046  -17.6221 O   0  0  0  0  0  0  0  0  0  0  0  0
   41.1367   11.8878  -17.2735 C   0  0  0  0  0  0  0  0  0  0  0  0
   40.1811   11.3019  -18.1093 C   0  0  0  0  0  0  0  0  0  0  0  0
   38.8653   11.3230  -17.6951 C   0  0  0  0  0  0  0  0  0  0  0  0
   38.4762   11.8938  -16.5057 C   0  0  0  0  0  0  0  0  0  0  0  0
   39.4230   12.4574  -15.7102 C   0  0  0  0  0  0  0  0  0  0  0  0
   40.7663   12.4649  -16.0776 C   0  0  0  0  0  0  0  0  0  0  0  0
   41.7135   13.0464  -15.2477 O   0  0  0  0  0  0  0  0  0  0  0  0
   43.8970   13.9273  -14.8313 C   0  0  0  0  0  0  0  0  0  0  0  0
   45.8981   15.0949  -14.3383 C   0  0  0  0  0  0  0  0  0  0  0  0
   44.8000   14.8699  -15.0697 O   0  0  0  0  0  0  0  0  0  0  0  0
   34.0806   12.7816  -13.8031 S   0  0  0  0  0  0  0  0  0  0  0  0
   34.1785   14.5422  -13.4633 C   0  0  0  0  0  0  0  0  0  0  0  0
   34.9304   14.8517  -12.2305 C   0  0  0  0  0  0  0  0  0  0  0  0
   36.2662   14.4569  -12.1592 C   0  0  0  0  0  0  0  0  0  0  0  0
   37.0076   14.7010  -11.0249 C   0  0  0  0  0  0  0  0  0  0  0  0
   36.4861   15.3328   -9.9249 C   0  0  0  0  0  0  0  0  0  0  0  0
   35.1630   15.7208  -10.0014 C   0  0  0  0  0  0  0  0  0  0  0  0
   34.4131   15.4773  -11.1393 C   0  0  0  0  0  0  0  0  0  0  0  0
   37.2287   15.6234   -8.7084 C   0  0  0  0  0  0  0  0  0  0  0  0
   37.2661   14.6928   -7.6616 C   0  0  0  0  0  0  0  0  0  0  0  0
   37.9734   14.9450   -6.5113 C   0  0  0  0  0  0  0  0  0  0  0  0
   38.6763   16.1157   -6.3293 C   0  0  0  0  0  0  0  0  0  0  0  0
   38.6490   17.0395   -7.3480 C   0  0  0  0  0  0  0  0  0  0  0  0
   37.9299   16.7868   -8.5209 C   0  0  0  0  0  0  0  0  0  0  0  0
   37.9194   17.7901   -9.5521 C   0  0  0  0  0  0  0  0  0  0  0  0
   37.9330   18.5935  -10.3949 N   0  0  0  0  0  0  0  0  0  0  0  0
 17 18  1  0  0  0
 18 16  1  0  0  0
 16  6  1  0  0  0
  6  7  1  0  0  0
  7  8  1  0  0  0
  8  9  1  0  0  0
  9 10  2  0  0  0
 10 11  1  0  0  0
 11 12  2  0  0  0
 12  1  1  0  0  0
  1  2  2  0  0  0
  2  3  1  0  0  0
  3  4  2  0  0  0
  4 19  1  0  0  0
 19 20  1  0  0  0
 20 21  1  0  0  0
 21 22  2  0  0  0
 22 23  1  0  0  0
 23 24  2  0  0  0
 24 27  1  0  0  0
 27 28  2  0  0  0
 28 29  1  0  0  0
 29 30  2  0  0  0
 30 31  1  0  0  0
 31 32  2  0  0  0
 32 33  1  0  0  0
 33 34  3  0  0  0
 24 25  1  0  0  0
 25 26  2  0  0  0
  4  5  1  0  0  0
 12 13  1  0  0  0
 13 14  2  0  0  0
 14 15  1  0  0  0
 15  6  1  0  0  0
 14  9  1  0  0  0
  5  1  1  0  0  0
 26 21  1  0  0  0
 32 27  1  0  0  0
M  END
> <minimizedAffinity>
-8.19659

> <CNNscore>
0.3554046154

> <CNNaffinity>
6.6934280396

> <CNN_VS>
2.3788752556

> <CNNaffinity_variance>
0.2994170785

$$$$
[H]c1c([H])c([H])c(-c2c([H])c([H])c(C([H])([H])Sc3nnc(-c4c([H])c([H])c5c(c4[H])O[C@@]([H])(C([H])([H])OC([H])([H])[H])C([H])([H])O5)o3)c([H])c2[H])c(C#N)c1[H]


 34 38  0  0  0  0  0  0  0  0999 V2000
   40.3070   12.6371  -16.0925 C   0  0  0  0  0  0  0  0  0  0  0  0
   40.6480   12.4199  -17.3619 N   0  0  0  0  0  0  0  0  0  0  0  0
   39.6745   11.7505  -17.9399 N   0  0  0  0  0  0  0  0  0  0  0  0
   38.7123   11.5410  -17.0377 C   0  0  0  0  0  0  0  0  0  0  0  0
   39.1501   12.1083  -15.9105 O   0  0  0  0  0  0  0  0  0  0  0  0
   45.2927   13.9737  -12.8048 C   0  0  0  0  0  0  0  0  0  0  0  0
   44.8632   15.4212  -12.6155 C   0  0  0  0  0  0  0  0  0  0  0  0
   43.4522   15.3875  -12.3252 O   0  0  0  0  0  0  0  0  0  0  0  0
   42.6562   14.7232  -13.2413 C   0  0  0  0  0  0  0  0  0  0  0  0
   41.2749   14.9358  -13.2844 C   0  0  0  0  0  0  0  0  0  0  0  0
   40.5462   14.2378  -14.2253 C   0  0  0  0  0  0  0  0  0  0  0  0
   41.1305   13.3560  -15.1044 C   0  0  0  0  0  0  0  0  0  0  0  0
   42.4748   13.1659  -15.0432 C   0  0  0  0  0  0  0  0  0  0  0  0
   43.2602   13.8434  -14.1140 C   0  0  0  0  0  0  0  0  0  0  0  0
   44.6304   13.6320  -14.0722 O   0  0  0  0  0  0  0  0  0  0  0  0
   46.7593   13.8026  -12.9971 C   0  0  0  0  0  0  0  0  0  0  0  0
   46.9654   11.5351  -12.3437 C   0  0  0  0  0  0  0  0  0  0  0  0
   47.3129   12.5993  -13.0773 O   0  0  0  0  0  0  0  0  0  0  0  0
   37.1721   10.6933  -17.2616 S   0  0  0  0  0  0  0  0  0  0  0  0
   35.7367   11.6187  -16.7064 C   0  0  0  0  0  0  0  0  0  0  0  0
   35.9850   12.3805  -15.4659 C   0  0  0  0  0  0  0  0  0  0  0  0
   36.1453   13.7625  -15.5647 C   0  0  0  0  0  0  0  0  0  0  0  0
   36.4003   14.5185  -14.4425 C   0  0  0  0  0  0  0  0  0  0  0  0
   36.5085   13.9676  -13.1912 C   0  0  0  0  0  0  0  0  0  0  0  0
   36.3493   12.5990  -13.0999 C   0  0  0  0  0  0  0  0  0  0  0  0
   36.0933   11.8343  -14.2251 C   0  0  0  0  0  0  0  0  0  0  0  0
   36.7659   14.7223  -11.9746 C   0  0  0  0  0  0  0  0  0  0  0  0
   38.0695   14.8360  -11.4737 C   0  0  0  0  0  0  0  0  0  0  0  0
   38.3327   15.5560  -10.3337 C   0  0  0  0  0  0  0  0  0  0  0  0
   37.3370   16.1977   -9.6304 C   0  0  0  0  0  0  0  0  0  0  0  0
   36.0518   16.0952  -10.1095 C   0  0  0  0  0  0  0  0  0  0  0  0
   35.7794   15.3629  -11.2698 C   0  0  0  0  0  0  0  0  0  0  0  0
   34.4169   15.2726  -11.7234 C   0  0  0  0  0  0  0  0  0  0  0  0
   33.3076   15.2155  -12.0724 N   0  0  0  0  0  0  0  0  0  0  0  0
 17 18  1  0  0  0
 18 16  1  0  0  0
 16  6  1  0  0  0
  6  7  1  0  0  0
  7  8  1  0  0  0
  8  9  1  0  0  0
  9 10  2  0  0  0
 10 11  1  0  0  0
 11 12  2  0  0  0
 12  1  1  0  0  0
  1  2  2  0  0  0
  2  3  1  0  0  0
  3  4  2  0  0  0
  4 19  1  0  0  0
 19 20  1  0  0  0
 20 21  1  0  0  0
 21 22  2  0  0  0
 22 23  1  0  0  0
 23 24  2  0  0  0
 24 27  1  0  0  0
 27 28  2  0  0  0
 28 29  1  0  0  0
 29 30  2  0  0  0
 30 31  1  0  0  0
 31 32  2  0  0  0
 32 33  1  0  0  0
 33 34  3  0  0  0
 24 25  1  0  0  0
 25 26  2  0  0  0
  4  5  1  0  0  0
 12 13  1  0  0  0
 13 14  2  0  0  0
 14 15  1  0  0  0
 15  6  1  0  0  0
 14  9  1  0  0  0
  5  1  1  0  0  0
 26 21  1  0  0  0
 32 27  1  0  0  0
M  END
> <minimizedAffinity>
-7.54750

> <CNNscore>
0.3527932465

> <CNNaffinity>
6.8194489479

> <CNN_VS>
2.4058554173

> <CNNaffinity_variance>
0.3366639912

$$$$
[H]c1c([H])c([H])c(-c2c([H])c([H])c(C([H])([H])Sc3nnc(-c4c([H])c([H])c5c(c4[H])O[C@@]([H])(C([H])([H])OC([H])([H])[H])C([H])([H])O5)o3)c([H])c2[H])c(C#N)c1[H]


 34 38  0  0  0  0  0  0  0  0999 V2000
   37.4400   11.7221  -16.5102 C   0  0  0  0  0  0  0  0  0  0  0  0
   36.8516   11.0801  -17.5184 N   0  0  0  0  0  0  0  0  0  0  0  0
   35.5726   10.9580  -17.2371 N   0  0  0  0  0  0  0  0  0  0  0  0
   35.3459   11.5230  -16.0484 C   0  0  0  0  0  0  0  0  0  0  0  0
   36.5317   11.9814  -15.6389 O   0  0  0  0  0  0  0  0  0  0  0  0
   42.5422   14.2384  -14.2546 C   0  0  0  0  0  0  0  0  0  0  0  0
   43.4297   13.1877  -14.9057 C   0  0  0  0  0  0  0  0  0  0  0  0
   42.9133   12.9938  -16.2368 O   0  0  0  0  0  0  0  0  0  0  0  0
   41.5709   12.6724  -16.3300 C   0  0  0  0  0  0  0  0  0  0  0  0
   41.0455   12.0990  -17.4921 C   0  0  0  0  0  0  0  0  0  0  0  0
   39.6975   11.8056  -17.5113 C   0  0  0  0  0  0  0  0  0  0  0  0
   38.8731   12.0570  -16.4394 C   0  0  0  0  0  0  0  0  0  0  0  0
   39.4067   12.6150  -15.3209 C   0  0  0  0  0  0  0  0  0  0  0  0
   40.7607   12.9320  -15.2453 C   0  0  0  0  0  0  0  0  0  0  0  0
   41.2808   13.5007  -14.0921 O   0  0  0  0  0  0  0  0  0  0  0  0
   43.0016   14.6580  -12.9017 C   0  0  0  0  0  0  0  0  0  0  0  0
   43.8960   13.3012  -11.1784 C   0  0  0  0  0  0  0  0  0  0  0  0
   44.0039   14.0425  -12.2876 O   0  0  0  0  0  0  0  0  0  0  0  0
   33.8083   11.6509  -15.1763 S   0  0  0  0  0  0  0  0  0  0  0  0
   33.4649   13.2905  -14.5293 C   0  0  0  0  0  0  0  0  0  0  0  0
   34.3184   13.6478  -13.3784 C   0  0  0  0  0  0  0  0  0  0  0  0
   34.0528   14.8425  -12.7094 C   0  0  0  0  0  0  0  0  0  0  0  0
   34.8310   15.2347  -11.6434 C   0  0  0  0  0  0  0  0  0  0  0  0
   35.8883   14.4888  -11.1885 C   0  0  0  0  0  0  0  0  0  0  0  0
   36.1465   13.3074  -11.8551 C   0  0  0  0  0  0  0  0  0  0  0  0
   35.3674   12.9088  -12.9278 C   0  0  0  0  0  0  0  0  0  0  0  0
   36.7334   14.8528  -10.0619 C   0  0  0  0  0  0  0  0  0  0  0  0
   36.2578   14.7278   -8.7498 C   0  0  0  0  0  0  0  0  0  0  0  0
   37.0468   15.0541   -7.6737 C   0  0  0  0  0  0  0  0  0  0  0  0
   38.3351   15.5170   -7.8277 C   0  0  0  0  0  0  0  0  0  0  0  0
   38.8163   15.6455   -9.1098 C   0  0  0  0  0  0  0  0  0  0  0  0
   38.0162   15.3145  -10.2085 C   0  0  0  0  0  0  0  0  0  0  0  0
   38.5591   15.4799  -11.5306 C   0  0  0  0  0  0  0  0  0  0  0  0
   39.0209   15.6183  -12.5905 N   0  0  0  0  0  0  0  0  0  0  0  0
 17 18  1  0  0  0
 18 16  1  0  0  0
 16  6  1  0  0  0
  6  7  1  0  0  0
  7  8  1  0  0  0
  8  9  1  0  0  0
  9 10  2  0  0  0
 10 11  1  0  0  0
 11 12  2  0  0  0
 12  1  1  0  0  0
  1  2  2  0  0  0
  2  3  1  0  0  0
  3  4  2  0  0  0
  4 19  1  0  0  0
 19 20  1  0  0  0
 20 21  1  0  0  0
 21 22  2  0  0  0
 22 23  1  0  0  0
 23 24  2  0  0  0
 24 27  1  0  0  0
 27 28  2  0  0  0
 28 29  1  0  0  0
 29 30  2  0  0  0
 30 31  1  0  0  0
 31 32  2  0  0  0
 32 33  1  0  0  0
 33 34  3  0  0  0
 24 25  1  0  0  0
 25 26  2  0  0  0
  4  5  1  0  0  0
 12 13  1  0  0  0
 13 14  2  0  0  0
 14 15  1  0  0  0
 15  6  1  0  0  0
 14  9  1  0  0  0
  5  1  1  0  0  0
 26 21  1  0  0  0
 32 27  1  0  0  0
M  END
> <minimizedAffinity>
-8.64922

> <CNNscore>
0.3160387278

> <CNNaffinity>
6.6834878922

> <CNN_VS>
2.1122410297

> <CNNaffinity_variance>
0.2331666052

$$$$
[H]c1c([H])c([H])c(-c2c([H])c([H])c(C([H])([H])Sc3nnc(-c4c([H])c([H])c5c(c4[H])O[C@@]([H])(C([H])([H])OC([H])([H])[H])C([H])([H])O5)o3)c([H])c2[H])c(C#N)c1[H]


 34 38  0  0  0  0  0  0  0  0999 V2000
   37.8018   11.5429  -16.8172 C   0  0  0  0  0  0  0  0  0  0  0  0
   37.3496   10.5636  -17.5991 N   0  0  0  0  0  0  0  0  0  0  0  0
   36.0417   10.5074  -17.4723 N   0  0  0  0  0  0  0  0  0  0  0  0
   35.6603   11.4520  -16.6087 C   0  0  0  0  0  0  0  0  0  0  0  0
   36.7848   12.0660  -16.2311 O   0  0  0  0  0  0  0  0  0  0  0  0
   42.6998   14.1890  -14.2753 C   0  0  0  0  0  0  0  0  0  0  0  0
   43.6545   13.1885  -14.9102 C   0  0  0  0  0  0  0  0  0  0  0  0
   43.2053   13.0091  -16.2674 O   0  0  0  0  0  0  0  0  0  0  0  0
   41.8815   12.6406  -16.4286 C   0  0  0  0  0  0  0  0  0  0  0  0
   41.4302   12.0775  -17.6262 C   0  0  0  0  0  0  0  0  0  0  0  0
   40.0966   11.7349  -17.7132 C   0  0  0  0  0  0  0  0  0  0  0  0
   39.2167   11.9287  -16.6739 C   0  0  0  0  0  0  0  0  0  0  0  0
   39.6786   12.4779  -15.5198 C   0  0  0  0  0  0  0  0  0  0  0  0
   41.0148   12.8428  -15.3757 C   0  0  0  0  0  0  0  0  0  0  0  0
   41.4614   13.4012  -14.1872 O   0  0  0  0  0  0  0  0  0  0  0  0
   43.0825   14.5912  -12.8937 C   0  0  0  0  0  0  0  0  0  0  0  0
   43.7812   13.8720  -10.7477 C   0  0  0  0  0  0  0  0  0  0  0  0
   43.7189   13.7586  -12.0799 O   0  0  0  0  0  0  0  0  0  0  0  0
   34.0177   11.8317  -16.0616 S   0  0  0  0  0  0  0  0  0  0  0  0
   33.8358   11.9019  -14.2765 C   0  0  0  0  0  0  0  0  0  0  0  0
   34.9246   12.6476  -13.6137 C   0  0  0  0  0  0  0  0  0  0  0  0
   34.8143   14.0355  -13.5302 C   0  0  0  0  0  0  0  0  0  0  0  0
   35.8107   14.7818  -12.9420 C   0  0  0  0  0  0  0  0  0  0  0  0
   36.9434   14.2151  -12.4159 C   0  0  0  0  0  0  0  0  0  0  0  0
   37.0471   12.8408  -12.5020 C   0  0  0  0  0  0  0  0  0  0  0  0
   36.0484   12.0859  -13.0929 C   0  0  0  0  0  0  0  0  0  0  0  0
   38.0185   14.9567  -11.7755 C   0  0  0  0  0  0  0  0  0  0  0  0
   39.1174   15.3995  -12.5236 C   0  0  0  0  0  0  0  0  0  0  0  0
   40.1350   16.1127  -11.9379 C   0  0  0  0  0  0  0  0  0  0  0  0
   40.1275   16.4265  -10.5966 C   0  0  0  0  0  0  0  0  0  0  0  0
   39.0555   15.9985   -9.8487 C   0  0  0  0  0  0  0  0  0  0  0  0
   38.0173   15.2718  -10.4410 C   0  0  0  0  0  0  0  0  0  0  0  0
   36.9244   14.8333   -9.6142 C   0  0  0  0  0  0  0  0  0  0  0  0
   36.0438   14.4550   -8.9530 N   0  0  0  0  0  0  0  0  0  0  0  0
 17 18  1  0  0  0
 18 16  1  0  0  0
 16  6  1  0  0  0
  6  7  1  0  0  0
  7  8  1  0  0  0
  8  9  1  0  0  0
  9 10  2  0  0  0
 10 11  1  0  0  0
 11 12  2  0  0  0
 12  1  1  0  0  0
  1  2  2  0  0  0
  2  3  1  0  0  0
  3  4  2  0  0  0
  4 19  1  0  0  0
 19 20  1  0  0  0
 20 21  1  0  0  0
 21 22  2  0  0  0
 22 23  1  0  0  0
 23 24  2  0  0  0
 24 27  1  0  0  0
 27 28  2  0  0  0
 28 29  1  0  0  0
 29 30  2  0  0  0
 30 31  1  0  0  0
 31 32  2  0  0  0
 32 33  1  0  0  0
 33 34  3  0  0  0
 24 25  1  0  0  0
 25 26  2  0  0  0
  4  5  1  0  0  0
 12 13  1  0  0  0
 13 14  2  0  0  0
 14 15  1  0  0  0
 15  6  1  0  0  0
 14  9  1  0  0  0
  5  1  1  0  0  0
 26 21  1  0  0  0
 32 27  1  0  0  0
M  END
> <minimizedAffinity>
-8.41145

> <CNNscore>
0.2961354256

> <CNNaffinity>
6.7663550377

> <CNN_VS>
2.0037574768

> <CNNaffinity_variance>
0.1661977470

$$$$
[H]c1c([H])c([H])c(-c2c([H])c([H])c(C([H])([H])Sc3nnc(-c4c([H])c([H])c5c(c4[H])O[C@@]([H])(C([H])([H])OC([H])([H])[H])C([H])([H])O5)o3)c([H])c2[H])c(C#N)c1[H]


 34 38  0  0  0  0  0  0  0  0999 V2000
   40.2017   15.2256  -12.7617 C   0  0  0  0  0  0  0  0  0  0  0  0
   40.3847   16.4759  -12.3396 N   0  0  0  0  0  0  0  0  0  0  0  0
   39.4242   16.7672  -11.4895 N   0  0  0  0  0  0  0  0  0  0  0  0
   38.6286   15.7012  -11.3699 C   0  0  0  0  0  0  0  0  0  0  0  0
   39.1510   14.7733  -12.1764 O   0  0  0  0  0  0  0  0  0  0  0  0
   45.4284   13.2957  -15.2935 C   0  0  0  0  0  0  0  0  0  0  0  0
   44.7597   12.0739  -15.9066 C   0  0  0  0  0  0  0  0  0  0  0  0
   43.4992   12.5285  -16.4362 O   0  0  0  0  0  0  0  0  0  0  0  0
   42.6668   13.1882  -15.5495 C   0  0  0  0  0  0  0  0  0  0  0  0
   41.3024   13.3380  -15.8164 C   0  0  0  0  0  0  0  0  0  0  0  0
   40.5351   14.0073  -14.8854 C   0  0  0  0  0  0  0  0  0  0  0  0
   41.0658   14.5210  -13.7251 C   0  0  0  0  0  0  0  0  0  0  0  0
   42.3946   14.3631  -13.4878 C   0  0  0  0  0  0  0  0  0  0  0  0
   43.2172   13.6960  -14.3921 C   0  0  0  0  0  0  0  0  0  0  0  0
   44.5705   13.5479  -14.1264 O   0  0  0  0  0  0  0  0  0  0  0  0
   46.8085   13.0392  -14.7968 C   0  0  0  0  0  0  0  0  0  0  0  0
   48.7008   13.4791  -16.1520 C   0  0  0  0  0  0  0  0  0  0  0  0
   47.7827   12.6656  -15.6166 O   0  0  0  0  0  0  0  0  0  0  0  0
   37.1805   15.5276  -10.3629 S   0  0  0  0  0  0  0  0  0  0  0  0
   35.7091   15.0402  -11.2697 C   0  0  0  0  0  0  0  0  0  0  0  0
   36.0121   14.2552  -12.4833 C   0  0  0  0  0  0  0  0  0  0  0  0
   36.3248   12.9045  -12.3309 C   0  0  0  0  0  0  0  0  0  0  0  0
   36.6364   12.1312  -13.4267 C   0  0  0  0  0  0  0  0  0  0  0  0
   36.6562   12.6342  -14.7025 C   0  0  0  0  0  0  0  0  0  0  0  0
   36.3462   13.9721  -14.8469 C   0  0  0  0  0  0  0  0  0  0  0  0
   36.0327   14.7540  -13.7483 C   0  0  0  0  0  0  0  0  0  0  0  0
   36.9679   11.8584  -15.8927 C   0  0  0  0  0  0  0  0  0  0  0  0
   38.2931   11.7340  -16.3306 C   0  0  0  0  0  0  0  0  0  0  0  0
   38.6071   10.9941  -17.4447 C   0  0  0  0  0  0  0  0  0  0  0  0
   37.6436   10.3420  -18.1824 C   0  0  0  0  0  0  0  0  0  0  0  0
   36.3378   10.4548  -17.7652 C   0  0  0  0  0  0  0  0  0  0  0  0
   36.0137   11.2073  -16.6315 C   0  0  0  0  0  0  0  0  0  0  0  0
   34.6318   11.3076  -16.2434 C   0  0  0  0  0  0  0  0  0  0  0  0
   33.5115   11.4096  -15.9430 N   0  0  0  0  0  0  0  0  0  0  0  0
 17 18  1  0  0  0
 18 16  1  0  0  0
 16  6  1  0  0  0
  6  7  1  0  0  0
  7  8  1  0  0  0
  8  9  1  0  0  0
  9 10  2  0  0  0
 10 11  1  0  0  0
 11 12  2  0  0  0
 12  1  1  0  0  0
  1  2  2  0  0  0
  2  3  1  0  0  0
  3  4  2  0  0  0
  4 19  1  0  0  0
 19 20  1  0  0  0
 20 21  1  0  0  0
 21 22  2  0  0  0
 22 23  1  0  0  0
 23 24  2  0  0  0
 24 27  1  0  0  0
 27 28  2  0  0  0
 28 29  1  0  0  0
 29 30  2  0  0  0
 30 31  1  0  0  0
 31 32  2  0  0  0
 32 33  1  0  0  0
 33 34  3  0  0  0
 24 25  1  0  0  0
 25 26  2  0  0  0
  4  5  1  0  0  0
 12 13  1  0  0  0
 13 14  2  0  0  0
 14 15  1  0  0  0
 15  6  1  0  0  0
 14  9  1  0  0  0
  5  1  1  0  0  0
 26 21  1  0  0  0
 32 27  1  0  0  0
M  END
> <minimizedAffinity>
-9.46909

> <CNNscore>
0.2675432861

> <CNNaffinity>
6.9237265587

> <CNN_VS>
1.8523966074

> <CNNaffinity_variance>
0.0564508736

$$$$
[H]c1c([H])c([H])c(-c2c([H])c([H])c(C([H])([H])Sc3nnc(-c4c([H])c([H])c5c(c4[H])O[C@@]([H])(C([H])([H])OC([H])([H])[H])C([H])([H])O5)o3)c([H])c2[H])c(C#N)c1[H]


 34 38  0  0  0  0  0  0  0  0999 V2000
   41.8603   13.0876  -16.1151 C   0  0  0  0  0  0  0  0  0  0  0  0
   41.1244   14.1013  -16.5686 N   0  0  0  0  0  0  0  0  0  0  0  0
   40.1690   13.6085  -17.3263 N   0  0  0  0  0  0  0  0  0  0  0  0
   40.2964   12.2794  -17.3555 C   0  0  0  0  0  0  0  0  0  0  0  0
   41.3569   12.0054  -16.5910 O   0  0  0  0  0  0  0  0  0  0  0  0
   47.7654   12.9509  -14.5135 C   0  0  0  0  0  0  0  0  0  0  0  0
   47.5577   13.9689  -13.4016 C   0  0  0  0  0  0  0  0  0  0  0  0
   46.3325   13.5979  -12.7403 O   0  0  0  0  0  0  0  0  0  0  0  0
   45.2162   13.4736  -13.5481 C   0  0  0  0  0  0  0  0  0  0  0  0
   43.9275   13.4957  -13.0060 C   0  0  0  0  0  0  0  0  0  0  0  0
   42.8627   13.3665  -13.8738 C   0  0  0  0  0  0  0  0  0  0  0  0
   43.0317   13.2193  -15.2309 C   0  0  0  0  0  0  0  0  0  0  0  0
   44.2939   13.2005  -15.7345 C   0  0  0  0  0  0  0  0  0  0  0  0
   45.4059   13.3270  -14.9057 C   0  0  0  0  0  0  0  0  0  0  0  0
   46.6838   13.3050  -15.4445 O   0  0  0  0  0  0  0  0  0  0  0  0
   49.0576   13.1065  -15.2368 C   0  0  0  0  0  0  0  0  0  0  0  0
   49.3670   15.2960  -16.0861 C   0  0  0  0  0  0  0  0  0  0  0  0
   49.1968   13.9762  -16.2293 O   0  0  0  0  0  0  0  0  0  0  0  0
   39.2870   11.1049  -18.2175 S   0  0  0  0  0  0  0  0  0  0  0  0
   37.7720   10.6677  -17.3582 C   0  0  0  0  0  0  0  0  0  0  0  0
   37.4267   11.6138  -16.2783 C   0  0  0  0  0  0  0  0  0  0  0  0
   38.1899   11.5856  -15.1112 C   0  0  0  0  0  0  0  0  0  0  0  0
   37.8979   12.4310  -14.0644 C   0  0  0  0  0  0  0  0  0  0  0  0
   36.8627   13.3296  -14.1090 C   0  0  0  0  0  0  0  0  0  0  0  0
   36.1105   13.3526  -15.2668 C   0  0  0  0  0  0  0  0  0  0  0  0
   36.3996   12.5043  -16.3220 C   0  0  0  0  0  0  0  0  0  0  0  0
   36.5198   14.2503  -13.0364 C   0  0  0  0  0  0  0  0  0  0  0  0
   35.2301   14.2513  -12.4886 C   0  0  0  0  0  0  0  0  0  0  0  0
   34.8929   15.1045  -11.4661 C   0  0  0  0  0  0  0  0  0  0  0  0
   35.7974   15.9955  -10.9315 C   0  0  0  0  0  0  0  0  0  0  0  0
   37.0676   16.0067  -11.4590 C   0  0  0  0  0  0  0  0  0  0  0  0
   37.4152   15.1397  -12.5002 C   0  0  0  0  0  0  0  0  0  0  0  0
   38.7522   15.1991  -13.0287 C   0  0  0  0  0  0  0  0  0  0  0  0
   39.8252   15.2584  -13.4769 N   0  0  0  0  0  0  0  0  0  0  0  0
 17 18  1  0  0  0
 18 16  1  0  0  0
 16  6  1  0  0  0
  6  7  1  0  0  0
  7  8  1  0  0  0
  8  9  1  0  0  0
  9 10  2  0  0  0
 10 11  1  0  0  0
 11 12  2  0  0  0
 12  1  1  0  0  0
  1  2  2  0  0  0
  2  3  1  0  0  0
  3  4  2  0  0  0
  4 19  1  0  0  0
 19 20  1  0  0  0
 20 21  1  0  0  0
 21 22  2  0  0  0
 22 23  1  0  0  0
 23 24  2  0  0  0
 24 27  1  0  0  0
 27 28  2  0  0  0
 28 29  1  0  0  0
 29 30  2  0  0  0
 30 31  1  0  0  0
 31 32  2  0  0  0
 32 33  1  0  0  0
 33 34  3  0  0  0
 24 25  1  0  0  0
 25 26  2  0  0  0
  4  5  1  0  0  0
 12 13  1  0  0  0
 13 14  2  0  0  0
 14 15  1  0  0  0
 15  6  1  0  0  0
 14  9  1  0  0  0
  5  1  1  0  0  0
 26 21  1  0  0  0
 32 27  1  0  0  0
M  END
> <minimizedAffinity>
-8.01087

> <CNNscore>
0.2649134099

> <CNNaffinity>
6.4816846848

> <CNN_VS>
1.7170852423

> <CNNaffinity_variance>
0.2326275110

$$$$
[H]c1c([H])c([H])c(-c2c([H])c([H])c(C([H])([H])Sc3nnc(-c4c([H])c([H])c5c(c4[H])O[C@@]([H])(C([H])([H])OC([H])([H])[H])C([H])([H])O5)o3)c([H])c2[H])c(C#N)c1[H]


 34 38  0  0  0  0  0  0  0  0999 V2000
   40.7428   12.6629  -15.8121 C   0  0  0  0  0  0  0  0  0  0  0  0
   41.1111   13.4213  -14.7806 N   0  0  0  0  0  0  0  0  0  0  0  0
   42.4101   13.6135  -14.8552 N   0  0  0  0  0  0  0  0  0  0  0  0
   42.8698   12.9770  -15.9356 C   0  0  0  0  0  0  0  0  0  0  0  0
   41.8005   12.4040  -16.4945 O   0  0  0  0  0  0  0  0  0  0  0  0
   34.7472   11.9246  -14.8321 C   0  0  0  0  0  0  0  0  0  0  0  0
   34.4484   11.8131  -16.3201 C   0  0  0  0  0  0  0  0  0  0  0  0
   35.4820   10.9775  -16.8764 O   0  0  0  0  0  0  0  0  0  0  0  0
   36.7848   11.3755  -16.6349 C   0  0  0  0  0  0  0  0  0  0  0  0
   37.8424   10.8917  -17.4111 C   0  0  0  0  0  0  0  0  0  0  0  0
   39.1145   11.3337  -17.1113 C   0  0  0  0  0  0  0  0  0  0  0  0
   39.3651   12.2199  -16.0896 C   0  0  0  0  0  0  0  0  0  0  0  0
   38.3210   12.6761  -15.3489 C   0  0  0  0  0  0  0  0  0  0  0  0
   37.0159   12.2641  -15.6066 C   0  0  0  0  0  0  0  0  0  0  0  0
   35.9675   12.7447  -14.8361 O   0  0  0  0  0  0  0  0  0  0  0  0
   33.7061   12.6615  -14.0639 C   0  0  0  0  0  0  0  0  0  0  0  0
   33.1193   14.5010  -12.6917 C   0  0  0  0  0  0  0  0  0  0  0  0
   33.9975   13.7583  -13.3762 O   0  0  0  0  0  0  0  0  0  0  0  0
   44.5391   12.8934  -16.5253 S   0  0  0  0  0  0  0  0  0  0  0  0
   45.7389   12.4323  -15.2713 C   0  0  0  0  0  0  0  0  0  0  0  0
   45.7848   13.3798  -14.1395 C   0  0  0  0  0  0  0  0  0  0  0  0
   45.6801   12.8653  -12.8473 C   0  0  0  0  0  0  0  0  0  0  0  0
   45.6952   13.7058  -11.7569 C   0  0  0  0  0  0  0  0  0  0  0  0
   45.8119   15.0671  -11.8768 C   0  0  0  0  0  0  0  0  0  0  0  0
   45.9148   15.5705  -13.1585 C   0  0  0  0  0  0  0  0  0  0  0  0
   45.8995   14.7298  -14.2583 C   0  0  0  0  0  0  0  0  0  0  0  0
   45.8437   15.9963  -10.7582 C   0  0  0  0  0  0  0  0  0  0  0  0
   47.0672   16.4086  -10.2139 C   0  0  0  0  0  0  0  0  0  0  0  0
   47.1162   17.2959   -9.1663 C   0  0  0  0  0  0  0  0  0  0  0  0
   45.9748   17.8214   -8.6017 C   0  0  0  0  0  0  0  0  0  0  0  0
   44.7658   17.4260   -9.1250 C   0  0  0  0  0  0  0  0  0  0  0  0
   44.7113   16.5226  -10.1916 C   0  0  0  0  0  0  0  0  0  0  0  0
   43.4224   16.1279  -10.6948 C   0  0  0  0  0  0  0  0  0  0  0  0
   42.3756   15.8319  -11.1098 N   0  0  0  0  0  0  0  0  0  0  0  0
 17 18  1  0  0  0
 18 16  1  0  0  0
 16  6  1  0  0  0
  6  7  1  0  0  0
  7  8  1  0  0  0
  8  9  1  0  0  0
  9 10  2  0  0  0
 10 11  1  0  0  0
 11 12  2  0  0  0
 12  1  1  0  0  0
  1  2  2  0  0  0
  2  3  1  0  0  0
  3  4  2  0  0  0
  4 19  1  0  0  0
 19 20  1  0  0  0
 20 21  1  0  0  0
 21 22  2  0  0  0
 22 23  1  0  0  0
 23 24  2  0  0  0
 24 27  1  0  0  0
 27 28  2  0  0  0
 28 29  1  0  0  0
 29 30  2  0  0  0
 30 31  1  0  0  0
 31 32  2  0  0  0
 32 33  1  0  0  0
 33 34  3  0  0  0
 24 25  1  0  0  0
 25 26  2  0  0  0
  4  5  1  0  0  0
 12 13  1  0  0  0
 13 14  2  0  0  0
 14 15  1  0  0  0
 15  6  1  0  0  0
 14  9  1  0  0  0
  5  1  1  0  0  0
 26 21  1  0  0  0
 32 27  1  0  0  0
M  END
> <minimizedAffinity>
-7.30407

> <CNNscore>
0.2476755232

> <CNNaffinity>
6.2749533653

> <CNN_VS>
1.5541523695

> <CNNaffinity_variance>
0.1544191092

$$$$
[H]c1c([H])c([H])c(C2([H])C([H])([H])[C@]2([H])N([H])C([H])([H])c2c([H])c([H])c(OC([H])([H])[H])c3c([H])c([H])c([H])c([H])c23)c([H])c1[H]


 24 27  0  0  0  0  0  0  0  0999 V2000
   37.6879   11.6094  -16.4479 C   0  0  0  0  0  0  0  0  0  0  0  0
   38.3733   12.4730  -15.6304 C   0  0  0  0  0  0  0  0  0  0  0  0
   37.7430   13.2011  -14.6310 C   0  0  0  0  0  0  0  0  0  0  0  0
   36.3874   13.0795  -14.4234 C   0  0  0  0  0  0  0  0  0  0  0  0
   35.6825   12.2029  -15.2507 C   0  0  0  0  0  0  0  0  0  0  0  0
   34.3247   12.0879  -15.0344 C   0  0  0  0  0  0  0  0  0  0  0  0
   33.6399   11.2142  -15.8636 C   0  0  0  0  0  0  0  0  0  0  0  0
   34.2615   10.4932  -16.8522 C   0  0  0  0  0  0  0  0  0  0  0  0
   35.6184   10.6183  -17.0567 C   0  0  0  0  0  0  0  0  0  0  0  0
   36.3292   11.4940  -16.2321 C   0  0  0  0  0  0  0  0  0  0  0  0
   39.6049   11.2855  -17.9223 C   0  0  0  0  0  0  0  0  0  0  0  0
   38.3306   10.8787  -17.4533 O   0  0  0  0  0  0  0  0  0  0  0  0
   35.6796   13.8370  -13.3567 C   0  0  0  0  0  0  0  0  0  0  0  0
   36.2329   15.1526  -13.2721 N   0  0  0  0  0  0  0  0  0  0  0  0
   35.5652   15.9015  -13.5831 H   0  0  0  0  0  0  0  0  0  0  0  0
   36.8259   15.4594  -11.9991 C   0  0  0  0  0  0  0  0  0  0  0  0
   36.1902   16.6783  -11.3205 C   0  0  0  0  0  0  0  0  0  0  0  0
   36.1158   15.3261  -10.7166 C   0  0  0  0  0  0  0  0  0  0  0  0
   36.9372   15.0234   -9.5209 C   0  0  0  0  0  0  0  0  0  0  0  0
   38.3089   15.1221   -9.4893 C   0  0  0  0  0  0  0  0  0  0  0  0
   39.0449   14.8371   -8.3728 C   0  0  0  0  0  0  0  0  0  0  0  0
   38.4224   14.4350   -7.2247 C   0  0  0  0  0  0  0  0  0  0  0  0
   37.0484   14.3263   -7.2241 C   0  0  0  0  0  0  0  0  0  0  0  0
   36.3183   14.6185   -8.3622 C   0  0  0  0  0  0  0  0  0  0  0  0
 11 12  1  0  0  0
 12  1  1  0  0  0
  1  2  2  0  0  0
  2  3  1  0  0  0
  3  4  2  0  0  0
  4 13  1  0  0  0
 13 14  1  0  0  0
 14 16  1  0  0  0
 16 17  1  0  0  0
 17 18  1  0  0  0
 18 19  1  0  0  0
 19 20  2  0  0  0
 20 21  1  0  0  0
 21 22  2  0  0  0
 22 23  1  0  0  0
 23 24  2  0  0  0
  4  5  1  0  0  0
  5  6  2  0  0  0
  6  7  1  0  0  0
  7  8  2  0  0  0
  8  9  1  0  0  0
  9 10  2  0  0  0
 10  1  1  0  0  0
 18 16  1  0  0  0
 24 19  1  0  0  0
 10  5  1  0  0  0
 14 15  1  0  0  0
M  END
> <minimizedAffinity>
-7.85065

> <CNNscore>
0.4956958592

> <CNNaffinity>
5.7169342041

> <CNN_VS>
2.8338606358

> <CNNaffinity_variance>
0.1888190210

$$$$
[H]c1c([H])c([H])c(C2([H])C([H])([H])[C@]2([H])N([H])C([H])([H])c2c([H])c([H])c(OC([H])([H])[H])c3c([H])c([H])c([H])c([H])c23)c([H])c1[H]


 24 27  0  0  0  0  0  0  0  0999 V2000
   41.0117   12.1812  -17.2669 C   0  0  0  0  0  0  0  0  0  0  0  0
   39.7990   12.6121  -16.7898 C   0  0  0  0  0  0  0  0  0  0  0  0
   39.6840   13.3366  -15.6116 C   0  0  0  0  0  0  0  0  0  0  0  0
   40.8005   13.6518  -14.8702 C   0  0  0  0  0  0  0  0  0  0  0  0
   42.0382   13.2173  -15.3485 C   0  0  0  0  0  0  0  0  0  0  0  0
   43.1508   13.5385  -14.5986 C   0  0  0  0  0  0  0  0  0  0  0  0
   44.3712   13.1002  -15.0867 C   0  0  0  0  0  0  0  0  0  0  0  0
   44.4870   12.3839  -16.2517 C   0  0  0  0  0  0  0  0  0  0  0  0
   43.3670   12.0703  -16.9904 C   0  0  0  0  0  0  0  0  0  0  0  0
   42.1254   12.5023  -16.5168 C   0  0  0  0  0  0  0  0  0  0  0  0
   39.9564   11.1296  -19.1991 C   0  0  0  0  0  0  0  0  0  0  0  0
   41.1195   11.4513  -18.4557 O   0  0  0  0  0  0  0  0  0  0  0  0
   40.7164   14.4338  -13.6076 C   0  0  0  0  0  0  0  0  0  0  0  0
   39.5405   15.2465  -13.6386 N   0  0  0  0  0  0  0  0  0  0  0  0
   39.4814   15.8539  -14.4934 H   0  0  0  0  0  0  0  0  0  0  0  0
   38.3200   14.5218  -13.4116 C   0  0  0  0  0  0  0  0  0  0  0  0
   37.4127   15.1880  -12.3707 C   0  0  0  0  0  0  0  0  0  0  0  0
   36.9897   15.0307  -13.7832 C   0  0  0  0  0  0  0  0  0  0  0  0
   35.9542   14.0250  -14.1187 C   0  0  0  0  0  0  0  0  0  0  0  0
   34.6802   14.0354  -13.5998 C   0  0  0  0  0  0  0  0  0  0  0  0
   33.7419   13.0956  -13.9253 C   0  0  0  0  0  0  0  0  0  0  0  0
   34.0507   12.0915  -14.7992 C   0  0  0  0  0  0  0  0  0  0  0  0
   35.3193   12.0535  -15.3367 C   0  0  0  0  0  0  0  0  0  0  0  0
   36.2571   13.0120  -14.9971 C   0  0  0  0  0  0  0  0  0  0  0  0
 11 12  1  0  0  0
 12  1  1  0  0  0
  1  2  2  0  0  0
  2  3  1  0  0  0
  3  4  2  0  0  0
  4 13  1  0  0  0
 13 14  1  0  0  0
 14 16  1  0  0  0
 16 17  1  0  0  0
 17 18  1  0  0  0
 18 19  1  0  0  0
 19 20  2  0  0  0
 20 21  1  0  0  0
 21 22  2  0  0  0
 22 23  1  0  0  0
 23 24  2  0  0  0
  4  5  1  0  0  0
  5  6  2  0  0  0
  6  7  1  0  0  0
  7  8  2  0  0  0
  8  9  1  0  0  0
  9 10  2  0  0  0
 10  1  1  0  0  0
 18 16  1  0  0  0
 24 19  1  0  0  0
 10  5  1  0  0  0
 14 15  1  0  0  0
M  END
> <minimizedAffinity>
-8.24771

> <CNNscore>
0.4651045501

> <CNNaffinity>
6.1284680367

> <CNN_VS>
2.8503782749

> <CNNaffinity_variance>
0.2357160151

$$$$
[H]c1c([H])c([H])c(C2([H])C([H])([H])[C@]2([H])N([H])C([H])([H])c2c([H])c([H])c(OC([H])([H])[H])c3c([H])c([H])c([H])c([H])c23)c([H])c1[H]


 24 27  0  0  0  0  0  0  0  0999 V2000
   43.0131   13.2109  -15.0917 C   0  0  0  0  0  0  0  0  0  0  0  0
   42.7547   13.9627  -13.9728 C   0  0  0  0  0  0  0  0  0  0  0  0
   41.4713   14.3714  -13.6379 C   0  0  0  0  0  0  0  0  0  0  0  0
   40.3977   14.0312  -14.4298 C   0  0  0  0  0  0  0  0  0  0  0  0
   40.6519   13.2665  -15.5700 C   0  0  0  0  0  0  0  0  0  0  0  0
   39.5695   12.9305  -16.3569 C   0  0  0  0  0  0  0  0  0  0  0  0
   39.8385   12.1715  -17.4844 C   0  0  0  0  0  0  0  0  0  0  0  0
   41.1068   11.7662  -17.8172 C   0  0  0  0  0  0  0  0  0  0  0  0
   42.1784   12.1092  -17.0218 C   0  0  0  0  0  0  0  0  0  0  0  0
   41.9304   12.8745  -15.8794 C   0  0  0  0  0  0  0  0  0  0  0  0
   45.3563   12.9245  -14.4743 C   0  0  0  0  0  0  0  0  0  0  0  0
   44.3098   12.8025  -15.4226 O   0  0  0  0  0  0  0  0  0  0  0  0
   39.0078   14.4439  -14.0977 C   0  0  0  0  0  0  0  0  0  0  0  0
   38.5040   13.5977  -13.0612 N   0  0  0  0  0  0  0  0  0  0  0  0
   38.2385   14.1239  -12.1918 H   0  0  0  0  0  0  0  0  0  0  0  0
   37.4599   12.7061  -13.4869 C   0  0  0  0  0  0  0  0  0  0  0  0
   36.2153   12.7718  -12.5942 C   0  0  0  0  0  0  0  0  0  0  0  0
   36.1676   13.1627  -14.0237 C   0  0  0  0  0  0  0  0  0  0  0  0
   35.4889   12.2711  -14.9935 C   0  0  0  0  0  0  0  0  0  0  0  0
   34.1700   11.8933  -14.8932 C   0  0  0  0  0  0  0  0  0  0  0  0
   33.5661   11.0690  -15.8016 C   0  0  0  0  0  0  0  0  0  0  0  0
   34.2743   10.5833  -16.8645 C   0  0  0  0  0  0  0  0  0  0  0  0
   35.5985   10.9436  -16.9933 C   0  0  0  0  0  0  0  0  0  0  0  0
   36.1946   11.7786  -16.0654 C   0  0  0  0  0  0  0  0  0  0  0  0
 11 12  1  0  0  0
 12  1  1  0  0  0
  1  2  2  0  0  0
  2  3  1  0  0  0
  3  4  2  0  0  0
  4 13  1  0  0  0
 13 14  1  0  0  0
 14 16  1  0  0  0
 16 17  1  0  0  0
 17 18  1  0  0  0
 18 19  1  0  0  0
 19 20  2  0  0  0
 20 21  1  0  0  0
 21 22  2  0  0  0
 22 23  1  0  0  0
 23 24  2  0  0  0
  4  5  1  0  0  0
  5  6  2  0  0  0
  6  7  1  0  0  0
  7  8  2  0  0  0
  8  9  1  0  0  0
  9 10  2  0  0  0
 10  1  1  0  0  0
 18 16  1  0  0  0
 24 19  1  0  0  0
 10  5  1  0  0  0
 14 15  1  0  0  0
M  END
> <minimizedAffinity>
-8.74903

> <CNNscore>
0.4470021725

> <CNNaffinity>
5.9892349243

> <CNN_VS>
2.6772010326

> <CNNaffinity_variance>
0.0263793860

$$$$
[H]c1c([H])c([H])c(C2([H])C([H])([H])[C@]2([H])N([H])C([H])([H])c2c([H])c([H])c(OC([H])([H])[H])c3c([H])c([H])c([H])c([H])c23)c([H])c1[H]


 24 27  0  0  0  0  0  0  0  0999 V2000
   37.7670   11.7333  -16.1972 C   0  0  0  0  0  0  0  0  0  0  0  0
   38.4154   12.3836  -15.1771 C   0  0  0  0  0  0  0  0  0  0  0  0
   37.7370   12.9042  -14.0839 C   0  0  0  0  0  0  0  0  0  0  0  0
   36.3690   12.7841  -13.9852 C   0  0  0  0  0  0  0  0  0  0  0  0
   35.7016   12.1239  -15.0187 C   0  0  0  0  0  0  0  0  0  0  0  0
   34.3310   12.0085  -14.9103 C   0  0  0  0  0  0  0  0  0  0  0  0
   33.6837   11.3508  -15.9439 C   0  0  0  0  0  0  0  0  0  0  0  0
   34.3528   10.8351  -17.0255 C   0  0  0  0  0  0  0  0  0  0  0  0
   35.7219   10.9579  -17.1204 C   0  0  0  0  0  0  0  0  0  0  0  0
   36.3955   11.6176  -16.0893 C   0  0  0  0  0  0  0  0  0  0  0  0
   39.7528   11.6920  -17.6142 C   0  0  0  0  0  0  0  0  0  0  0  0
   38.4580   11.2110  -17.2960 O   0  0  0  0  0  0  0  0  0  0  0  0
   35.6097   13.3218  -12.8246 C   0  0  0  0  0  0  0  0  0  0  0  0
   35.4476   14.7332  -12.9854 N   0  0  0  0  0  0  0  0  0  0  0  0
   34.5518   15.0950  -12.5732 H   0  0  0  0  0  0  0  0  0  0  0  0
   36.5826   15.5065  -12.5612 C   0  0  0  0  0  0  0  0  0  0  0  0
   36.2858   16.3858  -11.3408 C   0  0  0  0  0  0  0  0  0  0  0  0
   37.2840   15.2907  -11.2851 C   0  0  0  0  0  0  0  0  0  0  0  0
   38.7260   15.6300  -11.2441 C   0  0  0  0  0  0  0  0  0  0  0  0
   39.3961   15.9877  -10.0972 C   0  0  0  0  0  0  0  0  0  0  0  0
   40.7281   16.2964  -10.0853 C   0  0  0  0  0  0  0  0  0  0  0  0
   41.4520   16.2575  -11.2436 C   0  0  0  0  0  0  0  0  0  0  0  0
   40.8092   15.9026  -12.4100 C   0  0  0  0  0  0  0  0  0  0  0  0
   39.4610   15.5930  -12.4052 C   0  0  0  0  0  0  0  0  0  0  0  0
 11 12  1  0  0  0
 12  1  1  0  0  0
  1  2  2  0  0  0
  2  3  1  0  0  0
  3  4  2  0  0  0
  4 13  1  0  0  0
 13 14  1  0  0  0
 14 16  1  0  0  0
 16 17  1  0  0  0
 17 18  1  0  0  0
 18 19  1  0  0  0
 19 20  2  0  0  0
 20 21  1  0  0  0
 21 22  2  0  0  0
 22 23  1  0  0  0
 23 24  2  0  0  0
  4  5  1  0  0  0
  5  6  2  0  0  0
  6  7  1  0  0  0
  7  8  2  0  0  0
  8  9  1  0  0  0
  9 10  2  0  0  0
 10  1  1  0  0  0
 18 16  1  0  0  0
 24 19  1  0  0  0
 10  5  1  0  0  0
 14 15  1  0  0  0
M  END
> <minimizedAffinity>
-8.29561

> <CNNscore>
0.3954941630

> <CNNaffinity>
5.6798410416

> <CNN_VS>
2.2463440895

> <CNNaffinity_variance>
0.2318314016

$$$$
[H]c1c([H])c([H])c(C2([H])C([H])([H])[C@]2([H])N([H])C([H])([H])c2c([H])c([H])c(OC([H])([H])[H])c3c([H])c([H])c([H])c([H])c23)c([H])c1[H]


 24 27  0  0  0  0  0  0  0  0999 V2000
   37.4865   11.9982  -15.5214 C   0  0  0  0  0  0  0  0  0  0  0  0
   38.1553   12.7393  -14.5793 C   0  0  0  0  0  0  0  0  0  0  0  0
   39.4635   13.1637  -14.7658 C   0  0  0  0  0  0  0  0  0  0  0  0
   40.1449   12.8500  -15.9204 C   0  0  0  0  0  0  0  0  0  0  0  0
   39.4718   12.0964  -16.8839 C   0  0  0  0  0  0  0  0  0  0  0  0
   40.1630   11.7876  -18.0374 C   0  0  0  0  0  0  0  0  0  0  0  0
   39.4811   11.0394  -18.9835 C   0  0  0  0  0  0  0  0  0  0  0  0
   38.1875   10.6190  -18.8010 C   0  0  0  0  0  0  0  0  0  0  0  0
   37.5095   10.9350  -17.6439 C   0  0  0  0  0  0  0  0  0  0  0  0
   38.1777   11.6888  -16.6757 C   0  0  0  0  0  0  0  0  0  0  0  0
   35.2279   12.4383  -14.7102 C   0  0  0  0  0  0  0  0  0  0  0  0
   36.1676   11.5741  -15.3261 O   0  0  0  0  0  0  0  0  0  0  0  0
   41.5442   13.2948  -16.1585 C   0  0  0  0  0  0  0  0  0  0  0  0
   42.3645   12.8594  -15.0714 N   0  0  0  0  0  0  0  0  0  0  0  0
   43.1225   12.1951  -15.3672 H   0  0  0  0  0  0  0  0  0  0  0  0
   42.8767   13.9280  -14.2578 C   0  0  0  0  0  0  0  0  0  0  0  0
   43.4882   13.4373  -12.9403 C   0  0  0  0  0  0  0  0  0  0  0  0
   44.3078   14.1190  -13.9710 C   0  0  0  0  0  0  0  0  0  0  0  0
   44.7658   15.5071  -13.7270 C   0  0  0  0  0  0  0  0  0  0  0  0
   45.7589   16.1242  -14.4518 C   0  0  0  0  0  0  0  0  0  0  0  0
   46.1640   17.4070  -14.2072 C   0  0  0  0  0  0  0  0  0  0  0  0
   45.5783   18.1331  -13.2087 C   0  0  0  0  0  0  0  0  0  0  0  0
   44.5798   17.5428  -12.4643 C   0  0  0  0  0  0  0  0  0  0  0  0
   44.1814   16.2439  -12.7244 C   0  0  0  0  0  0  0  0  0  0  0  0
 11 12  1  0  0  0
 12  1  1  0  0  0
  1  2  2  0  0  0
  2  3  1  0  0  0
  3  4  2  0  0  0
  4 13  1  0  0  0
 13 14  1  0  0  0
 14 16  1  0  0  0
 16 17  1  0  0  0
 17 18  1  0  0  0
 18 19  1  0  0  0
 19 20  2  0  0  0
 20 21  1  0  0  0
 21 22  2  0  0  0
 22 23  1  0  0  0
 23 24  2  0  0  0
  4  5  1  0  0  0
  5  6  2  0  0  0
  6  7  1  0  0  0
  7  8  2  0  0  0
  8  9  1  0  0  0
  9 10  2  0  0  0
 10  1  1  0  0  0
 18 16  1  0  0  0
 24 19  1  0  0  0
 10  5  1  0  0  0
 14 15  1  0  0  0
M  END
> <minimizedAffinity>
-7.70703

> <CNNscore>
0.3546176553

> <CNNaffinity>
5.3975892067

> <CNN_VS>
1.9140803814

> <CNNaffinity_variance>
0.0990322083

$$$$
[H]c1c([H])c([H])c(C2([H])C([H])([H])[C@]2([H])N([H])C([H])([H])c2c([H])c([H])c(OC([H])([H])[H])c3c([H])c([H])c([H])c([H])c23)c([H])c1[H]


 24 27  0  0  0  0  0  0  0  0999 V2000
   37.5066   11.0363  -17.3268 C   0  0  0  0  0  0  0  0  0  0  0  0
   38.7625   11.4040  -16.9128 C   0  0  0  0  0  0  0  0  0  0  0  0
   38.9782   12.0840  -15.7223 C   0  0  0  0  0  0  0  0  0  0  0  0
   37.9225   12.4178  -14.9040 C   0  0  0  0  0  0  0  0  0  0  0  0
   36.6414   12.0474  -15.3177 C   0  0  0  0  0  0  0  0  0  0  0  0
   35.5903   12.3862  -14.4907 C   0  0  0  0  0  0  0  0  0  0  0  0
   34.3257   12.0115  -14.9154 C   0  0  0  0  0  0  0  0  0  0  0  0
   34.1105   11.3389  -16.0922 C   0  0  0  0  0  0  0  0  0  0  0  0
   35.1700   11.0071  -16.9082 C   0  0  0  0  0  0  0  0  0  0  0  0
   36.4544   11.3752  -16.4997 C   0  0  0  0  0  0  0  0  0  0  0  0
   38.0585   10.6830  -19.6771 C   0  0  0  0  0  0  0  0  0  0  0  0
   37.2973   10.3508  -18.5284 O   0  0  0  0  0  0  0  0  0  0  0  0
   38.1164   13.1383  -13.6172 C   0  0  0  0  0  0  0  0  0  0  0  0
   38.5066   14.4864  -13.8905 N   0  0  0  0  0  0  0  0  0  0  0  0
   38.1967   15.1635  -13.1497 H   0  0  0  0  0  0  0  0  0  0  0  0
   39.8999   14.6412  -14.2081 C   0  0  0  0  0  0  0  0  0  0  0  0
   40.6522   15.5111  -13.1941 C   0  0  0  0  0  0  0  0  0  0  0  0
   40.9886   14.0805  -13.3913 C   0  0  0  0  0  0  0  0  0  0  0  0
   42.2431   13.7244  -14.0951 C   0  0  0  0  0  0  0  0  0  0  0  0
   43.4971   13.8811  -13.5515 C   0  0  0  0  0  0  0  0  0  0  0  0
   44.6404   13.5448  -14.2216 C   0  0  0  0  0  0  0  0  0  0  0  0
   44.5690   13.0292  -15.4850 C   0  0  0  0  0  0  0  0  0  0  0  0
   43.3267   12.8599  -16.0577 C   0  0  0  0  0  0  0  0  0  0  0  0
   42.1795   13.2051  -15.3663 C   0  0  0  0  0  0  0  0  0  0  0  0
 11 12  1  0  0  0
 12  1  1  0  0  0
  1  2  2  0  0  0
  2  3  1  0  0  0
  3  4  2  0  0  0
  4 13  1  0  0  0
 13 14  1  0  0  0
 14 16  1  0  0  0
 16 17  1  0  0  0
 17 18  1  0  0  0
 18 19  1  0  0  0
 19 20  2  0  0  0
 20 21  1  0  0  0
 21 22  2  0  0  0
 22 23  1  0  0  0
 23 24  2  0  0  0
  4  5  1  0  0  0
  5  6  2  0  0  0
  6  7  1  0  0  0
  7  8  2  0  0  0
  8  9  1  0  0  0
  9 10  2  0  0  0
 10  1  1  0  0  0
 18 16  1  0  0  0
 24 19  1  0  0  0
 10  5  1  0  0  0
 14 15  1  0  0  0
M  END
> <minimizedAffinity>
-8.25953

> <CNNscore>
0.3428741395

> <CNNaffinity>
5.9037232399

> <CNN_VS>
2.0242340565

> <CNNaffinity_variance>
0.0206390712

$$$$
[H]c1c([H])c([H])c(C2([H])C([H])([H])[C@]2([H])N([H])C([H])([H])c2c([H])c([H])c(OC([H])([H])[H])c3c([H])c([H])c([H])c([H])c23)c([H])c1[H]


 24 27  0  0  0  0  0  0  0  0999 V2000
   37.5076   12.9689  -14.5615 C   0  0  0  0  0  0  0  0  0  0  0  0
   38.7070   13.5111  -14.1725 C   0  0  0  0  0  0  0  0  0  0  0  0
   39.8823   13.2850  -14.8753 C   0  0  0  0  0  0  0  0  0  0  0  0
   39.8842   12.4963  -16.0037 C   0  0  0  0  0  0  0  0  0  0  0  0
   38.6682   11.9408  -16.4064 C   0  0  0  0  0  0  0  0  0  0  0  0
   38.6805   11.1522  -17.5385 C   0  0  0  0  0  0  0  0  0  0  0  0
   37.4660   10.6086  -17.9248 C   0  0  0  0  0  0  0  0  0  0  0  0
   36.3027   10.8311  -17.2314 C   0  0  0  0  0  0  0  0  0  0  0  0
   36.3055   11.6209  -16.1023 C   0  0  0  0  0  0  0  0  0  0  0  0
   37.5194   12.1796  -15.6942 C   0  0  0  0  0  0  0  0  0  0  0  0
   36.3592   13.2978  -12.4340 C   0  0  0  0  0  0  0  0  0  0  0  0
   36.3269   13.2015  -13.8479 O   0  0  0  0  0  0  0  0  0  0  0  0
   41.1225   12.2392  -16.7868 C   0  0  0  0  0  0  0  0  0  0  0  0
   42.0549   13.2963  -16.5473 N   0  0  0  0  0  0  0  0  0  0  0  0
   41.5940   14.1955  -16.2604 H   0  0  0  0  0  0  0  0  0  0  0  0
   43.1312   12.9407  -15.6634 C   0  0  0  0  0  0  0  0  0  0  0  0
   44.4480   13.6457  -16.0092 C   0  0  0  0  0  0  0  0  0  0  0  0
   43.7551   13.8826  -14.7198 C   0  0  0  0  0  0  0  0  0  0  0  0
   44.3267   13.3112  -13.4777 C   0  0  0  0  0  0  0  0  0  0  0  0
   43.6549   13.2606  -12.2783 C   0  0  0  0  0  0  0  0  0  0  0  0
   44.2044   12.7279  -11.1453 C   0  0  0  0  0  0  0  0  0  0  0  0
   45.4713   12.2165  -11.1720 C   0  0  0  0  0  0  0  0  0  0  0  0
   46.1709   12.2524  -12.3590 C   0  0  0  0  0  0  0  0  0  0  0  0
   45.6005   12.7948  -13.4966 C   0  0  0  0  0  0  0  0  0  0  0  0
 11 12  1  0  0  0
 12  1  1  0  0  0
  1  2  2  0  0  0
  2  3  1  0  0  0
  3  4  2  0  0  0
  4 13  1  0  0  0
 13 14  1  0  0  0
 14 16  1  0  0  0
 16 17  1  0  0  0
 17 18  1  0  0  0
 18 19  1  0  0  0
 19 20  2  0  0  0
 20 21  1  0  0  0
 21 22  2  0  0  0
 22 23  1  0  0  0
 23 24  2  0  0  0
  4  5  1  0  0  0
  5  6  2  0  0  0
  6  7  1  0  0  0
  7  8  2  0  0  0
  8  9  1  0  0  0
  9 10  2  0  0  0
 10  1  1  0  0  0
 18 16  1  0  0  0
 24 19  1  0  0  0
 10  5  1  0  0  0
 14 15  1  0  0  0
M  END
> <minimizedAffinity>
-8.02775

> <CNNscore>
0.3251432180

> <CNNaffinity>
5.7537760735

> <CNN_VS>
1.8708012104

> <CNNaffinity_variance>
0.0619699247

$$$$
[H]c1c([H])c([H])c(C2([H])C([H])([H])[C@]2([H])N([H])C([H])([H])c2c([H])c([H])c(OC([H])([H])[H])c3c([H])c([H])c([H])c([H])c23)c([H])c1[H]


 24 27  0  0  0  0  0  0  0  0999 V2000
   39.9448   12.5456  -16.0880 C   0  0  0  0  0  0  0  0  0  0  0  0
   40.0102   13.4145  -15.0275 C   0  0  0  0  0  0  0  0  0  0  0  0
   38.8868   13.7718  -14.2950 C   0  0  0  0  0  0  0  0  0  0  0  0
   37.6495   13.2587  -14.6134 C   0  0  0  0  0  0  0  0  0  0  0  0
   37.5741   12.3740  -15.6909 C   0  0  0  0  0  0  0  0  0  0  0  0
   36.3299   11.8651  -16.0017 C   0  0  0  0  0  0  0  0  0  0  0  0
   36.2720   10.9887  -17.0733 C   0  0  0  0  0  0  0  0  0  0  0  0
   37.3818   10.6339  -17.7986 C   0  0  0  0  0  0  0  0  0  0  0  0
   38.6181   11.1501  -17.4767 C   0  0  0  0  0  0  0  0  0  0  0  0
   38.7000   12.0361  -16.3995 C   0  0  0  0  0  0  0  0  0  0  0  0
   42.3701   12.5536  -16.3548 C   0  0  0  0  0  0  0  0  0  0  0  0
   41.0819   12.1900  -16.8215 O   0  0  0  0  0  0  0  0  0  0  0  0
   36.4254   13.6122  -13.8457 C   0  0  0  0  0  0  0  0  0  0  0  0
   36.4066   15.0239  -13.6201 N   0  0  0  0  0  0  0  0  0  0  0  0
   35.4956   15.4723  -13.8891 H   0  0  0  0  0  0  0  0  0  0  0  0
   36.8259   15.4133  -12.3015 C   0  0  0  0  0  0  0  0  0  0  0  0
   35.9023   16.4575  -11.6633 C   0  0  0  0  0  0  0  0  0  0  0  0
   36.0647   15.1038  -11.0803 C   0  0  0  0  0  0  0  0  0  0  0  0
   36.8389   14.9461   -9.8265 C   0  0  0  0  0  0  0  0  0  0  0  0
   36.2721   14.6489   -8.6088 C   0  0  0  0  0  0  0  0  0  0  0  0
   37.0085   14.5084   -7.4654 C   0  0  0  0  0  0  0  0  0  0  0  0
   38.3657   14.6631   -7.4999 C   0  0  0  0  0  0  0  0  0  0  0  0
   38.9640   14.9613   -8.7053 C   0  0  0  0  0  0  0  0  0  0  0  0
   38.2046   15.1002   -9.8531 C   0  0  0  0  0  0  0  0  0  0  0  0
 11 12  1  0  0  0
 12  1  1  0  0  0
  1  2  2  0  0  0
  2  3  1  0  0  0
  3  4  2  0  0  0
  4 13  1  0  0  0
 13 14  1  0  0  0
 14 16  1  0  0  0
 16 17  1  0  0  0
 17 18  1  0  0  0
 18 19  1  0  0  0
 19 20  2  0  0  0
 20 21  1  0  0  0
 21 22  2  0  0  0
 22 23  1  0  0  0
 23 24  2  0  0  0
  4  5  1  0  0  0
  5  6  2  0  0  0
  6  7  1  0  0  0
  7  8  2  0  0  0
  8  9  1  0  0  0
  9 10  2  0  0  0
 10  1  1  0  0  0
 18 16  1  0  0  0
 24 19  1  0  0  0
 10  5  1  0  0  0
 14 15  1  0  0  0
M  END
> <minimizedAffinity>
-7.94289

> <CNNscore>
0.2987700999

> <CNNaffinity>
5.5490932465

> <CNN_VS>
1.6579031944

> <CNNaffinity_variance>
0.2247081101

$$$$
[H]c1c([H])c([H])c(C2([H])C([H])([H])[C@]2([H])N([H])C([H])([H])c2c([H])c([H])c(OC([H])([H])[H])c3c([H])c([H])c([H])c([H])c23)c([H])c1[H]


 24 27  0  0  0  0  0  0  0  0999 V2000
   35.4737   11.4936  -16.5321 C   0  0  0  0  0  0  0  0  0  0  0  0
   35.1396   12.0988  -15.3463 C   0  0  0  0  0  0  0  0  0  0  0  0
   36.0994   12.5762  -14.4647 C   0  0  0  0  0  0  0  0  0  0  0  0
   37.4399   12.4563  -14.7549 C   0  0  0  0  0  0  0  0  0  0  0  0
   37.7884   11.8418  -15.9592 C   0  0  0  0  0  0  0  0  0  0  0  0
   39.1342   11.7267  -16.2409 C   0  0  0  0  0  0  0  0  0  0  0  0
   39.4633   11.1148  -17.4396 C   0  0  0  0  0  0  0  0  0  0  0  0
   38.5158   10.6422  -18.3128 C   0  0  0  0  0  0  0  0  0  0  0  0
   37.1753   10.7641  -18.0183 C   0  0  0  0  0  0  0  0  0  0  0  0
   36.8202   11.3780  -16.8144 C   0  0  0  0  0  0  0  0  0  0  0  0
   33.2080   10.6835  -16.9368 C   0  0  0  0  0  0  0  0  0  0  0  0
   34.5003   11.0148  -17.4158 O   0  0  0  0  0  0  0  0  0  0  0  0
   38.4959   12.9638  -13.8384 C   0  0  0  0  0  0  0  0  0  0  0  0
   38.8714   14.2828  -14.2428 N   0  0  0  0  0  0  0  0  0  0  0  0
   38.5285   15.0284  -13.5873 H   0  0  0  0  0  0  0  0  0  0  0  0
   40.2707   14.4306  -14.5365 C   0  0  0  0  0  0  0  0  0  0  0  0
   41.0452   15.1404  -13.4198 C   0  0  0  0  0  0  0  0  0  0  0  0
   41.3361   13.7359  -13.7956 C   0  0  0  0  0  0  0  0  0  0  0  0
   42.5823   13.4304  -14.5371 C   0  0  0  0  0  0  0  0  0  0  0  0
   43.8434   13.7050  -14.0610 C   0  0  0  0  0  0  0  0  0  0  0  0
   44.9788   13.4132  -14.7648 C   0  0  0  0  0  0  0  0  0  0  0  0
   44.8916   12.8245  -15.9948 C   0  0  0  0  0  0  0  0  0  0  0  0
   43.6418   12.5366  -16.4998 C   0  0  0  0  0  0  0  0  0  0  0  0
   42.5028   12.8381  -15.7751 C   0  0  0  0  0  0  0  0  0  0  0  0
 11 12  1  0  0  0
 12  1  1  0  0  0
  1  2  2  0  0  0
  2  3  1  0  0  0
  3  4  2  0  0  0
  4 13  1  0  0  0
 13 14  1  0  0  0
 14 16  1  0  0  0
 16 17  1  0  0  0
 17 18  1  0  0  0
 18 19  1  0  0  0
 19 20  2  0  0  0
 20 21  1  0  0  0
 21 22  2  0  0  0
 22 23  1  0  0  0
 23 24  2  0  0  0
  4  5  1  0  0  0
  5  6  2  0  0  0
  6  7  1  0  0  0
  7  8  2  0  0  0
  8  9  1  0  0  0
  9 10  2  0  0  0
 10  1  1  0  0  0
 18 16  1  0  0  0
 24 19  1  0  0  0
 10  5  1  0  0  0
 14 15  1  0  0  0
M  END
> <minimizedAffinity>
-8.50296

> <CNNscore>
0.2741288841

> <CNNaffinity>
5.7509336472

> <CNN_VS>
1.5764970779

> <CNNaffinity_variance>
0.0421799794

$$$$
[H]c1nc([H])c([C@@]2([H])N(C([H])([H])[H])C([H])([H])C([H])([H])C2([H])[H])c([H])c1[H]


 12 13  0  0  0  0  0  0  0  0999 V2000
   39.6160   14.2669  -15.3760 C   0  0  0  0  0  0  0  0  0  0  0  0
   39.1705   13.2178  -14.5689 N   0  0  0  0  0  0  0  0  0  0  0  0
   38.4389   13.5083  -13.4021 C   0  0  0  0  0  0  0  0  0  0  0  0
   37.1320   12.7714  -13.6132 C   0  0  0  0  0  0  0  0  0  0  0  0
   37.2094   12.1618  -15.0180 C   0  0  0  0  0  0  0  0  0  0  0  0
   38.7266   12.0232  -15.1625 C   0  0  0  0  0  0  0  0  0  0  0  0
   39.1318   11.7432  -16.5276 C   0  0  0  0  0  0  0  0  0  0  0  0
   38.2503   11.1537  -17.4078 C   0  0  0  0  0  0  0  0  0  0  0  0
   38.6362   10.8776  -18.7280 C   0  0  0  0  0  0  0  0  0  0  0  0
   39.9126   11.2074  -19.1255 C   0  0  0  0  0  0  0  0  0  0  0  0
   40.7390   11.7725  -18.2606 N   0  0  0  0  0  0  0  0  0  0  0  0
   40.3904   12.0464  -16.9900 C   0  0  0  0  0  0  0  0  0  0  0  0
  1  2  1  0  0  0
  2  3  1  0  0  0
  3  4  1  0  0  0
  4  5  1  0  0  0
  5  6  1  0  0  0
  6  7  1  0  0  0
  7  8  2  0  0  0
  8  9  1  0  0  0
  9 10  2  0  0  0
 10 11  1  0  0  0
 11 12  2  0  0  0
  6  2  1  0  0  0
 12  7  1  0  0  0
M  END
> <minimizedAffinity>
-4.95744

> <CNNscore>
0.7186936736

> <CNNaffinity>
4.8695058823

> <CNN_VS>
3.4996831417

> <CNNaffinity_variance>
0.1398745328

$$$$
[H]c1nc([H])c([C@@]2([H])N(C([H])([H])[H])C([H])([H])C([H])([H])C2([H])[H])c([H])c1[H]


 12 13  0  0  0  0  0  0  0  0999 V2000
   37.2138   16.3448   -7.4490 C   0  0  0  0  0  0  0  0  0  0  0  0
   37.8859   15.2573   -8.0110 N   0  0  0  0  0  0  0  0  0  0  0  0
   38.8931   15.4883   -8.9667 C   0  0  0  0  0  0  0  0  0  0  0  0
   40.1164   14.8378   -8.3534 C   0  0  0  0  0  0  0  0  0  0  0  0
   39.6850   14.3414   -6.9682 C   0  0  0  0  0  0  0  0  0  0  0  0
   38.1882   14.1388   -7.2146 C   0  0  0  0  0  0  0  0  0  0  0  0
   37.4425   13.9509   -5.9839 C   0  0  0  0  0  0  0  0  0  0  0  0
   36.1459   13.4853   -6.0205 C   0  0  0  0  0  0  0  0  0  0  0  0
   35.4182   13.3040   -4.8349 C   0  0  0  0  0  0  0  0  0  0  0  0
   36.0259   13.6005   -3.6353 C   0  0  0  0  0  0  0  0  0  0  0  0
   37.2716   14.0459   -3.6283 N   0  0  0  0  0  0  0  0  0  0  0  0
   37.9882   14.2273   -4.7528 C   0  0  0  0  0  0  0  0  0  0  0  0
  1  2  1  0  0  0
  2  3  1  0  0  0
  3  4  1  0  0  0
  4  5  1  0  0  0
  5  6  1  0  0  0
  6  7  1  0  0  0
  7  8  2  0  0  0
  8  9  1  0  0  0
  9 10  2  0  0  0
 10 11  1  0  0  0
 11 12  2  0  0  0
  6  2  1  0  0  0
 12  7  1  0  0  0
M  END
> <minimizedAffinity>
-3.15322

> <CNNscore>
0.5493183136

> <CNNaffinity>
3.1848957539

> <CNN_VS>
1.7495216131

> <CNNaffinity_variance>
0.3276093602

$$$$
[H]c1nc([H])c([C@@]2([H])N(C([H])([H])[H])C([H])([H])C([H])([H])C2([H])[H])c([H])c1[H]


 12 13  0  0  0  0  0  0  0  0999 V2000
   33.9287   11.3356  -15.2537 C   0  0  0  0  0  0  0  0  0  0  0  0
   34.2766   12.6557  -14.9593 N   0  0  0  0  0  0  0  0  0  0  0  0
   33.6432   13.3131  -13.8880 C   0  0  0  0  0  0  0  0  0  0  0  0
   34.7950   13.7058  -12.9853 C   0  0  0  0  0  0  0  0  0  0  0  0
   36.0573   13.1152  -13.6249 C   0  0  0  0  0  0  0  0  0  0  0  0
   35.6143   13.0683  -15.0890 C   0  0  0  0  0  0  0  0  0  0  0  0
   36.5022   12.2693  -15.9132 C   0  0  0  0  0  0  0  0  0  0  0  0
   36.0163   11.6084  -17.0207 C   0  0  0  0  0  0  0  0  0  0  0  0
   36.8683   10.8320  -17.8202 C   0  0  0  0  0  0  0  0  0  0  0  0
   38.1986   10.7441  -17.4757 C   0  0  0  0  0  0  0  0  0  0  0  0
   38.6392   11.3884  -16.4076 N   0  0  0  0  0  0  0  0  0  0  0  0
   37.8403   12.1385  -15.6266 C   0  0  0  0  0  0  0  0  0  0  0  0
  1  2  1  0  0  0
  2  3  1  0  0  0
  3  4  1  0  0  0
  4  5  1  0  0  0
  5  6  1  0  0  0
  6  7  1  0  0  0
  7  8  2  0  0  0
  8  9  1  0  0  0
  9 10  2  0  0  0
 10 11  1  0  0  0
 11 12  2  0  0  0
  6  2  1  0  0  0
 12  7  1  0  0  0
M  END
> <minimizedAffinity>
-5.44001

> <CNNscore>
0.5172541738

> <CNNaffinity>
4.6932353973

> <CNN_VS>
2.4275956154

> <CNNaffinity_variance>
0.1155707240

$$$$
[H]c1nc([H])c([C@@]2([H])N(C([H])([H])[H])C([H])([H])C([H])([H])C2([H])[H])c([H])c1[H]


 12 13  0  0  0  0  0  0  0  0999 V2000
   37.5724   13.4105   -6.5902 C   0  0  0  0  0  0  0  0  0  0  0  0
   38.4949   13.5141   -5.5468 N   0  0  0  0  0  0  0  0  0  0  0  0
   39.8703   13.5501   -5.8435 C   0  0  0  0  0  0  0  0  0  0  0  0
   40.3262   14.8637   -5.2414 C   0  0  0  0  0  0  0  0  0  0  0  0
   39.0635   15.5442   -4.6994 C   0  0  0  0  0  0  0  0  0  0  0  0
   38.1951   14.3133   -4.4296 C   0  0  0  0  0  0  0  0  0  0  0  0
   36.8065   14.6556   -4.1834 C   0  0  0  0  0  0  0  0  0  0  0  0
   36.3185   15.8904   -4.5528 C   0  0  0  0  0  0  0  0  0  0  0  0
   34.9780   16.2291   -4.3152 C   0  0  0  0  0  0  0  0  0  0  0  0
   34.1611   15.3031   -3.7058 C   0  0  0  0  0  0  0  0  0  0  0  0
   34.6548   14.1251   -3.3613 N   0  0  0  0  0  0  0  0  0  0  0  0
   35.9368   13.7789   -3.5794 C   0  0  0  0  0  0  0  0  0  0  0  0
  1  2  1  0  0  0
  2  3  1  0  0  0
  3  4  1  0  0  0
  4  5  1  0  0  0
  5  6  1  0  0  0
  6  7  1  0  0  0
  7  8  2  0  0  0
  8  9  1  0  0  0
  9 10  2  0  0  0
 10 11  1  0  0  0
 11 12  2  0  0  0
  6  2  1  0  0  0
 12  7  1  0  0  0
M  END
> <minimizedAffinity>
-3.42210

> <CNNscore>
0.4718438983

> <CNNaffinity>
3.1812205315

> <CNN_VS>
1.5010395050

> <CNNaffinity_variance>
0.3837628961

$$$$
[H]c1nc([H])c([C@@]2([H])N(C([H])([H])[H])C([H])([H])C([H])([H])C2([H])[H])c([H])c1[H]


 12 13  0  0  0  0  0  0  0  0999 V2000
   36.0209   12.4775  -16.3546 C   0  0  0  0  0  0  0  0  0  0  0  0
   36.5033   13.0350  -15.1686 N   0  0  0  0  0  0  0  0  0  0  0  0
   35.6821   13.0408  -14.0254 C   0  0  0  0  0  0  0  0  0  0  0  0
   36.4991   12.2799  -13.0011 C   0  0  0  0  0  0  0  0  0  0  0  0
   37.7579   11.7990  -13.7328 C   0  0  0  0  0  0  0  0  0  0  0  0
   37.8557   12.8700  -14.8216 C   0  0  0  0  0  0  0  0  0  0  0  0
   38.7945   12.5135  -15.8693 C   0  0  0  0  0  0  0  0  0  0  0  0
   38.6172   11.3573  -16.5982 C   0  0  0  0  0  0  0  0  0  0  0  0
   39.5224   11.0052  -17.6105 C   0  0  0  0  0  0  0  0  0  0  0  0
   40.5903   11.8377  -17.8603 C   0  0  0  0  0  0  0  0  0  0  0  0
   40.7372   12.9415  -17.1460 N   0  0  0  0  0  0  0  0  0  0  0  0
   39.8817   13.2990  -16.1707 C   0  0  0  0  0  0  0  0  0  0  0  0
  1  2  1  0  0  0
  2  3  1  0  0  0
  3  4  1  0  0  0
  4  5  1  0  0  0
  5  6  1  0  0  0
  6  7  1  0  0  0
  7  8  2  0  0  0
  8  9  1  0  0  0
  9 10  2  0  0  0
 10 11  1  0  0  0
 11 12  2  0  0  0
  6  2  1  0  0  0
 12  7  1  0  0  0
M  END
> <minimizedAffinity>
-5.34517

> <CNNscore>
0.4331060052

> <CNNaffinity>
4.6531572342

> <CNN_VS>
2.0153102875

> <CNNaffinity_variance>
0.0847683325

$$$$
[H]c1nc([H])c([C@@]2([H])N(C([H])([H])[H])C([H])([H])C([H])([H])C2([H])[H])c([H])c1[H]


 12 13  0  0  0  0  0  0  0  0999 V2000
   36.6602   14.5891  -14.5216 C   0  0  0  0  0  0  0  0  0  0  0  0
   35.8886   13.6447  -13.8412 N   0  0  0  0  0  0  0  0  0  0  0  0
   34.7391   14.0650  -13.1461 C   0  0  0  0  0  0  0  0  0  0  0  0
   33.6267   13.2589  -13.7852 C   0  0  0  0  0  0  0  0  0  0  0  0
   34.2767   12.4662  -14.9255 C   0  0  0  0  0  0  0  0  0  0  0  0
   35.7082   12.3647  -14.3940 C   0  0  0  0  0  0  0  0  0  0  0  0
   36.6464   11.9157  -15.4060 C   0  0  0  0  0  0  0  0  0  0  0  0
   38.0028   11.9610  -15.1661 C   0  0  0  0  0  0  0  0  0  0  0  0
   38.9155   11.5313  -16.1409 C   0  0  0  0  0  0  0  0  0  0  0  0
   38.4284   11.0638  -17.3411 C   0  0  0  0  0  0  0  0  0  0  0  0
   37.1219   11.0309  -17.5457 N   0  0  0  0  0  0  0  0  0  0  0  0
   36.2284   11.4378  -16.6254 C   0  0  0  0  0  0  0  0  0  0  0  0
  1  2  1  0  0  0
  2  3  1  0  0  0
  3  4  1  0  0  0
  4  5  1  0  0  0
  5  6  1  0  0  0
  6  7  1  0  0  0
  7  8  2  0  0  0
  8  9  1  0  0  0
  9 10  2  0  0  0
 10 11  1  0  0  0
 11 12  2  0  0  0
  6  2  1  0  0  0
 12  7  1  0  0  0
M  END
> <minimizedAffinity>
-5.45424

> <CNNscore>
0.4095686376

> <CNNaffinity>
4.5013108253

> <CNN_VS>
1.8435957432

> <CNNaffinity_variance>
0.1750361025

$$$$
[H]c1nc([H])c([C@@]2([H])N(C([H])([H])[H])C([H])([H])C([H])([H])C2([H])[H])c([H])c1[H]


 12 13  0  0  0  0  0  0  0  0999 V2000
   38.2619   14.5066  -14.2529 C   0  0  0  0  0  0  0  0  0  0  0  0
   37.8861   13.5852  -13.2731 N   0  0  0  0  0  0  0  0  0  0  0  0
   37.3155   14.0491  -12.0730 C   0  0  0  0  0  0  0  0  0  0  0  0
   35.9688   13.3558  -12.0322 C   0  0  0  0  0  0  0  0  0  0  0  0
   35.8506   12.5782  -13.3485 C   0  0  0  0  0  0  0  0  0  0  0  0
   37.3326   12.3504  -13.6547 C   0  0  0  0  0  0  0  0  0  0  0  0
   37.5553   11.8886  -15.0123 C   0  0  0  0  0  0  0  0  0  0  0  0
   36.4882   11.6732  -15.8576 C   0  0  0  0  0  0  0  0  0  0  0  0
   36.6960   11.2242  -17.1703 C   0  0  0  0  0  0  0  0  0  0  0  0
   37.9867   11.0034  -17.5961 C   0  0  0  0  0  0  0  0  0  0  0  0
   38.9930   11.2179  -16.7645 N   0  0  0  0  0  0  0  0  0  0  0  0
   38.8172   11.6484  -15.5017 C   0  0  0  0  0  0  0  0  0  0  0  0
  1  2  1  0  0  0
  2  3  1  0  0  0
  3  4  1  0  0  0
  4  5  1  0  0  0
  5  6  1  0  0  0
  6  7  1  0  0  0
  7  8  2  0  0  0
  8  9  1  0  0  0
  9 10  2  0  0  0
 10 11  1  0  0  0
 11 12  2  0  0  0
  6  2  1  0  0  0
 12  7  1  0  0  0
M  END
> <minimizedAffinity>
-5.10980

> <CNNscore>
0.3809443414

> <CNNaffinity>
4.4211325645

> <CNN_VS>
1.6842054129

> <CNNaffinity_variance>
0.1581086814

$$$$
[H]c1nc([H])c([C@@]2([H])N(C([H])([H])[H])C([H])([H])C([H])([H])C2([H])[H])c([H])c1[H]


 12 13  0  0  0  0  0  0  0  0999 V2000
   36.0140   17.0157   -8.4103 C   0  0  0  0  0  0  0  0  0  0  0  0
   35.8930   15.9763   -9.3351 N   0  0  0  0  0  0  0  0  0  0  0  0
   35.6165   16.2800  -10.6814 C   0  0  0  0  0  0  0  0  0  0  0  0
   36.7846   15.6679  -11.4276 C   0  0  0  0  0  0  0  0  0  0  0  0
   37.7303   15.1128  -10.3558 C   0  0  0  0  0  0  0  0  0  0  0  0
   36.7279   14.8501   -9.2296 C   0  0  0  0  0  0  0  0  0  0  0  0
   37.3763   14.5933   -7.9569 C   0  0  0  0  0  0  0  0  0  0  0  0
   38.6562   15.0483   -7.7240 C   0  0  0  0  0  0  0  0  0  0  0  0
   39.2900   14.8012   -6.4971 C   0  0  0  0  0  0  0  0  0  0  0  0
   38.6075   14.0953   -5.5317 C   0  0  0  0  0  0  0  0  0  0  0  0
   37.3799   13.6700   -5.7810 N   0  0  0  0  0  0  0  0  0  0  0  0
   36.7527   13.8954   -6.9500 C   0  0  0  0  0  0  0  0  0  0  0  0
  1  2  1  0  0  0
  2  3  1  0  0  0
  3  4  1  0  0  0
  4  5  1  0  0  0
  5  6  1  0  0  0
  6  7  1  0  0  0
  7  8  2  0  0  0
  8  9  1  0  0  0
  9 10  2  0  0  0
 10 11  1  0  0  0
 11 12  2  0  0  0
  6  2  1  0  0  0
 12  7  1  0  0  0
M  END
> <minimizedAffinity>
-3.08620

> <CNNscore>
0.3728870749

> <CNNaffinity>
3.2911076546

> <CNN_VS>
1.2272114754

> <CNNaffinity_variance>
0.4238145351

$$$$
[H]c1nc([H])c([C@@]2([H])N(C([H])([H])[H])C([H])([H])C([H])([H])C2([H])[H])c([H])c1[H]


 12 13  0  0  0  0  0  0  0  0999 V2000
   37.7080   11.8201  -13.6547 C   0  0  0  0  0  0  0  0  0  0  0  0
   36.8852   12.8202  -13.1321 N   0  0  0  0  0  0  0  0  0  0  0  0
   37.4626   13.8786  -12.4059 C   0  0  0  0  0  0  0  0  0  0  0  0
   37.0309   15.1104  -13.1754 C   0  0  0  0  0  0  0  0  0  0  0  0
   36.2710   14.5992  -14.4053 C   0  0  0  0  0  0  0  0  0  0  0  0
   35.7691   13.2575  -13.8667 C   0  0  0  0  0  0  0  0  0  0  0  0
   35.2560   12.3946  -14.9146 C   0  0  0  0  0  0  0  0  0  0  0  0
   36.0145   12.1354  -16.0357 C   0  0  0  0  0  0  0  0  0  0  0  0
   35.5237   11.3045  -17.0539 C   0  0  0  0  0  0  0  0  0  0  0  0
   34.2698   10.7540  -16.9099 C   0  0  0  0  0  0  0  0  0  0  0  0
   33.5625   11.0189  -15.8238 N   0  0  0  0  0  0  0  0  0  0  0  0
   34.0131   11.8127  -14.8350 C   0  0  0  0  0  0  0  0  0  0  0  0
  1  2  1  0  0  0
  2  3  1  0  0  0
  3  4  1  0  0  0
  4  5  1  0  0  0
  5  6  1  0  0  0
  6  7  1  0  0  0
  7  8  2  0  0  0
  8  9  1  0  0  0
  9 10  2  0  0  0
 10 11  1  0  0  0
 11 12  2  0  0  0
  6  2  1  0  0  0
 12  7  1  0  0  0
M  END
> <minimizedAffinity>
-5.28823

> <CNNscore>
0.3522659242

> <CNNaffinity>
4.3818564415

> <CNN_VS>
1.5435787439

> <CNNaffinity_variance>
0.1720723659

$$$$
[H]c1nc([H])c(N([H])C(=O)c2nc(-c3c(F)c([H])c([H])c([H])c3F)c([H])c([H])c2F)c([C@@]2([H])C([H])([H])[C@@]([H])(N([H])[H])C([H])([H])[C@@]([H])(C([H])([H])[H])C2([H])[H])c1[H]


 35 38  0  0  0  0  0  0  0  0999 V2000
   39.4693   12.3139  -15.5710 N   0  0  0  0  0  0  0  0  0  0  0  0
   40.0750   13.5704  -15.4708 C   0  0  0  0  0  0  0  0  0  0  0  0
   40.4278   14.1849  -16.5587 O   0  0  0  0  0  0  0  0  0  0  0  0
   39.1811   11.8363  -14.6868 H   0  0  0  0  0  0  0  0  0  0  0  0
   40.3729   14.3345  -14.2706 C   0  0  0  0  0  0  0  0  0  0  0  0
   41.6477   14.4284  -13.8508 N   0  0  0  0  0  0  0  0  0  0  0  0
   42.0959   15.0857  -12.7793 C   0  0  0  0  0  0  0  0  0  0  0  0
   41.1238   15.7419  -12.0096 C   0  0  0  0  0  0  0  0  0  0  0  0
   39.7947   15.6892  -12.3751 C   0  0  0  0  0  0  0  0  0  0  0  0
   39.4417   14.9751  -13.5161 C   0  0  0  0  0  0  0  0  0  0  0  0
   38.0949   14.9454  -13.8448 F   0  0  0  0  0  0  0  0  0  0  0  0
   43.4876   15.2013  -12.4003 C   0  0  0  0  0  0  0  0  0  0  0  0
   44.1895   16.3889  -12.5470 C   0  0  0  0  0  0  0  0  0  0  0  0
   43.5869   17.4848  -13.0977 F   0  0  0  0  0  0  0  0  0  0  0  0
   45.5033   16.5364  -12.1689 C   0  0  0  0  0  0  0  0  0  0  0  0
   46.1846   15.4905  -11.6184 C   0  0  0  0  0  0  0  0  0  0  0  0
   45.5092   14.2793  -11.4583 C   0  0  0  0  0  0  0  0  0  0  0  0
   44.1924   14.1624  -11.8475 C   0  0  0  0  0  0  0  0  0  0  0  0
   43.5208   12.9717  -11.6919 F   0  0  0  0  0  0  0  0  0  0  0  0
   37.9209   11.4239  -17.1265 C   0  0  0  0  0  0  0  0  0  0  0  0
   37.7105   10.9279  -18.4180 C   0  0  0  0  0  0  0  0  0  0  0  0
   38.7467   10.7396  -19.3171 C   0  0  0  0  0  0  0  0  0  0  0  0
   39.9963   11.0284  -18.9782 N   0  0  0  0  0  0  0  0  0  0  0  0
   40.2275   11.5123  -17.7365 C   0  0  0  0  0  0  0  0  0  0  0  0
   39.2492   11.7181  -16.8276 C   0  0  0  0  0  0  0  0  0  0  0  0
   33.2827   10.5140  -17.1469 C   0  0  0  0  0  0  0  0  0  0  0  0
   34.3991   10.8089  -16.0867 C   0  0  0  0  0  0  0  0  0  0  0  0
   34.0598   12.1736  -15.4795 C   0  0  0  0  0  0  0  0  0  0  0  0
   35.2402   12.6339  -14.7138 C   0  0  0  0  0  0  0  0  0  0  0  0
   34.9930   13.8213  -13.9790 N   0  0  0  0  0  0  0  0  0  0  0  0
   36.4583   12.8475  -15.6529 C   0  0  0  0  0  0  0  0  0  0  0  0
   36.9067   11.4596  -16.0998 C   0  0  0  0  0  0  0  0  0  0  0  0
   35.6340   10.9254  -16.8730 C   0  0  0  0  0  0  0  0  0  0  0  0
   35.8165   14.1447  -13.4051 H   0  0  0  0  0  0  0  0  0  0  0  0
   34.1037   13.8911  -13.4696 H   0  0  0  0  0  0  0  0  0  0  0  0
 26 27  1  0  0  0
 27 28  1  0  0  0
 28 29  1  0  0  0
 29 30  1  0  0  0
 29 31  1  0  0  0
 31 32  1  0  0  0
 32 20  1  0  0  0
 20 21  2  0  0  0
 21 22  1  0  0  0
 22 23  2  0  0  0
 23 24  1  0  0  0
 24 25  2  0  0  0
 25  1  1  0  0  0
  1  2  1  0  0  0
  2  3  2  0  0  0
  2  5  1  0  0  0
  5  6  2  0  0  0
  6  7  1  0  0  0
  7 12  1  0  0  0
 12 13  2  0  0  0
 13 14  1  0  0  0
 13 15  1  0  0  0
 15 16  2  0  0  0
 16 17  1  0  0  0
 17 18  2  0  0  0
 18 19  1  0  0  0
  7  8  2  0  0  0
  8  9  1  0  0  0
  9 10  2  0  0  0
 10 11  1  0  0  0
 32 33  1  0  0  0
 33 27  1  0  0  0
 25 20  1  0  0  0
 10  5  1  0  0  0
 18 12  1  0  0  0
 30 34  1  0  0  0
 30 35  1  0  0  0
  1  4  1  0  0  0
M  END
> <minimizedAffinity>
-9.67270

> <CNNscore>
0.7279371619

> <CNNaffinity>
7.8152694702

> <CNN_VS>
5.6890249252

> <CNNaffinity_variance>
0.0972794741

$$$$
[H]c1nc([H])c(N([H])C(=O)c2nc(-c3c(F)c([H])c([H])c([H])c3F)c([H])c([H])c2F)c([C@@]2([H])C([H])([H])[C@@]([H])(N([H])[H])C([H])([H])[C@@]([H])(C([H])([H])[H])C2([H])[H])c1[H]


 35 38  0  0  0  0  0  0  0  0999 V2000
   40.8682   12.9569  -16.2442 N   0  0  0  0  0  0  0  0  0  0  0  0
   42.2334   12.7463  -16.0263 C   0  0  0  0  0  0  0  0  0  0  0  0
   42.8322   11.7940  -16.6745 O   0  0  0  0  0  0  0  0  0  0  0  0
   40.4025   13.7343  -15.7231 H   0  0  0  0  0  0  0  0  0  0  0  0
   43.1296   13.4789  -15.1469 C   0  0  0  0  0  0  0  0  0  0  0  0
   42.6725   13.9169  -13.9597 N   0  0  0  0  0  0  0  0  0  0  0  0
   43.3541   14.5983  -13.0366 C   0  0  0  0  0  0  0  0  0  0  0  0
   44.6899   14.8903  -13.3497 C   0  0  0  0  0  0  0  0  0  0  0  0
   45.2298   14.4766  -14.5499 C   0  0  0  0  0  0  0  0  0  0  0  0
   44.4252   13.7683  -15.4373 C   0  0  0  0  0  0  0  0  0  0  0  0
   45.0070   13.3748  -16.6329 F   0  0  0  0  0  0  0  0  0  0  0  0
   42.8305   15.0005  -11.7489 C   0  0  0  0  0  0  0  0  0  0  0  0
   41.8163   15.9399  -11.6326 C   0  0  0  0  0  0  0  0  0  0  0  0
   41.3055   16.5473  -12.7451 F   0  0  0  0  0  0  0  0  0  0  0  0
   41.2793   16.3198  -10.4251 C   0  0  0  0  0  0  0  0  0  0  0  0
   41.7363   15.7702   -9.2632 C   0  0  0  0  0  0  0  0  0  0  0  0
   42.7585   14.8229   -9.3432 C   0  0  0  0  0  0  0  0  0  0  0  0
   43.2767   14.4630  -10.5683 C   0  0  0  0  0  0  0  0  0  0  0  0
   44.2838   13.5295  -10.6543 F   0  0  0  0  0  0  0  0  0  0  0  0
   38.8756   11.7710  -16.7264 C   0  0  0  0  0  0  0  0  0  0  0  0
   38.1382   11.0555  -17.6763 C   0  0  0  0  0  0  0  0  0  0  0  0
   38.6450   10.7447  -18.9269 C   0  0  0  0  0  0  0  0  0  0  0  0
   39.8688   11.1218  -19.2729 N   0  0  0  0  0  0  0  0  0  0  0  0
   40.6024   11.8174  -18.3744 C   0  0  0  0  0  0  0  0  0  0  0  0
   40.1491   12.1488  -17.1454 C   0  0  0  0  0  0  0  0  0  0  0  0
   34.6506   12.2947  -14.6729 C   0  0  0  0  0  0  0  0  0  0  0  0
   36.1374   12.0838  -14.2230 C   0  0  0  0  0  0  0  0  0  0  0  0
   36.5602   13.3819  -13.5284 C   0  0  0  0  0  0  0  0  0  0  0  0
   38.0318   13.3516  -13.3706 C   0  0  0  0  0  0  0  0  0  0  0  0
   38.5273   14.4361  -12.6029 N   0  0  0  0  0  0  0  0  0  0  0  0
   38.7351   13.3302  -14.7549 C   0  0  0  0  0  0  0  0  0  0  0  0
   38.4642   11.9540  -15.3548 C   0  0  0  0  0  0  0  0  0  0  0  0
   36.8869   11.9431  -15.4781 C   0  0  0  0  0  0  0  0  0  0  0  0
   39.5714   14.4112  -12.4573 H   0  0  0  0  0  0  0  0  0  0  0  0
   38.0145   14.6908  -11.7500 H   0  0  0  0  0  0  0  0  0  0  0  0
 26 27  1  0  0  0
 27 28  1  0  0  0
 28 29  1  0  0  0
 29 30  1  0  0  0
 29 31  1  0  0  0
 31 32  1  0  0  0
 32 20  1  0  0  0
 20 21  2  0  0  0
 21 22  1  0  0  0
 22 23  2  0  0  0
 23 24  1  0  0  0
 24 25  2  0  0  0
 25  1  1  0  0  0
  1  2  1  0  0  0
  2  3  2  0  0  0
  2  5  1  0  0  0
  5  6  2  0  0  0
  6  7  1  0  0  0
  7 12  1  0  0  0
 12 13  2  0  0  0
 13 14  1  0  0  0
 13 15  1  0  0  0
 15 16  2  0  0  0
 16 17  1  0  0  0
 17 18  2  0  0  0
 18 19  1  0  0  0
  7  8  2  0  0  0
  8  9  1  0  0  0
  9 10  2  0  0  0
 10 11  1  0  0  0
 32 33  1  0  0  0
 33 27  1  0  0  0
 25 20  1  0  0  0
 10  5  1  0  0  0
 18 12  1  0  0  0
 30 34  1  0  0  0
 30 35  1  0  0  0
  1  4  1  0  0  0
M  END
> <minimizedAffinity>
-9.82763

> <CNNscore>
0.5716775656

> <CNNaffinity>
7.6439781189

> <CNN_VS>
4.3698906898

> <CNNaffinity_variance>
0.2115598917

$$$$
[H]c1nc([H])c(N([H])C(=O)c2nc(-c3c(F)c([H])c([H])c([H])c3F)c([H])c([H])c2F)c([C@@]2([H])C([H])([H])[C@@]([H])(N([H])[H])C([H])([H])[C@@]([H])(C([H])([H])[H])C2([H])[H])c1[H]


 35 38  0  0  0  0  0  0  0  0999 V2000
   39.1269   13.0759  -13.9943 N   0  0  0  0  0  0  0  0  0  0  0  0
   39.3570   14.4408  -13.7945 C   0  0  0  0  0  0  0  0  0  0  0  0
   39.6212   15.1891  -14.8221 O   0  0  0  0  0  0  0  0  0  0  0  0
   38.9048   12.4885  -13.1586 H   0  0  0  0  0  0  0  0  0  0  0  0
   39.3317   15.1863  -12.5468 C   0  0  0  0  0  0  0  0  0  0  0  0
   38.2377   15.1240  -11.7662 N   0  0  0  0  0  0  0  0  0  0  0  0
   38.0472   15.7386  -10.5970 C   0  0  0  0  0  0  0  0  0  0  0  0
   39.1061   16.5394  -10.1437 C   0  0  0  0  0  0  0  0  0  0  0  0
   40.2601   16.6551  -10.8905 C   0  0  0  0  0  0  0  0  0  0  0  0
   40.3499   15.9651  -12.0957 C   0  0  0  0  0  0  0  0  0  0  0  0
   41.5258   16.1124  -12.8157 F   0  0  0  0  0  0  0  0  0  0  0  0
   36.8699   15.5956   -9.7678 C   0  0  0  0  0  0  0  0  0  0  0  0
   35.6447   16.1304  -10.1386 C   0  0  0  0  0  0  0  0  0  0  0  0
   35.5256   16.8501  -11.2942 F   0  0  0  0  0  0  0  0  0  0  0  0
   34.5032   15.9857   -9.3857 C   0  0  0  0  0  0  0  0  0  0  0  0
   34.5339   15.2895   -8.2129 C   0  0  0  0  0  0  0  0  0  0  0  0
   35.7515   14.7396   -7.8081 C   0  0  0  0  0  0  0  0  0  0  0  0
   36.8785   14.9023   -8.5843 C   0  0  0  0  0  0  0  0  0  0  0  0
   38.0815   14.3624   -8.1914 F   0  0  0  0  0  0  0  0  0  0  0  0
   37.9555   12.2058  -15.8598 C   0  0  0  0  0  0  0  0  0  0  0  0
   38.0285   11.7475  -17.1799 C   0  0  0  0  0  0  0  0  0  0  0  0
   39.2321   11.6086  -17.8503 C   0  0  0  0  0  0  0  0  0  0  0  0
   40.3772   11.9110  -17.2530 N   0  0  0  0  0  0  0  0  0  0  0  0
   40.3352   12.3593  -15.9776 C   0  0  0  0  0  0  0  0  0  0  0  0
   39.1857   12.5165  -15.2850 C   0  0  0  0  0  0  0  0  0  0  0  0
   33.5102   10.8836  -16.7723 C   0  0  0  0  0  0  0  0  0  0  0  0
   34.3556   11.3166  -15.5251 C   0  0  0  0  0  0  0  0  0  0  0  0
   33.7896   12.6670  -15.0753 C   0  0  0  0  0  0  0  0  0  0  0  0
   34.7451   13.2594  -14.1121 C   0  0  0  0  0  0  0  0  0  0  0  0
   34.2567   14.4463  -13.5089 N   0  0  0  0  0  0  0  0  0  0  0  0
   36.1102   13.5464  -14.7943 C   0  0  0  0  0  0  0  0  0  0  0  0
   36.7511   12.1886  -15.0640 C   0  0  0  0  0  0  0  0  0  0  0  0
   35.7131   11.5141  -16.0493 C   0  0  0  0  0  0  0  0  0  0  0  0
   34.9149   14.8633  -12.7983 H   0  0  0  0  0  0  0  0  0  0  0  0
   33.2785   14.4549  -13.1955 H   0  0  0  0  0  0  0  0  0  0  0  0
 26 27  1  0  0  0
 27 28  1  0  0  0
 28 29  1  0  0  0
 29 30  1  0  0  0
 29 31  1  0  0  0
 31 32  1  0  0  0
 32 20  1  0  0  0
 20 21  2  0  0  0
 21 22  1  0  0  0
 22 23  2  0  0  0
 23 24  1  0  0  0
 24 25  2  0  0  0
 25  1  1  0  0  0
  1  2  1  0  0  0
  2  3  2  0  0  0
  2  5  1  0  0  0
  5  6  2  0  0  0
  6  7  1  0  0  0
  7 12  1  0  0  0
 12 13  2  0  0  0
 13 14  1  0  0  0
 13 15  1  0  0  0
 15 16  2  0  0  0
 16 17  1  0  0  0
 17 18  2  0  0  0
 18 19  1  0  0  0
  7  8  2  0  0  0
  8  9  1  0  0  0
  9 10  2  0  0  0
 10 11  1  0  0  0
 32 33  1  0  0  0
 33 27  1  0  0  0
 25 20  1  0  0  0
 10  5  1  0  0  0
 18 12  1  0  0  0
 30 34  1  0  0  0
 30 35  1  0  0  0
  1  4  1  0  0  0
M  END
> <minimizedAffinity>
-10.02744

> <CNNscore>
0.3565055728

> <CNNaffinity>
7.3047623634

> <CNN_VS>
2.6041884422

> <CNNaffinity_variance>
0.1608072370

$$$$
[H]c1nc([H])c(N([H])C(=O)c2nc(-c3c(F)c([H])c([H])c([H])c3F)c([H])c([H])c2F)c([C@@]2([H])C([H])([H])[C@@]([H])(N([H])[H])C([H])([H])[C@@]([H])(C([H])([H])[H])C2([H])[H])c1[H]


 35 38  0  0  0  0  0  0  0  0999 V2000
   39.0841   13.1163  -13.9203 N   0  0  0  0  0  0  0  0  0  0  0  0
   39.3000   14.4811  -13.7046 C   0  0  0  0  0  0  0  0  0  0  0  0
   39.5812   15.2396  -14.7201 O   0  0  0  0  0  0  0  0  0  0  0  0
   38.8480   12.5205  -13.0944 H   0  0  0  0  0  0  0  0  0  0  0  0
   39.2422   15.2161  -12.4517 C   0  0  0  0  0  0  0  0  0  0  0  0
   38.1426   15.1183  -11.6826 N   0  0  0  0  0  0  0  0  0  0  0  0
   37.9240   15.7186  -10.5109 C   0  0  0  0  0  0  0  0  0  0  0  0
   38.9562   16.5443  -10.0412 C   0  0  0  0  0  0  0  0  0  0  0  0
   40.1139   16.6970  -10.7756 C   0  0  0  0  0  0  0  0  0  0  0  0
   40.2343   16.0189  -11.9848 C   0  0  0  0  0  0  0  0  0  0  0  0
   41.4127   16.2035  -12.6919 F   0  0  0  0  0  0  0  0  0  0  0  0
   36.7430   15.5374   -9.6947 C   0  0  0  0  0  0  0  0  0  0  0  0
   36.7802   14.8324   -8.5005 C   0  0  0  0  0  0  0  0  0  0  0  0
   37.9414   14.2490   -8.0778 F   0  0  0  0  0  0  0  0  0  0  0  0
   35.6813   14.6689   -7.6902 C   0  0  0  0  0  0  0  0  0  0  0  0
   34.4792   15.2108   -8.0402 C   0  0  0  0  0  0  0  0  0  0  0  0
   34.4053   15.9250   -9.2374 C   0  0  0  0  0  0  0  0  0  0  0  0
   35.5242   16.0711  -10.0284 C   0  0  0  0  0  0  0  0  0  0  0  0
   35.4583   16.7743  -11.2091 F   0  0  0  0  0  0  0  0  0  0  0  0
   37.9603   12.2458  -15.8146 C   0  0  0  0  0  0  0  0  0  0  0  0
   38.0646   11.7989  -17.1365 C   0  0  0  0  0  0  0  0  0  0  0  0
   39.2826   11.6810  -17.7847 C   0  0  0  0  0  0  0  0  0  0  0  0
   40.4119   11.9936  -17.1630 N   0  0  0  0  0  0  0  0  0  0  0  0
   40.3395   12.4312  -15.8853 C   0  0  0  0  0  0  0  0  0  0  0  0
   39.1750   12.5679  -15.2138 C   0  0  0  0  0  0  0  0  0  0  0  0
   33.5521   10.8691  -16.8216 C   0  0  0  0  0  0  0  0  0  0  0  0
   34.3672   11.3050  -15.5555 C   0  0  0  0  0  0  0  0  0  0  0  0
   33.7741   12.6444  -15.1077 C   0  0  0  0  0  0  0  0  0  0  0  0
   34.7025   13.2432  -14.1223 C   0  0  0  0  0  0  0  0  0  0  0  0
   34.1863   14.4191  -13.5209 N   0  0  0  0  0  0  0  0  0  0  0  0
   36.0764   13.5535  -14.7762 C   0  0  0  0  0  0  0  0  0  0  0  0
   36.7411   12.2066  -15.0424 C   0  0  0  0  0  0  0  0  0  0  0  0
   35.7317   11.5247  -16.0520 C   0  0  0  0  0  0  0  0  0  0  0  0
   34.8249   14.8402  -12.7949 H   0  0  0  0  0  0  0  0  0  0  0  0
   33.2022   14.4121  -13.2264 H   0  0  0  0  0  0  0  0  0  0  0  0
 26 27  1  0  0  0
 27 28  1  0  0  0
 28 29  1  0  0  0
 29 30  1  0  0  0
 29 31  1  0  0  0
 31 32  1  0  0  0
 32 20  1  0  0  0
 20 21  2  0  0  0
 21 22  1  0  0  0
 22 23  2  0  0  0
 23 24  1  0  0  0
 24 25  2  0  0  0
 25  1  1  0  0  0
  1  2  1  0  0  0
  2  3  2  0  0  0
  2  5  1  0  0  0
  5  6  2  0  0  0
  6  7  1  0  0  0
  7 12  1  0  0  0
 12 13  2  0  0  0
 13 14  1  0  0  0
 13 15  1  0  0  0
 15 16  2  0  0  0
 16 17  1  0  0  0
 17 18  2  0  0  0
 18 19  1  0  0  0
  7  8  2  0  0  0
  8  9  1  0  0  0
  9 10  2  0  0  0
 10 11  1  0  0  0
 32 33  1  0  0  0
 33 27  1  0  0  0
 25 20  1  0  0  0
 10  5  1  0  0  0
 18 12  1  0  0  0
 30 34  1  0  0  0
 30 35  1  0  0  0
  1  4  1  0  0  0
M  END
> <minimizedAffinity>
-10.06884

> <CNNscore>
0.3245922625

> <CNNaffinity>
7.2737908363

> <CNN_VS>
2.3610162735

> <CNNaffinity_variance>
0.1653067172

$$$$
[H]c1nc([H])c(N([H])C(=O)c2nc(-c3c(F)c([H])c([H])c([H])c3F)c([H])c([H])c2F)c([C@@]2([H])C([H])([H])[C@@]([H])(N([H])[H])C([H])([H])[C@@]([H])(C([H])([H])[H])C2([H])[H])c1[H]


 35 38  0  0  0  0  0  0  0  0999 V2000
   38.8495   13.2073  -13.6942 N   0  0  0  0  0  0  0  0  0  0  0  0
   39.0136   14.5739  -13.4468 C   0  0  0  0  0  0  0  0  0  0  0  0
   39.3436   15.3540  -14.4307 O   0  0  0  0  0  0  0  0  0  0  0  0
   38.5732   12.5937  -12.8942 H   0  0  0  0  0  0  0  0  0  0  0  0
   38.8502   15.2889  -12.1917 C   0  0  0  0  0  0  0  0  0  0  0  0
   39.8902   15.3715  -11.3422 N   0  0  0  0  0  0  0  0  0  0  0  0
   39.9151   15.9860  -10.1578 C   0  0  0  0  0  0  0  0  0  0  0  0
   38.7203   16.6047   -9.7610 C   0  0  0  0  0  0  0  0  0  0  0  0
   37.6094   16.5607  -10.5775 C   0  0  0  0  0  0  0  0  0  0  0  0
   37.6992   15.8929  -11.7951 C   0  0  0  0  0  0  0  0  0  0  0  0
   36.5582   15.8702  -12.5828 F   0  0  0  0  0  0  0  0  0  0  0  0
   41.0785   16.0926   -9.3039 C   0  0  0  0  0  0  0  0  0  0  0  0
   40.9930   15.9362   -7.9281 C   0  0  0  0  0  0  0  0  0  0  0  0
   39.7840   15.7133   -7.3314 F   0  0  0  0  0  0  0  0  0  0  0  0
   42.0851   16.0032   -7.0952 C   0  0  0  0  0  0  0  0  0  0  0  0
   43.3294   16.2312   -7.6059 C   0  0  0  0  0  0  0  0  0  0  0  0
   43.4517   16.3957   -8.9868 C   0  0  0  0  0  0  0  0  0  0  0  0
   42.3382   16.3236   -9.7954 C   0  0  0  0  0  0  0  0  0  0  0  0
   42.4518   16.4842  -11.1572 F   0  0  0  0  0  0  0  0  0  0  0  0
   37.8815   12.3537  -15.6800 C   0  0  0  0  0  0  0  0  0  0  0  0
   38.0900   11.9287  -16.9968 C   0  0  0  0  0  0  0  0  0  0  0  0
   39.3544   11.8347  -17.5535 C   0  0  0  0  0  0  0  0  0  0  0  0
   40.4301   12.1504  -16.8444 N   0  0  0  0  0  0  0  0  0  0  0  0
   40.2569   12.5672  -15.5694 C   0  0  0  0  0  0  0  0  0  0  0  0
   39.0438   12.6802  -14.9852 C   0  0  0  0  0  0  0  0  0  0  0  0
   33.6359   10.7092  -16.9496 C   0  0  0  0  0  0  0  0  0  0  0  0
   34.3274   11.2446  -15.6486 C   0  0  0  0  0  0  0  0  0  0  0  0
   33.6386   12.5715  -15.3155 C   0  0  0  0  0  0  0  0  0  0  0  0
   34.4574   13.2620  -14.2937 C   0  0  0  0  0  0  0  0  0  0  0  0
   33.8407   14.4370  -13.7935 N   0  0  0  0  0  0  0  0  0  0  0  0
   35.8623   13.6110  -14.8556 C   0  0  0  0  0  0  0  0  0  0  0  0
   36.6086   12.2886  -15.0021 C   0  0  0  0  0  0  0  0  0  0  0  0
   35.7149   11.5100  -16.0501 C   0  0  0  0  0  0  0  0  0  0  0  0
   34.3997   14.9233  -13.0431 H   0  0  0  0  0  0  0  0  0  0  0  0
   32.8379   14.3937  -13.5749 H   0  0  0  0  0  0  0  0  0  0  0  0
 26 27  1  0  0  0
 27 28  1  0  0  0
 28 29  1  0  0  0
 29 30  1  0  0  0
 29 31  1  0  0  0
 31 32  1  0  0  0
 32 20  1  0  0  0
 20 21  2  0  0  0
 21 22  1  0  0  0
 22 23  2  0  0  0
 23 24  1  0  0  0
 24 25  2  0  0  0
 25  1  1  0  0  0
  1  2  1  0  0  0
  2  3  2  0  0  0
  2  5  1  0  0  0
  5  6  2  0  0  0
  6  7  1  0  0  0
  7 12  1  0  0  0
 12 13  2  0  0  0
 13 14  1  0  0  0
 13 15  1  0  0  0
 15 16  2  0  0  0
 16 17  1  0  0  0
 17 18  2  0  0  0
 18 19  1  0  0  0
  7  8  2  0  0  0
  8  9  1  0  0  0
  9 10  2  0  0  0
 10 11  1  0  0  0
 32 33  1  0  0  0
 33 27  1  0  0  0
 25 20  1  0  0  0
 10  5  1  0  0  0
 18 12  1  0  0  0
 30 34  1  0  0  0
 30 35  1  0  0  0
  1  4  1  0  0  0
M  END
> <minimizedAffinity>
-9.11436

> <CNNscore>
0.2730309665

> <CNNaffinity>
7.0798377991

> <CNN_VS>
1.9330149889

> <CNNaffinity_variance>
0.0846266299

$$$$
[H]c1nc([H])c(N([H])C(=O)c2nc(-c3c(F)c([H])c([H])c([H])c3F)c([H])c([H])c2F)c([C@@]2([H])C([H])([H])[C@@]([H])(N([H])[H])C([H])([H])[C@@]([H])(C([H])([H])[H])C2([H])[H])c1[H]


 35 38  0  0  0  0  0  0  0  0999 V2000
   34.9675   14.4625  -13.4157 N   0  0  0  0  0  0  0  0  0  0  0  0
   35.0583   13.1130  -13.7710 C   0  0  0  0  0  0  0  0  0  0  0  0
   34.3982   12.2362  -13.0774 O   0  0  0  0  0  0  0  0  0  0  0  0
   35.4961   15.1577  -13.9904 H   0  0  0  0  0  0  0  0  0  0  0  0
   35.8099   12.5168  -14.8632 C   0  0  0  0  0  0  0  0  0  0  0  0
   37.1322   12.7477  -14.9539 N   0  0  0  0  0  0  0  0  0  0  0  0
   37.9687   12.2818  -15.8836 C   0  0  0  0  0  0  0  0  0  0  0  0
   37.3966   11.4690  -16.8734 C   0  0  0  0  0  0  0  0  0  0  0  0
   36.0461   11.1890  -16.8491 C   0  0  0  0  0  0  0  0  0  0  0  0
   35.2688   11.7277  -15.8282 C   0  0  0  0  0  0  0  0  0  0  0  0
   33.9160   11.4236  -15.8439 F   0  0  0  0  0  0  0  0  0  0  0  0
   39.3965   12.5161  -15.9058 C   0  0  0  0  0  0  0  0  0  0  0  0
   40.1942   12.0735  -16.9509 C   0  0  0  0  0  0  0  0  0  0  0  0
   39.6503   11.3603  -17.9819 F   0  0  0  0  0  0  0  0  0  0  0  0
   41.5480   12.3065  -17.0133 C   0  0  0  0  0  0  0  0  0  0  0  0
   42.1747   13.0029  -16.0217 C   0  0  0  0  0  0  0  0  0  0  0  0
   41.4023   13.4613  -14.9530 C   0  0  0  0  0  0  0  0  0  0  0  0
   40.0475   13.2114  -14.9187 C   0  0  0  0  0  0  0  0  0  0  0  0
   39.2803   13.6609  -13.8687 F   0  0  0  0  0  0  0  0  0  0  0  0
   34.8872   15.2512  -11.1840 C   0  0  0  0  0  0  0  0  0  0  0  0
   34.0932   15.7478  -10.1442 C   0  0  0  0  0  0  0  0  0  0  0  0
   32.7151   15.8393  -10.2433 C   0  0  0  0  0  0  0  0  0  0  0  0
   32.0898   15.4525  -11.3473 N   0  0  0  0  0  0  0  0  0  0  0  0
   32.8337   14.9711  -12.3693 C   0  0  0  0  0  0  0  0  0  0  0  0
   34.1801   14.8682  -12.3213 C   0  0  0  0  0  0  0  0  0  0  0  0
   37.8377   15.1547   -7.4925 C   0  0  0  0  0  0  0  0  0  0  0  0
   37.8696   14.7613   -9.0097 C   0  0  0  0  0  0  0  0  0  0  0  0
   38.8485   15.7301   -9.6801 C   0  0  0  0  0  0  0  0  0  0  0  0
   38.6744   15.6070  -11.1451 C   0  0  0  0  0  0  0  0  0  0  0  0
   39.6348   16.3482  -11.8795 N   0  0  0  0  0  0  0  0  0  0  0  0
   37.2457   16.0425  -11.5697 C   0  0  0  0  0  0  0  0  0  0  0  0
   36.2962   14.9637  -11.0579 C   0  0  0  0  0  0  0  0  0  0  0  0
   36.5107   15.0393   -9.4922 C   0  0  0  0  0  0  0  0  0  0  0  0
   39.5411   16.2461  -12.9249 H   0  0  0  0  0  0  0  0  0  0  0  0
   40.6115   16.3088  -11.5637 H   0  0  0  0  0  0  0  0  0  0  0  0
 26 27  1  0  0  0
 27 28  1  0  0  0
 28 29  1  0  0  0
 29 30  1  0  0  0
 29 31  1  0  0  0
 31 32  1  0  0  0
 32 20  1  0  0  0
 20 21  2  0  0  0
 21 22  1  0  0  0
 22 23  2  0  0  0
 23 24  1  0  0  0
 24 25  2  0  0  0
 25  1  1  0  0  0
  1  2  1  0  0  0
  2  3  2  0  0  0
  2  5  1  0  0  0
  5  6  2  0  0  0
  6  7  1  0  0  0
  7 12  1  0  0  0
 12 13  2  0  0  0
 13 14  1  0  0  0
 13 15  1  0  0  0
 15 16  2  0  0  0
 16 17  1  0  0  0
 17 18  2  0  0  0
 18 19  1  0  0  0
  7  8  2  0  0  0
  8  9  1  0  0  0
  9 10  2  0  0  0
 10 11  1  0  0  0
 32 33  1  0  0  0
 33 27  1  0  0  0
 25 20  1  0  0  0
 10  5  1  0  0  0
 18 12  1  0  0  0
 30 34  1  0  0  0
 30 35  1  0  0  0
  1  4  1  0  0  0
M  END
> <minimizedAffinity>
-10.23116

> <CNNscore>
0.2630516589

> <CNNaffinity>
7.3219861984

> <CNN_VS>
1.9260605574

> <CNNaffinity_variance>
0.1273465604

$$$$
[H]c1nc([H])c(N([H])C(=O)c2nc(-c3c(F)c([H])c([H])c([H])c3F)c([H])c([H])c2F)c([C@@]2([H])C([H])([H])[C@@]([H])(N([H])[H])C([H])([H])[C@@]([H])(C([H])([H])[H])C2([H])[H])c1[H]


 35 38  0  0  0  0  0  0  0  0999 V2000
   39.5446   11.7059  -15.5848 N   0  0  0  0  0  0  0  0  0  0  0  0
   40.4994   12.6056  -16.0692 C   0  0  0  0  0  0  0  0  0  0  0  0
   40.2390   13.2739  -17.1514 O   0  0  0  0  0  0  0  0  0  0  0  0
   39.7643   11.1832  -14.7065 H   0  0  0  0  0  0  0  0  0  0  0  0
   41.8003   12.9292  -15.5069 C   0  0  0  0  0  0  0  0  0  0  0  0
   41.8669   13.4996  -14.2903 N   0  0  0  0  0  0  0  0  0  0  0  0
   42.9691   13.8582  -13.6287 C   0  0  0  0  0  0  0  0  0  0  0  0
   44.1855   13.6157  -14.2839 C   0  0  0  0  0  0  0  0  0  0  0  0
   44.1983   13.0359  -15.5355 C   0  0  0  0  0  0  0  0  0  0  0  0
   42.9859   12.6996  -16.1301 C   0  0  0  0  0  0  0  0  0  0  0  0
   43.0448   12.1224  -17.3895 F   0  0  0  0  0  0  0  0  0  0  0  0
   42.9893   14.4203  -12.2954 C   0  0  0  0  0  0  0  0  0  0  0  0
   43.5333   13.7333  -11.2200 C   0  0  0  0  0  0  0  0  0  0  0  0
   44.0359   12.4735  -11.3871 F   0  0  0  0  0  0  0  0  0  0  0  0
   43.5927   14.2537   -9.9486 C   0  0  0  0  0  0  0  0  0  0  0  0
   43.1057   15.5016   -9.6905 C   0  0  0  0  0  0  0  0  0  0  0  0
   42.5487   16.2205  -10.7496 C   0  0  0  0  0  0  0  0  0  0  0  0
   42.5032   15.6715  -12.0128 C   0  0  0  0  0  0  0  0  0  0  0  0
   41.9562   16.3749  -13.0611 F   0  0  0  0  0  0  0  0  0  0  0  0
   37.2192   12.1441  -15.6827 C   0  0  0  0  0  0  0  0  0  0  0  0
   36.0356   12.0332  -16.4209 C   0  0  0  0  0  0  0  0  0  0  0  0
   35.9736   11.3481  -17.6226 C   0  0  0  0  0  0  0  0  0  0  0  0
   37.0536   10.7632  -18.1236 N   0  0  0  0  0  0  0  0  0  0  0  0
   38.2120   10.8574  -17.4317 C   0  0  0  0  0  0  0  0  0  0  0  0
   38.3227   11.5194  -16.2590 C   0  0  0  0  0  0  0  0  0  0  0  0
   34.0064   14.1140  -12.8298 C   0  0  0  0  0  0  0  0  0  0  0  0
   35.4900   13.6172  -12.7327 C   0  0  0  0  0  0  0  0  0  0  0  0
   36.3456   14.8702  -12.5223 C   0  0  0  0  0  0  0  0  0  0  0  0
   37.7605   14.4933  -12.7399 C   0  0  0  0  0  0  0  0  0  0  0  0
   38.6652   15.5390  -12.4253 N   0  0  0  0  0  0  0  0  0  0  0  0
   37.9895   14.0306  -14.2045 C   0  0  0  0  0  0  0  0  0  0  0  0
   37.2896   12.6825  -14.3451 C   0  0  0  0  0  0  0  0  0  0  0  0
   35.7787   13.0541  -14.0580 C   0  0  0  0  0  0  0  0  0  0  0  0
   39.6788   15.2747  -12.5475 H   0  0  0  0  0  0  0  0  0  0  0  0
   38.4964   16.0734  -11.5643 H   0  0  0  0  0  0  0  0  0  0  0  0
 26 27  1  0  0  0
 27 28  1  0  0  0
 28 29  1  0  0  0
 29 30  1  0  0  0
 29 31  1  0  0  0
 31 32  1  0  0  0
 32 20  1  0  0  0
 20 21  2  0  0  0
 21 22  1  0  0  0
 22 23  2  0  0  0
 23 24  1  0  0  0
 24 25  2  0  0  0
 25  1  1  0  0  0
  1  2  1  0  0  0
  2  3  2  0  0  0
  2  5  1  0  0  0
  5  6  2  0  0  0
  6  7  1  0  0  0
  7 12  1  0  0  0
 12 13  2  0  0  0
 13 14  1  0  0  0
 13 15  1  0  0  0
 15 16  2  0  0  0
 16 17  1  0  0  0
 17 18  2  0  0  0
 18 19  1  0  0  0
  7  8  2  0  0  0
  8  9  1  0  0  0
  9 10  2  0  0  0
 10 11  1  0  0  0
 32 33  1  0  0  0
 33 27  1  0  0  0
 25 20  1  0  0  0
 10  5  1  0  0  0
 18 12  1  0  0  0
 30 34  1  0  0  0
 30 35  1  0  0  0
  1  4  1  0  0  0
M  END
> <minimizedAffinity>
-9.51816

> <CNNscore>
0.2052702010

> <CNNaffinity>
7.2077317238

> <CNN_VS>
1.4795324802

> <CNNaffinity_variance>
0.0550605059

$$$$
[H]c1nc([H])c(N([H])C(=O)c2nc(-c3c(F)c([H])c([H])c([H])c3F)c([H])c([H])c2F)c([C@@]2([H])C([H])([H])[C@@]([H])(N([H])[H])C([H])([H])[C@@]([H])(C([H])([H])[H])C2([H])[H])c1[H]


 35 38  0  0  0  0  0  0  0  0999 V2000
   35.7658   13.6524  -14.0435 N   0  0  0  0  0  0  0  0  0  0  0  0
   36.0419   13.3426  -12.7080 C   0  0  0  0  0  0  0  0  0  0  0  0
   35.9452   12.1080  -12.3179 O   0  0  0  0  0  0  0  0  0  0  0  0
   35.8584   14.6491  -14.3451 H   0  0  0  0  0  0  0  0  0  0  0  0
   36.4529   14.2398  -11.6407 C   0  0  0  0  0  0  0  0  0  0  0  0
   35.8777   14.1273  -10.4297 N   0  0  0  0  0  0  0  0  0  0  0  0
   36.1346   14.8617   -9.3453 C   0  0  0  0  0  0  0  0  0  0  0  0
   37.1071   15.8614   -9.4962 C   0  0  0  0  0  0  0  0  0  0  0  0
   37.7395   16.0396  -10.7091 C   0  0  0  0  0  0  0  0  0  0  0  0
   37.3934   15.2118  -11.7728 C   0  0  0  0  0  0  0  0  0  0  0  0
   38.0510   15.4278  -12.9744 F   0  0  0  0  0  0  0  0  0  0  0  0
   35.5253   14.6647   -8.0477 C   0  0  0  0  0  0  0  0  0  0  0  0
   36.1793   13.9896   -7.0274 C   0  0  0  0  0  0  0  0  0  0  0  0
   37.4177   13.4513   -7.2371 F   0  0  0  0  0  0  0  0  0  0  0  0
   35.6374   13.8126   -5.7760 C   0  0  0  0  0  0  0  0  0  0  0  0
   34.4014   14.3099   -5.4826 C   0  0  0  0  0  0  0  0  0  0  0  0
   33.7138   14.9930   -6.4873 C   0  0  0  0  0  0  0  0  0  0  0  0
   34.2832   15.1537   -7.7318 C   0  0  0  0  0  0  0  0  0  0  0  0
   33.6112   15.8265   -8.7262 F   0  0  0  0  0  0  0  0  0  0  0  0
   36.4013   12.1559  -15.7657 C   0  0  0  0  0  0  0  0  0  0  0  0
   36.0255   11.0885  -16.5887 C   0  0  0  0  0  0  0  0  0  0  0  0
   34.7398   10.5741  -16.5940 C   0  0  0  0  0  0  0  0  0  0  0  0
   33.8043   11.0852  -15.8045 N   0  0  0  0  0  0  0  0  0  0  0  0
   34.1415   12.1160  -14.9964 C   0  0  0  0  0  0  0  0  0  0  0  0
   35.3830   12.6474  -14.9522 C   0  0  0  0  0  0  0  0  0  0  0  0
   40.3468   11.3106  -18.2274 C   0  0  0  0  0  0  0  0  0  0  0  0
   39.7661   12.4579  -17.3308 C   0  0  0  0  0  0  0  0  0  0  0  0
   40.6404   12.4997  -16.0737 C   0  0  0  0  0  0  0  0  0  0  0  0
   39.9490   13.3398  -15.0699 C   0  0  0  0  0  0  0  0  0  0  0  0
   40.7344   13.5772  -13.9133 N   0  0  0  0  0  0  0  0  0  0  0  0
   38.5940   12.7035  -14.6568 C   0  0  0  0  0  0  0  0  0  0  0  0
   37.6677   12.8424  -15.8609 C   0  0  0  0  0  0  0  0  0  0  0  0
   38.4204   11.9967  -16.9661 C   0  0  0  0  0  0  0  0  0  0  0  0
   40.2657   14.1989  -13.2020 H   0  0  0  0  0  0  0  0  0  0  0  0
   41.7261   13.8082  -14.0488 H   0  0  0  0  0  0  0  0  0  0  0  0
 26 27  1  0  0  0
 27 28  1  0  0  0
 28 29  1  0  0  0
 29 30  1  0  0  0
 29 31  1  0  0  0
 31 32  1  0  0  0
 32 20  1  0  0  0
 20 21  2  0  0  0
 21 22  1  0  0  0
 22 23  2  0  0  0
 23 24  1  0  0  0
 24 25  2  0  0  0
 25  1  1  0  0  0
  1  2  1  0  0  0
  2  3  2  0  0  0
  2  5  1  0  0  0
  5  6  2  0  0  0
  6  7  1  0  0  0
  7 12  1  0  0  0
 12 13  2  0  0  0
 13 14  1  0  0  0
 13 15  1  0  0  0
 15 16  2  0  0  0
 16 17  1  0  0  0
 17 18  2  0  0  0
 18 19  1  0  0  0
  7  8  2  0  0  0
  8  9  1  0  0  0
  9 10  2  0  0  0
 10 11  1  0  0  0
 32 33  1  0  0  0
 33 27  1  0  0  0
 25 20  1  0  0  0
 10  5  1  0  0  0
 18 12  1  0  0  0
 30 34  1  0  0  0
 30 35  1  0  0  0
  1  4  1  0  0  0
M  END
> <minimizedAffinity>
-10.24342

> <CNNscore>
0.1850979328

> <CNNaffinity>
6.7800741196

> <CNN_VS>
1.2549777031

> <CNNaffinity_variance>
0.2028447837

$$$$
[H]c1nc([H])c(N([H])C(=O)c2nc(-c3c(F)c([H])c([H])c([H])c3F)c([H])c([H])c2F)c([C@@]2([H])C([H])([H])[C@@]([H])(N([H])[H])C([H])([H])[C@@]([H])(C([H])([H])[H])C2([H])[H])c1[H]


 35 38  0  0  0  0  0  0  0  0999 V2000
   36.3983   15.8664   -8.6036 N   0  0  0  0  0  0  0  0  0  0  0  0
   36.1294   14.7969   -7.7435 C   0  0  0  0  0  0  0  0  0  0  0  0
   36.9853   13.8238   -7.6665 O   0  0  0  0  0  0  0  0  0  0  0  0
   35.7049   16.6476   -8.6466 H   0  0  0  0  0  0  0  0  0  0  0  0
   34.9826   14.6086   -6.8702 C   0  0  0  0  0  0  0  0  0  0  0  0
   33.7481   14.5781   -7.4042 N   0  0  0  0  0  0  0  0  0  0  0  0
   32.5940   14.4135   -6.7544 C   0  0  0  0  0  0  0  0  0  0  0  0
   32.6880   14.2632   -5.3629 C   0  0  0  0  0  0  0  0  0  0  0  0
   33.9197   14.2862   -4.7421 C   0  0  0  0  0  0  0  0  0  0  0  0
   35.0592   14.4614   -5.5215 C   0  0  0  0  0  0  0  0  0  0  0  0
   36.2758   14.4817   -4.8565 F   0  0  0  0  0  0  0  0  0  0  0  0
   31.2931   14.3339   -7.3832 C   0  0  0  0  0  0  0  0  0  0  0  0
   30.7010   15.4366   -7.9814 C   0  0  0  0  0  0  0  0  0  0  0  0
   31.3227   16.6533   -7.9574 F   0  0  0  0  0  0  0  0  0  0  0  0
   29.4799   15.3840   -8.6114 C   0  0  0  0  0  0  0  0  0  0  0  0
   28.7859   14.2112   -8.6745 C   0  0  0  0  0  0  0  0  0  0  0  0
   29.3515   13.0816   -8.0805 C   0  0  0  0  0  0  0  0  0  0  0  0
   30.5770   13.1661   -7.4560 C   0  0  0  0  0  0  0  0  0  0  0  0
   31.1404   12.0565   -6.8691 F   0  0  0  0  0  0  0  0  0  0  0  0
   37.4347   15.4328  -10.6886 C   0  0  0  0  0  0  0  0  0  0  0  0
   38.5859   15.5590  -11.4740 C   0  0  0  0  0  0  0  0  0  0  0  0
   39.7660   16.0881  -10.9790 C   0  0  0  0  0  0  0  0  0  0  0  0
   39.8462   16.5009   -9.7209 N   0  0  0  0  0  0  0  0  0  0  0  0
   38.7469   16.3931   -8.9404 C   0  0  0  0  0  0  0  0  0  0  0  0
   37.5727   15.8892   -9.3798 C   0  0  0  0  0  0  0  0  0  0  0  0
   36.6297   12.1724  -14.0147 C   0  0  0  0  0  0  0  0  0  0  0  0
   35.8505   12.8237  -12.8205 C   0  0  0  0  0  0  0  0  0  0  0  0
   34.7194   13.6445  -13.4475 C   0  0  0  0  0  0  0  0  0  0  0  0
   34.1589   14.5206  -12.3940 C   0  0  0  0  0  0  0  0  0  0  0  0
   33.0018   15.2226  -12.8174 N   0  0  0  0  0  0  0  0  0  0  0  0
   35.2254   15.5312  -11.8914 C   0  0  0  0  0  0  0  0  0  0  0  0
   36.2488   14.7209  -11.1019 C   0  0  0  0  0  0  0  0  0  0  0  0
   36.8201   13.7356  -12.2000 C   0  0  0  0  0  0  0  0  0  0  0  0
   32.5745   15.8283  -12.0674 H   0  0  0  0  0  0  0  0  0  0  0  0
   32.2978   14.7023  -13.3551 H   0  0  0  0  0  0  0  0  0  0  0  0
 26 27  1  0  0  0
 27 28  1  0  0  0
 28 29  1  0  0  0
 29 30  1  0  0  0
 29 31  1  0  0  0
 31 32  1  0  0  0
 32 20  1  0  0  0
 20 21  2  0  0  0
 21 22  1  0  0  0
 22 23  2  0  0  0
 23 24  1  0  0  0
 24 25  2  0  0  0
 25  1  1  0  0  0
  1  2  1  0  0  0
  2  3  2  0  0  0
  2  5  1  0  0  0
  5  6  2  0  0  0
  6  7  1  0  0  0
  7 12  1  0  0  0
 12 13  2  0  0  0
 13 14  1  0  0  0
 13 15  1  0  0  0
 15 16  2  0  0  0
 16 17  1  0  0  0
 17 18  2  0  0  0
 18 19  1  0  0  0
  7  8  2  0  0  0
  8  9  1  0  0  0
  9 10  2  0  0  0
 10 11  1  0  0  0
 32 33  1  0  0  0
 33 27  1  0  0  0
 25 20  1  0  0  0
 10  5  1  0  0  0
 18 12  1  0  0  0
 30 34  1  0  0  0
 30 35  1  0  0  0
  1  4  1  0  0  0
M  END
> <minimizedAffinity>
-8.54464

> <CNNscore>
0.1808833331

> <CNNaffinity>
6.2239646912

> <CNN_VS>
1.1258114576

> <CNNaffinity_variance>
0.4226974845

$$$$
[H]OC(=O)C1(C([H])([H])c2c([H])nc(OC([H])([H])C([H])([H])c3nc(-c4c([H])c([H])c([H])c(Cl)c4[H])oc3C([H])([H])[H])c([H])c2[H])OC([H])([H])C([H])([H])C1([H])[H]


 32 35  0  0  0  0  0  0  0  0999 V2000
   35.9656   14.9035  -11.9112 O   0  0  0  0  0  0  0  0  0  0  0  0
   35.8395   15.0455  -10.5402 C   0  0  0  0  0  0  0  0  0  0  0  0
   34.7962   15.8343  -10.0280 C   0  0  0  0  0  0  0  0  0  0  0  0
   34.6463   15.9937   -8.6636 C   0  0  0  0  0  0  0  0  0  0  0  0
   35.5030   15.3929   -7.7640 C   0  0  0  0  0  0  0  0  0  0  0  0
   36.5022   14.6361   -8.3134 C   0  0  0  0  0  0  0  0  0  0  0  0
   36.6410   14.4863   -9.6377 N   0  0  0  0  0  0  0  0  0  0  0  0
   35.3393   15.5610   -6.3203 C   0  0  0  0  0  0  0  0  0  0  0  0
   34.7730   14.4205   -5.5566 C   0  0  0  0  0  0  0  0  0  0  0  0
   33.9469   14.9196   -4.3805 C   0  0  0  0  0  0  0  0  0  0  0  0
   32.6984   15.3809   -5.1065 C   0  0  0  0  0  0  0  0  0  0  0  0
   32.6614   14.4673   -6.2823 C   0  0  0  0  0  0  0  0  0  0  0  0
   33.8393   13.7712   -6.3841 O   0  0  0  0  0  0  0  0  0  0  0  0
   35.7416   13.3917   -5.1249 C   0  0  0  0  0  0  0  0  0  0  0  0
   35.4148   12.4831   -4.2835 O   0  0  0  0  0  0  0  0  0  0  0  0
   37.0516   13.3102   -5.5677 O   0  0  0  0  0  0  0  0  0  0  0  0
   37.4028   12.3953   -5.8135 H   0  0  0  0  0  0  0  0  0  0  0  0
   35.0740   14.2660  -12.7736 C   0  0  0  0  0  0  0  0  0  0  0  0
   35.3370   12.7674  -12.7443 C   0  0  0  0  0  0  0  0  0  0  0  0
   33.7660   11.7741  -15.2954 C   0  0  0  0  0  0  0  0  0  0  0  0
   35.2341   11.9738  -15.1750 C   0  0  0  0  0  0  0  0  0  0  0  0
   36.1240   11.7694  -16.1037 O   0  0  0  0  0  0  0  0  0  0  0  0
   37.3264   12.0389  -15.6797 C   0  0  0  0  0  0  0  0  0  0  0  0
   37.2078   12.4407  -14.4044 N   0  0  0  0  0  0  0  0  0  0  0  0
   35.9128   12.4154  -14.0456 C   0  0  0  0  0  0  0  0  0  0  0  0
   38.5683   11.9304  -16.4305 C   0  0  0  0  0  0  0  0  0  0  0  0
   38.6866   11.2471  -17.6210 C   0  0  0  0  0  0  0  0  0  0  0  0
   39.8793   11.1650  -18.3102 C   0  0  0  0  0  0  0  0  0  0  0  0
   41.0182   11.7734  -17.8262 C   0  0  0  0  0  0  0  0  0  0  0  0
   40.9367   12.4700  -16.6307 C   0  0  0  0  0  0  0  0  0  0  0  0
   42.3629   13.2655  -15.9693 Cl  0  0  0  0  0  0  0  0  0  0  0  0
   39.7361   12.5391  -15.9594 C   0  0  0  0  0  0  0  0  0  0  0  0
 20 21  1  0  0  0
 21 22  1  0  0  0
 22 23  1  0  0  0
 23 26  1  0  0  0
 26 27  2  0  0  0
 27 28  1  0  0  0
 28 29  2  0  0  0
 29 30  1  0  0  0
 30 31  1  0  0  0
 30 32  2  0  0  0
 23 24  2  0  0  0
 24 25  1  0  0  0
 25 19  1  0  0  0
 19 18  1  0  0  0
 18  1  1  0  0  0
  1  2  1  0  0  0
  2  3  2  0  0  0
  3  4  1  0  0  0
  4  5  2  0  0  0
  5  8  1  0  0  0
  8  9  1  0  0  0
  9 14  1  0  0  0
 14 15  2  0  0  0
 14 16  1  0  0  0
  9 10  1  0  0  0
 10 11  1  0  0  0
 11 12  1  0  0  0
 12 13  1  0  0  0
  5  6  1  0  0  0
  6  7  2  0  0  0
 25 21  2  0  0  0
  7  2  1  0  0  0
 32 26  1  0  0  0
 13  9  1  0  0  0
 16 17  1  0  0  0
M  END
> <minimizedAffinity>
-8.64068

> <CNNscore>
0.5979286432

> <CNNaffinity>
6.3167080879

> <CNN_VS>
3.7769405842

> <CNNaffinity_variance>
0.2112238407

$$$$
[H]OC(=O)C1(C([H])([H])c2c([H])nc(OC([H])([H])C([H])([H])c3nc(-c4c([H])c([H])c([H])c(Cl)c4[H])oc3C([H])([H])[H])c([H])c2[H])OC([H])([H])C([H])([H])C1([H])[H]


 32 35  0  0  0  0  0  0  0  0999 V2000
   36.0669   14.0795  -10.9219 O   0  0  0  0  0  0  0  0  0  0  0  0
   36.4341   14.5823   -9.6858 C   0  0  0  0  0  0  0  0  0  0  0  0
   37.6882   15.1989   -9.5439 C   0  0  0  0  0  0  0  0  0  0  0  0
   38.0810   15.7098   -8.3216 C   0  0  0  0  0  0  0  0  0  0  0  0
   37.2686   15.6354   -7.2087 C   0  0  0  0  0  0  0  0  0  0  0  0
   36.0585   15.0253   -7.3992 C   0  0  0  0  0  0  0  0  0  0  0  0
   35.6847   14.5323   -8.5878 N   0  0  0  0  0  0  0  0  0  0  0  0
   37.6862   16.1804   -5.9171 C   0  0  0  0  0  0  0  0  0  0  0  0
   37.9880   15.2149   -4.8303 C   0  0  0  0  0  0  0  0  0  0  0  0
   39.0128   14.1897   -5.2925 C   0  0  0  0  0  0  0  0  0  0  0  0
   40.2741   15.0293   -5.2407 C   0  0  0  0  0  0  0  0  0  0  0  0
   39.9669   15.9931   -4.1474 C   0  0  0  0  0  0  0  0  0  0  0  0
   38.6414   15.9171   -3.8015 O   0  0  0  0  0  0  0  0  0  0  0  0
   36.8188   14.5546   -4.2139 C   0  0  0  0  0  0  0  0  0  0  0  0
   36.0096   15.2030   -3.4621 O   0  0  0  0  0  0  0  0  0  0  0  0
   36.4934   13.2183   -4.3783 O   0  0  0  0  0  0  0  0  0  0  0  0
   35.5235   12.9942   -4.5511 H   0  0  0  0  0  0  0  0  0  0  0  0
   35.8109   14.8103  -12.0819 C   0  0  0  0  0  0  0  0  0  0  0  0
   34.8192   14.0442  -12.9452 C   0  0  0  0  0  0  0  0  0  0  0  0
   33.7924   11.7532  -14.8583 C   0  0  0  0  0  0  0  0  0  0  0  0
   35.1671   12.3156  -14.7999 C   0  0  0  0  0  0  0  0  0  0  0  0
   36.1847   11.9553  -15.5285 O   0  0  0  0  0  0  0  0  0  0  0  0
   37.2508   12.6439  -15.2326 C   0  0  0  0  0  0  0  0  0  0  0  0
   36.9031   13.4984  -14.2575 N   0  0  0  0  0  0  0  0  0  0  0  0
   35.6050   13.3276  -13.9542 C   0  0  0  0  0  0  0  0  0  0  0  0
   38.5707   12.5224  -15.8334 C   0  0  0  0  0  0  0  0  0  0  0  0
   39.7209   13.0223  -15.2632 C   0  0  0  0  0  0  0  0  0  0  0  0
   40.9588   12.8881  -15.8581 C   0  0  0  0  0  0  0  0  0  0  0  0
   41.0952   12.2380  -17.0665 C   0  0  0  0  0  0  0  0  0  0  0  0
   39.9590   11.7218  -17.6698 C   0  0  0  0  0  0  0  0  0  0  0  0
   40.0791   10.8821  -19.2140 Cl  0  0  0  0  0  0  0  0  0  0  0  0
   38.7335   11.8672  -17.0584 C   0  0  0  0  0  0  0  0  0  0  0  0
 20 21  1  0  0  0
 21 22  1  0  0  0
 22 23  1  0  0  0
 23 26  1  0  0  0
 26 27  2  0  0  0
 27 28  1  0  0  0
 28 29  2  0  0  0
 29 30  1  0  0  0
 30 31  1  0  0  0
 30 32  2  0  0  0
 23 24  2  0  0  0
 24 25  1  0  0  0
 25 19  1  0  0  0
 19 18  1  0  0  0
 18  1  1  0  0  0
  1  2  1  0  0  0
  2  3  2  0  0  0
  3  4  1  0  0  0
  4  5  2  0  0  0
  5  8  1  0  0  0
  8  9  1  0  0  0
  9 14  1  0  0  0
 14 15  2  0  0  0
 14 16  1  0  0  0
  9 10  1  0  0  0
 10 11  1  0  0  0
 11 12  1  0  0  0
 12 13  1  0  0  0
  5  6  1  0  0  0
  6  7  2  0  0  0
 25 21  2  0  0  0
  7  2  1  0  0  0
 32 26  1  0  0  0
 13  9  1  0  0  0
 16 17  1  0  0  0
M  END
> <minimizedAffinity>
-7.68267

> <CNNscore>
0.3977293372

> <CNNaffinity>
6.1255297661

> <CNN_VS>
2.4363029003

> <CNNaffinity_variance>
0.3873893023

$$$$
[H]OC(=O)C1(C([H])([H])c2c([H])nc(OC([H])([H])C([H])([H])c3nc(-c4c([H])c([H])c([H])c(Cl)c4[H])oc3C([H])([H])[H])c([H])c2[H])OC([H])([H])C([H])([H])C1([H])[H]


 32 35  0  0  0  0  0  0  0  0999 V2000
   36.0122   13.9645  -11.4504 O   0  0  0  0  0  0  0  0  0  0  0  0
   36.1206   14.7549  -10.3194 C   0  0  0  0  0  0  0  0  0  0  0  0
   35.7719   16.1133  -10.3990 C   0  0  0  0  0  0  0  0  0  0  0  0
   35.8702   16.9260   -9.2859 C   0  0  0  0  0  0  0  0  0  0  0  0
   36.3083   16.4421   -8.0701 C   0  0  0  0  0  0  0  0  0  0  0  0
   36.6359   15.1135   -8.0454 C   0  0  0  0  0  0  0  0  0  0  0  0
   36.5379   14.3318   -9.1292 N   0  0  0  0  0  0  0  0  0  0  0  0
   36.4079   17.3044   -6.8928 C   0  0  0  0  0  0  0  0  0  0  0  0
   37.5708   18.2239   -6.8122 C   0  0  0  0  0  0  0  0  0  0  0  0
   37.5400   19.2294   -7.9536 C   0  0  0  0  0  0  0  0  0  0  0  0
   36.4488   20.1600   -7.4618 C   0  0  0  0  0  0  0  0  0  0  0  0
   36.5790   20.0449   -5.9825 C   0  0  0  0  0  0  0  0  0  0  0  0
   37.4175   19.0093   -5.6555 O   0  0  0  0  0  0  0  0  0  0  0  0
   38.8956   17.5777   -6.7109 C   0  0  0  0  0  0  0  0  0  0  0  0
   39.5720   17.6161   -5.6240 O   0  0  0  0  0  0  0  0  0  0  0  0
   39.5173   16.8934   -7.7423 O   0  0  0  0  0  0  0  0  0  0  0  0
   39.9576   16.0126   -7.5163 H   0  0  0  0  0  0  0  0  0  0  0  0
   35.7812   14.3965  -12.7562 C   0  0  0  0  0  0  0  0  0  0  0  0
   34.8167   13.4356  -13.4360 C   0  0  0  0  0  0  0  0  0  0  0  0
   33.7025   11.3069  -15.4830 C   0  0  0  0  0  0  0  0  0  0  0  0
   35.0954   11.8193  -15.4004 C   0  0  0  0  0  0  0  0  0  0  0  0
   36.0959   11.4736  -16.1592 O   0  0  0  0  0  0  0  0  0  0  0  0
   37.1860   12.1068  -15.8289 C   0  0  0  0  0  0  0  0  0  0  0  0
   36.8730   12.9077  -14.7982 N   0  0  0  0  0  0  0  0  0  0  0  0
   35.5719   12.7602  -14.4954 C   0  0  0  0  0  0  0  0  0  0  0  0
   38.4973   11.9812  -16.4474 C   0  0  0  0  0  0  0  0  0  0  0  0
   38.7359   11.2618  -17.5979 C   0  0  0  0  0  0  0  0  0  0  0  0
   39.9921   11.1644  -18.1609 C   0  0  0  0  0  0  0  0  0  0  0  0
   41.0754   11.7933  -17.5843 C   0  0  0  0  0  0  0  0  0  0  0  0
   40.8728   12.5264  -16.4256 C   0  0  0  0  0  0  0  0  0  0  0  0
   42.2237   13.3493  -15.6497 Cl  0  0  0  0  0  0  0  0  0  0  0  0
   39.6106   12.6103  -15.8808 C   0  0  0  0  0  0  0  0  0  0  0  0
 20 21  1  0  0  0
 21 22  1  0  0  0
 22 23  1  0  0  0
 23 26  1  0  0  0
 26 27  2  0  0  0
 27 28  1  0  0  0
 28 29  2  0  0  0
 29 30  1  0  0  0
 30 31  1  0  0  0
 30 32  2  0  0  0
 23 24  2  0  0  0
 24 25  1  0  0  0
 25 19  1  0  0  0
 19 18  1  0  0  0
 18  1  1  0  0  0
  1  2  1  0  0  0
  2  3  2  0  0  0
  3  4  1  0  0  0
  4  5  2  0  0  0
  5  8  1  0  0  0
  8  9  1  0  0  0
  9 14  1  0  0  0
 14 15  2  0  0  0
 14 16  1  0  0  0
  9 10  1  0  0  0
 10 11  1  0  0  0
 11 12  1  0  0  0
 12 13  1  0  0  0
  5  6  1  0  0  0
  6  7  2  0  0  0
 25 21  2  0  0  0
  7  2  1  0  0  0
 32 26  1  0  0  0
 13  9  1  0  0  0
 16 17  1  0  0  0
M  END
> <minimizedAffinity>
-7.80291

> <CNNscore>
0.2694406509

> <CNNaffinity>
5.9741325378

> <CNN_VS>
1.6096742153

> <CNNaffinity_variance>
0.1953720748

$$$$
[H]OC(=O)C1(C([H])([H])c2c([H])nc(OC([H])([H])C([H])([H])c3nc(-c4c([H])c([H])c([H])c(Cl)c4[H])oc3C([H])([H])[H])c([H])c2[H])OC([H])([H])C([H])([H])C1([H])[H]


 32 35  0  0  0  0  0  0  0  0999 V2000
   36.5657   14.5255  -11.0848 O   0  0  0  0  0  0  0  0  0  0  0  0
   35.9798   14.9153   -9.8930 C   0  0  0  0  0  0  0  0  0  0  0  0
   35.2883   16.1368   -9.8388 C   0  0  0  0  0  0  0  0  0  0  0  0
   34.6936   16.5511   -8.6624 C   0  0  0  0  0  0  0  0  0  0  0  0
   34.7548   15.7923   -7.5114 C   0  0  0  0  0  0  0  0  0  0  0  0
   35.4400   14.6123   -7.6165 C   0  0  0  0  0  0  0  0  0  0  0  0
   36.0140   14.2173   -8.7610 N   0  0  0  0  0  0  0  0  0  0  0  0
   34.1212   16.2324   -6.2687 C   0  0  0  0  0  0  0  0  0  0  0  0
   32.6762   15.9394   -6.0941 C   0  0  0  0  0  0  0  0  0  0  0  0
   32.1499   16.5769   -4.8169 C   0  0  0  0  0  0  0  0  0  0  0  0
   32.0616   18.0251   -5.2568 C   0  0  0  0  0  0  0  0  0  0  0  0
   31.7973   17.8958   -6.7169 C   0  0  0  0  0  0  0  0  0  0  0  0
   31.9775   16.5974   -7.1222 O   0  0  0  0  0  0  0  0  0  0  0  0
   32.2954   14.5138   -6.1706 C   0  0  0  0  0  0  0  0  0  0  0  0
   31.5058   14.0852   -7.0833 O   0  0  0  0  0  0  0  0  0  0  0  0
   32.7351   13.5346   -5.2950 O   0  0  0  0  0  0  0  0  0  0  0  0
   33.0279   12.6532   -5.6928 H   0  0  0  0  0  0  0  0  0  0  0  0
   35.9210   14.2932  -12.2994 C   0  0  0  0  0  0  0  0  0  0  0  0
   35.7207   12.7954  -12.4793 C   0  0  0  0  0  0  0  0  0  0  0  0
   33.9754   11.9596  -14.9730 C   0  0  0  0  0  0  0  0  0  0  0  0
   35.4553   12.0904  -14.9250 C   0  0  0  0  0  0  0  0  0  0  0  0
   36.2854   11.8789  -15.9061 O   0  0  0  0  0  0  0  0  0  0  0  0
   37.5193   12.0808  -15.5387 C   0  0  0  0  0  0  0  0  0  0  0  0
   37.4856   12.4437  -14.2468 N   0  0  0  0  0  0  0  0  0  0  0  0
   36.2113   12.4631  -13.8201 C   0  0  0  0  0  0  0  0  0  0  0  0
   38.7142   11.9435  -16.3580 C   0  0  0  0  0  0  0  0  0  0  0  0
   38.7530   11.2456  -17.5452 C   0  0  0  0  0  0  0  0  0  0  0  0
   39.9027   11.1362  -18.3005 C   0  0  0  0  0  0  0  0  0  0  0  0
   41.0771   11.7308  -17.8896 C   0  0  0  0  0  0  0  0  0  0  0  0
   41.0755   12.4415  -16.6996 C   0  0  0  0  0  0  0  0  0  0  0  0
   42.5498   13.2202  -16.1303 Cl  0  0  0  0  0  0  0  0  0  0  0  0
   39.9166   12.5378  -15.9616 C   0  0  0  0  0  0  0  0  0  0  0  0
 20 21  1  0  0  0
 21 22  1  0  0  0
 22 23  1  0  0  0
 23 26  1  0  0  0
 26 27  2  0  0  0
 27 28  1  0  0  0
 28 29  2  0  0  0
 29 30  1  0  0  0
 30 31  1  0  0  0
 30 32  2  0  0  0
 23 24  2  0  0  0
 24 25  1  0  0  0
 25 19  1  0  0  0
 19 18  1  0  0  0
 18  1  1  0  0  0
  1  2  1  0  0  0
  2  3  2  0  0  0
  3  4  1  0  0  0
  4  5  2  0  0  0
  5  8  1  0  0  0
  8  9  1  0  0  0
  9 14  1  0  0  0
 14 15  2  0  0  0
 14 16  1  0  0  0
  9 10  1  0  0  0
 10 11  1  0  0  0
 11 12  1  0  0  0
 12 13  1  0  0  0
  5  6  1  0  0  0
  6  7  2  0  0  0
 25 21  2  0  0  0
  7  2  1  0  0  0
 32 26  1  0  0  0
 13  9  1  0  0  0
 16 17  1  0  0  0
M  END
> <minimizedAffinity>
-8.51866

> <CNNscore>
0.2677904367

> <CNNaffinity>
5.8192844391

> <CNN_VS>
1.5583487749

> <CNNaffinity_variance>
0.2801961601

$$$$
[H]OC(=O)C1(C([H])([H])c2c([H])nc(OC([H])([H])C([H])([H])c3nc(-c4c([H])c([H])c([H])c(Cl)c4[H])oc3C([H])([H])[H])c([H])c2[H])OC([H])([H])C([H])([H])C1([H])[H]


 32 35  0  0  0  0  0  0  0  0999 V2000
   40.0685   14.7889  -14.3281 O   0  0  0  0  0  0  0  0  0  0  0  0
   39.5098   15.2118  -13.1345 C   0  0  0  0  0  0  0  0  0  0  0  0
   38.2511   14.7166  -12.7558 C   0  0  0  0  0  0  0  0  0  0  0  0
   37.6693   15.1214  -11.5696 C   0  0  0  0  0  0  0  0  0  0  0  0
   38.2929   16.0150  -10.7229 C   0  0  0  0  0  0  0  0  0  0  0  0
   39.5161   16.4678  -11.1375 C   0  0  0  0  0  0  0  0  0  0  0  0
   40.0737   16.0704  -12.2893 N   0  0  0  0  0  0  0  0  0  0  0  0
   37.6757   16.4387   -9.4664 C   0  0  0  0  0  0  0  0  0  0  0  0
   37.7762   15.5163   -8.3073 C   0  0  0  0  0  0  0  0  0  0  0  0
   39.1668   14.9044   -8.2274 C   0  0  0  0  0  0  0  0  0  0  0  0
   39.9473   16.0829   -7.6794 C   0  0  0  0  0  0  0  0  0  0  0  0
   38.9162   16.7991   -6.8780 C   0  0  0  0  0  0  0  0  0  0  0  0
   37.6697   16.2866   -7.1353 O   0  0  0  0  0  0  0  0  0  0  0  0
   36.7328   14.4736   -8.2231 C   0  0  0  0  0  0  0  0  0  0  0  0
   36.7976   13.5379   -7.3510 O   0  0  0  0  0  0  0  0  0  0  0  0
   35.6227   14.4038   -9.0487 O   0  0  0  0  0  0  0  0  0  0  0  0
   34.7330   14.2019   -8.6147 H   0  0  0  0  0  0  0  0  0  0  0  0
   40.8819   13.6731  -14.5242 C   0  0  0  0  0  0  0  0  0  0  0  0
   40.9998   13.3981  -16.0163 C   0  0  0  0  0  0  0  0  0  0  0  0
   40.7235   11.3461  -18.3988 C   0  0  0  0  0  0  0  0  0  0  0  0
   39.6544   11.7637  -17.4542 C   0  0  0  0  0  0  0  0  0  0  0  0
   38.4180   11.3545  -17.4513 O   0  0  0  0  0  0  0  0  0  0  0  0
   37.7335   11.9115  -16.4924 C   0  0  0  0  0  0  0  0  0  0  0  0
   38.5749   12.7271  -15.8375 N   0  0  0  0  0  0  0  0  0  0  0  0
   39.7910   12.6664  -16.4065 C   0  0  0  0  0  0  0  0  0  0  0  0
   36.3281   11.7011  -16.1786 C   0  0  0  0  0  0  0  0  0  0  0  0
   35.5315   10.7745  -16.8148 C   0  0  0  0  0  0  0  0  0  0  0  0
   34.2016   10.5978  -16.4917 C   0  0  0  0  0  0  0  0  0  0  0  0
   33.6082   11.3544  -15.5033 C   0  0  0  0  0  0  0  0  0  0  0  0
   34.3794   12.2969  -14.8414 C   0  0  0  0  0  0  0  0  0  0  0  0
   33.6692   13.2891  -13.5704 Cl  0  0  0  0  0  0  0  0  0  0  0  0
   35.7048   12.4566  -15.1800 C   0  0  0  0  0  0  0  0  0  0  0  0
 20 21  1  0  0  0
 21 22  1  0  0  0
 22 23  1  0  0  0
 23 26  1  0  0  0
 26 27  2  0  0  0
 27 28  1  0  0  0
 28 29  2  0  0  0
 29 30  1  0  0  0
 30 31  1  0  0  0
 30 32  2  0  0  0
 23 24  2  0  0  0
 24 25  1  0  0  0
 25 19  1  0  0  0
 19 18  1  0  0  0
 18  1  1  0  0  0
  1  2  1  0  0  0
  2  3  2  0  0  0
  3  4  1  0  0  0
  4  5  2  0  0  0
  5  8  1  0  0  0
  8  9  1  0  0  0
  9 14  1  0  0  0
 14 15  2  0  0  0
 14 16  1  0  0  0
  9 10  1  0  0  0
 10 11  1  0  0  0
 11 12  1  0  0  0
 12 13  1  0  0  0
  5  6  1  0  0  0
  6  7  2  0  0  0
 25 21  2  0  0  0
  7  2  1  0  0  0
 32 26  1  0  0  0
 13  9  1  0  0  0
 16 17  1  0  0  0
M  END
> <minimizedAffinity>
-8.88099

> <CNNscore>
0.2639188766

> <CNNaffinity>
6.1416912079

> <CNN_VS>
1.6209082603

> <CNNaffinity_variance>
0.4068686366

$$$$
[H]OC(=O)C1(C([H])([H])c2c([H])nc(OC([H])([H])C([H])([H])c3nc(-c4c([H])c([H])c([H])c(Cl)c4[H])oc3C([H])([H])[H])c([H])c2[H])OC([H])([H])C([H])([H])C1([H])[H]


 32 35  0  0  0  0  0  0  0  0999 V2000
   40.2963   14.7031  -14.7492 O   0  0  0  0  0  0  0  0  0  0  0  0
   39.6848   14.9534  -13.5330 C   0  0  0  0  0  0  0  0  0  0  0  0
   38.5257   14.2376  -13.1908 C   0  0  0  0  0  0  0  0  0  0  0  0
   37.8943   14.4667  -11.9833 C   0  0  0  0  0  0  0  0  0  0  0  0
   38.3707   15.3942  -11.0794 C   0  0  0  0  0  0  0  0  0  0  0  0
   39.5013   16.0648  -11.4602 C   0  0  0  0  0  0  0  0  0  0  0  0
   40.1079   15.8369  -12.6330 N   0  0  0  0  0  0  0  0  0  0  0  0
   37.7018   15.6318   -9.8005 C   0  0  0  0  0  0  0  0  0  0  0  0
   36.7808   16.7931   -9.7132 C   0  0  0  0  0  0  0  0  0  0  0  0
   35.8148   16.8015  -10.8886 C   0  0  0  0  0  0  0  0  0  0  0  0
   34.8673   15.6965  -10.4648 C   0  0  0  0  0  0  0  0  0  0  0  0
   34.9319   15.7780   -8.9789 C   0  0  0  0  0  0  0  0  0  0  0  0
   35.9563   16.6035   -8.5896 O   0  0  0  0  0  0  0  0  0  0  0  0
   37.4241   18.1127   -9.5467 C   0  0  0  0  0  0  0  0  0  0  0  0
   37.8666   18.4970   -8.4079 O   0  0  0  0  0  0  0  0  0  0  0  0
   37.6047   19.0335  -10.5657 O   0  0  0  0  0  0  0  0  0  0  0  0
   38.5024   19.4937  -10.6222 H   0  0  0  0  0  0  0  0  0  0  0  0
   40.9642   13.5389  -15.1280 C   0  0  0  0  0  0  0  0  0  0  0  0
   40.8354   13.3575  -16.6334 C   0  0  0  0  0  0  0  0  0  0  0  0
   40.4884   11.0137  -18.7189 C   0  0  0  0  0  0  0  0  0  0  0  0
   39.4603   11.5262  -17.7756 C   0  0  0  0  0  0  0  0  0  0  0  0
   38.2375   11.0956  -17.6513 O   0  0  0  0  0  0  0  0  0  0  0  0
   37.5902   11.7561  -16.7331 C   0  0  0  0  0  0  0  0  0  0  0  0
   38.4427   12.6654  -16.2349 N   0  0  0  0  0  0  0  0  0  0  0  0
   39.6279   12.5576  -16.8594 C   0  0  0  0  0  0  0  0  0  0  0  0
   36.2099   11.5589  -16.3165 C   0  0  0  0  0  0  0  0  0  0  0  0
   35.3612   10.6369  -16.8889 C   0  0  0  0  0  0  0  0  0  0  0  0
   34.0571   10.4726  -16.4686 C   0  0  0  0  0  0  0  0  0  0  0  0
   33.5439   11.2378  -15.4425 C   0  0  0  0  0  0  0  0  0  0  0  0
   34.3693   12.1759  -14.8427 C   0  0  0  0  0  0  0  0  0  0  0  0
   33.7622   13.1786  -13.5273 Cl  0  0  0  0  0  0  0  0  0  0  0  0
   35.6676   12.3231  -15.2782 C   0  0  0  0  0  0  0  0  0  0  0  0
 20 21  1  0  0  0
 21 22  1  0  0  0
 22 23  1  0  0  0
 23 26  1  0  0  0
 26 27  2  0  0  0
 27 28  1  0  0  0
 28 29  2  0  0  0
 29 30  1  0  0  0
 30 31  1  0  0  0
 30 32  2  0  0  0
 23 24  2  0  0  0
 24 25  1  0  0  0
 25 19  1  0  0  0
 19 18  1  0  0  0
 18  1  1  0  0  0
  1  2  1  0  0  0
  2  3  2  0  0  0
  3  4  1  0  0  0
  4  5  2  0  0  0
  5  8  1  0  0  0
  8  9  1  0  0  0
  9 14  1  0  0  0
 14 15  2  0  0  0
 14 16  1  0  0  0
  9 10  1  0  0  0
 10 11  1  0  0  0
 11 12  1  0  0  0
 12 13  1  0  0  0
  5  6  1  0  0  0
  6  7  2  0  0  0
 25 21  2  0  0  0
  7  2  1  0  0  0
 32 26  1  0  0  0
 13  9  1  0  0  0
 16 17  1  0  0  0
M  END
> <minimizedAffinity>
-8.85431

> <CNNscore>
0.2631613314

> <CNNaffinity>
6.1992034912

> <CNN_VS>
1.6313906908

> <CNNaffinity_variance>
0.4942258894

$$$$
[H]OC(=O)C1(C([H])([H])c2c([H])nc(OC([H])([H])C([H])([H])c3nc(-c4c([H])c([H])c([H])c(Cl)c4[H])oc3C([H])([H])[H])c([H])c2[H])OC([H])([H])C([H])([H])C1([H])[H]


 32 35  0  0  0  0  0  0  0  0999 V2000
   35.6920   14.8910  -11.3495 O   0  0  0  0  0  0  0  0  0  0  0  0
   35.7122   15.0903   -9.9800 C   0  0  0  0  0  0  0  0  0  0  0  0
   35.1362   16.2569   -9.4506 C   0  0  0  0  0  0  0  0  0  0  0  0
   35.1420   16.4820   -8.0873 C   0  0  0  0  0  0  0  0  0  0  0  0
   35.7057   15.5828   -7.2053 C   0  0  0  0  0  0  0  0  0  0  0  0
   36.2537   14.4636   -7.7710 C   0  0  0  0  0  0  0  0  0  0  0  0
   36.2441   14.2523   -9.0942 N   0  0  0  0  0  0  0  0  0  0  0  0
   35.7070   15.8226   -5.7624 C   0  0  0  0  0  0  0  0  0  0  0  0
   36.1159   14.7002   -4.8807 C   0  0  0  0  0  0  0  0  0  0  0  0
   37.5061   14.2055   -5.2515 C   0  0  0  0  0  0  0  0  0  0  0  0
   38.3525   15.3138   -4.6569 C   0  0  0  0  0  0  0  0  0  0  0  0
   37.5190   15.7657   -3.5081 C   0  0  0  0  0  0  0  0  0  0  0  0
   36.2665   15.2102   -3.5786 O   0  0  0  0  0  0  0  0  0  0  0  0
   35.1614   13.5764   -4.7860 C   0  0  0  0  0  0  0  0  0  0  0  0
   35.5263   12.4303   -4.3459 O   0  0  0  0  0  0  0  0  0  0  0  0
   33.8272   13.6453   -5.1517 O   0  0  0  0  0  0  0  0  0  0  0  0
   33.1523   13.2251   -4.5281 H   0  0  0  0  0  0  0  0  0  0  0  0
   36.5402   15.4693  -12.2935 C   0  0  0  0  0  0  0  0  0  0  0  0
   37.9682   15.4343  -11.7686 C   0  0  0  0  0  0  0  0  0  0  0  0
   40.9629   16.2240  -12.3776 C   0  0  0  0  0  0  0  0  0  0  0  0
   40.1222   15.2639  -13.1398 C   0  0  0  0  0  0  0  0  0  0  0  0
   40.4790   14.5858  -14.1930 O   0  0  0  0  0  0  0  0  0  0  0  0
   39.5089   13.8305  -14.6251 C   0  0  0  0  0  0  0  0  0  0  0  0
   38.4655   14.0309  -13.8048 N   0  0  0  0  0  0  0  0  0  0  0  0
   38.8048   14.9226  -12.8582 C   0  0  0  0  0  0  0  0  0  0  0  0
   39.5353   12.9368  -15.7733 C   0  0  0  0  0  0  0  0  0  0  0  0
   40.6413   12.7495  -16.5731 C   0  0  0  0  0  0  0  0  0  0  0  0
   40.6343   11.8920  -17.6544 C   0  0  0  0  0  0  0  0  0  0  0  0
   39.5013   11.1776  -17.9820 C   0  0  0  0  0  0  0  0  0  0  0  0
   38.3691   11.3407  -17.1993 C   0  0  0  0  0  0  0  0  0  0  0  0
   36.8957   10.4509  -17.5753 Cl  0  0  0  0  0  0  0  0  0  0  0  0
   38.3983   12.2019  -16.1248 C   0  0  0  0  0  0  0  0  0  0  0  0
 20 21  1  0  0  0
 21 22  1  0  0  0
 22 23  1  0  0  0
 23 26  1  0  0  0
 26 27  2  0  0  0
 27 28  1  0  0  0
 28 29  2  0  0  0
 29 30  1  0  0  0
 30 31  1  0  0  0
 30 32  2  0  0  0
 23 24  2  0  0  0
 24 25  1  0  0  0
 25 19  1  0  0  0
 19 18  1  0  0  0
 18  1  1  0  0  0
  1  2  1  0  0  0
  2  3  2  0  0  0
  3  4  1  0  0  0
  4  5  2  0  0  0
  5  8  1  0  0  0
  8  9  1  0  0  0
  9 14  1  0  0  0
 14 15  2  0  0  0
 14 16  1  0  0  0
  9 10  1  0  0  0
 10 11  1  0  0  0
 11 12  1  0  0  0
 12 13  1  0  0  0
  5  6  1  0  0  0
  6  7  2  0  0  0
 25 21  2  0  0  0
  7  2  1  0  0  0
 32 26  1  0  0  0
 13  9  1  0  0  0
 16 17  1  0  0  0
M  END
> <minimizedAffinity>
-8.54688

> <CNNscore>
0.2585867941

> <CNNaffinity>
5.5892868042

> <CNN_VS>
1.4453157187

> <CNNaffinity_variance>
0.2734063268

$$$$
[H]OC(=O)C1(C([H])([H])c2c([H])nc(OC([H])([H])C([H])([H])c3nc(-c4c([H])c([H])c([H])c(Cl)c4[H])oc3C([H])([H])[H])c([H])c2[H])OC([H])([H])C([H])([H])C1([H])[H]


 32 35  0  0  0  0  0  0  0  0999 V2000
   40.2727   15.3938  -13.8939 O   0  0  0  0  0  0  0  0  0  0  0  0
   39.9593   15.6928  -12.5794 C   0  0  0  0  0  0  0  0  0  0  0  0
   40.9927   16.0320  -11.6905 C   0  0  0  0  0  0  0  0  0  0  0  0
   40.7090   16.3352  -10.3726 C   0  0  0  0  0  0  0  0  0  0  0  0
   39.4182   16.3169   -9.8851 C   0  0  0  0  0  0  0  0  0  0  0  0
   38.4486   15.9799  -10.7902 C   0  0  0  0  0  0  0  0  0  0  0  0
   38.7317   15.6873  -12.0668 N   0  0  0  0  0  0  0  0  0  0  0  0
   39.1210   16.6417   -8.4902 C   0  0  0  0  0  0  0  0  0  0  0  0
   38.5714   15.5591   -7.6357 C   0  0  0  0  0  0  0  0  0  0  0  0
   39.4034   14.2927   -7.7725 C   0  0  0  0  0  0  0  0  0  0  0  0
   40.6141   14.6765   -6.9447 C   0  0  0  0  0  0  0  0  0  0  0  0
   40.0285   15.6115   -5.9439 C   0  0  0  0  0  0  0  0  0  0  0  0
   38.7437   15.9424   -6.2934 O   0  0  0  0  0  0  0  0  0  0  0  0
   37.1331   15.2696   -7.8105 C   0  0  0  0  0  0  0  0  0  0  0  0
   36.2554   16.1999   -7.7439 O   0  0  0  0  0  0  0  0  0  0  0  0
   36.6084   14.0107   -8.0525 O   0  0  0  0  0  0  0  0  0  0  0  0
   35.8927   13.9342   -8.7616 H   0  0  0  0  0  0  0  0  0  0  0  0
   41.4170   14.7441  -14.3560 C   0  0  0  0  0  0  0  0  0  0  0  0
   41.2277   13.2406  -14.2158 C   0  0  0  0  0  0  0  0  0  0  0  0
   40.8768   12.5818  -17.2827 C   0  0  0  0  0  0  0  0  0  0  0  0
   39.8068   12.6196  -16.2516 C   0  0  0  0  0  0  0  0  0  0  0  0
   38.5388   12.3893  -16.4400 O   0  0  0  0  0  0  0  0  0  0  0  0
   37.8637   12.5022  -15.3311 C   0  0  0  0  0  0  0  0  0  0  0  0
   38.7448   12.8235  -14.3708 N   0  0  0  0  0  0  0  0  0  0  0  0
   39.9761   12.9080  -14.9028 C   0  0  0  0  0  0  0  0  0  0  0  0
   36.4312   12.3190  -15.1515 C   0  0  0  0  0  0  0  0  0  0  0  0
   35.7276   12.7974  -14.0679 C   0  0  0  0  0  0  0  0  0  0  0  0
   34.3677   12.6086  -13.9284 C   0  0  0  0  0  0  0  0  0  0  0  0
   33.6482   11.9222  -14.8837 C   0  0  0  0  0  0  0  0  0  0  0  0
   34.3231   11.4263  -15.9880 C   0  0  0  0  0  0  0  0  0  0  0  0
   33.4501   10.5423  -17.2372 Cl  0  0  0  0  0  0  0  0  0  0  0  0
   35.6806   11.6262  -16.1070 C   0  0  0  0  0  0  0  0  0  0  0  0
 20 21  1  0  0  0
 21 22  1  0  0  0
 22 23  1  0  0  0
 23 26  1  0  0  0
 26 27  2  0  0  0
 27 28  1  0  0  0
 28 29  2  0  0  0
 29 30  1  0  0  0
 30 31  1  0  0  0
 30 32  2  0  0  0
 23 24  2  0  0  0
 24 25  1  0  0  0
 25 19  1  0  0  0
 19 18  1  0  0  0
 18  1  1  0  0  0
  1  2  1  0  0  0
  2  3  2  0  0  0
  3  4  1  0  0  0
  4  5  2  0  0  0
  5  8  1  0  0  0
  8  9  1  0  0  0
  9 14  1  0  0  0
 14 15  2  0  0  0
 14 16  1  0  0  0
  9 10  1  0  0  0
 10 11  1  0  0  0
 11 12  1  0  0  0
 12 13  1  0  0  0
  5  6  1  0  0  0
  6  7  2  0  0  0
 25 21  2  0  0  0
  7  2  1  0  0  0
 32 26  1  0  0  0
 13  9  1  0  0  0
 16 17  1  0  0  0
M  END
> <minimizedAffinity>
-7.33180

> <CNNscore>
0.2541790307

> <CNNaffinity>
6.2249941826

> <CNN_VS>
1.5822629929

> <CNNaffinity_variance>
0.2440454513

$$$$
[H]OC(=O)C1(C([H])([H])c2c([H])nc(OC([H])([H])C([H])([H])c3nc(-c4c([H])c([H])c([H])c(Cl)c4[H])oc3C([H])([H])[H])c([H])c2[H])OC([H])([H])C([H])([H])C1([H])[H]


 32 35  0  0  0  0  0  0  0  0999 V2000
   34.8562   14.3031  -14.1361 O   0  0  0  0  0  0  0  0  0  0  0  0
   35.4401   14.6030  -12.9176 C   0  0  0  0  0  0  0  0  0  0  0  0
   34.6595   15.2009  -11.9145 C   0  0  0  0  0  0  0  0  0  0  0  0
   35.2160   15.5113  -10.6884 C   0  0  0  0  0  0  0  0  0  0  0  0
   36.5411   15.2499  -10.4055 C   0  0  0  0  0  0  0  0  0  0  0  0
   37.2580   14.6678  -11.4155 C   0  0  0  0  0  0  0  0  0  0  0  0
   36.7111   14.3698  -12.6019 N   0  0  0  0  0  0  0  0  0  0  0  0
   37.1261   15.5766   -9.1053 C   0  0  0  0  0  0  0  0  0  0  0  0
   37.4107   17.0057   -8.8205 C   0  0  0  0  0  0  0  0  0  0  0  0
   36.1650   17.7078   -8.3011 C   0  0  0  0  0  0  0  0  0  0  0  0
   36.1265   17.1716   -6.8835 C   0  0  0  0  0  0  0  0  0  0  0  0
   37.5693   16.9419   -6.5937 C   0  0  0  0  0  0  0  0  0  0  0  0
   38.3118   17.0572   -7.7418 O   0  0  0  0  0  0  0  0  0  0  0  0
   38.0288   17.7703   -9.9234 C   0  0  0  0  0  0  0  0  0  0  0  0
   39.1518   17.4176  -10.4284 O   0  0  0  0  0  0  0  0  0  0  0  0
   37.4787   18.9037  -10.4991 O   0  0  0  0  0  0  0  0  0  0  0  0
   37.5001   18.9698  -11.5070 H   0  0  0  0  0  0  0  0  0  0  0  0
   33.7468   13.4871  -14.3560 C   0  0  0  0  0  0  0  0  0  0  0  0
   34.1639   12.0302  -14.2168 C   0  0  0  0  0  0  0  0  0  0  0  0
   33.4904   10.7664  -17.0297 C   0  0  0  0  0  0  0  0  0  0  0  0
   34.8272   11.1986  -16.5443 C   0  0  0  0  0  0  0  0  0  0  0  0
   35.9512   11.1261  -17.1983 O   0  0  0  0  0  0  0  0  0  0  0  0
   36.9443   11.5889  -16.4928 C   0  0  0  0  0  0  0  0  0  0  0  0
   36.4339   11.9835  -15.3156 N   0  0  0  0  0  0  0  0  0  0  0  0
   35.1091   11.7573  -15.3035 C   0  0  0  0  0  0  0  0  0  0  0  0
   38.3422   11.6695  -16.8894 C   0  0  0  0  0  0  0  0  0  0  0  0
   38.8489   11.0899  -18.0318 C   0  0  0  0  0  0  0  0  0  0  0  0
   40.1805   11.1869  -18.3812 C   0  0  0  0  0  0  0  0  0  0  0  0
   41.0705   11.8789  -17.5871 C   0  0  0  0  0  0  0  0  0  0  0  0
   40.5960   12.4753  -16.4294 C   0  0  0  0  0  0  0  0  0  0  0  0
   41.6920   13.3711  -15.3804 Cl  0  0  0  0  0  0  0  0  0  0  0  0
   39.2631   12.3658  -16.0999 C   0  0  0  0  0  0  0  0  0  0  0  0
 20 21  1  0  0  0
 21 22  1  0  0  0
 22 23  1  0  0  0
 23 26  1  0  0  0
 26 27  2  0  0  0
 27 28  1  0  0  0
 28 29  2  0  0  0
 29 30  1  0  0  0
 30 31  1  0  0  0
 30 32  2  0  0  0
 23 24  2  0  0  0
 24 25  1  0  0  0
 25 19  1  0  0  0
 19 18  1  0  0  0
 18  1  1  0  0  0
  1  2  1  0  0  0
  2  3  2  0  0  0
  3  4  1  0  0  0
  4  5  2  0  0  0
  5  8  1  0  0  0
  8  9  1  0  0  0
  9 14  1  0  0  0
 14 15  2  0  0  0
 14 16  1  0  0  0
  9 10  1  0  0  0
 10 11  1  0  0  0
 11 12  1  0  0  0
 12 13  1  0  0  0
  5  6  1  0  0  0
  6  7  2  0  0  0
 25 21  2  0  0  0
  7  2  1  0  0  0
 32 26  1  0  0  0
 13  9  1  0  0  0
 16 17  1  0  0  0
M  END
> <minimizedAffinity>
-9.03362

> <CNNscore>
0.2344072312

> <CNNaffinity>
6.1506576538

> <CNN_VS>
1.4417586327

> <CNNaffinity_variance>
0.3508587480

$$$$
[H]OC(=O)C([H])([H])c1c([H])c([H])c(Oc2c([H])c([H])c(C(=O)N([H])C([H])(C([H])([H])[H])C([H])([H])[H])c([H])c2N([H])S(=O)(=O)c2c([H])c([H])c(Cl)c([H])c2Cl)c(OC([H])([H])[H])c1[H]


 40 42  0  0  0  0  0  0  0  0999 V2000
   36.1923   15.9660  -11.2602 C   0  0  0  0  0  0  0  0  0  0  0  0
   36.9784   16.4996  -10.2755 C   0  0  0  0  0  0  0  0  0  0  0  0
   38.3544   16.5424  -10.3886 C   0  0  0  0  0  0  0  0  0  0  0  0
   38.9595   16.0398  -11.5122 C   0  0  0  0  0  0  0  0  0  0  0  0
   38.1573   15.5041  -12.4977 C   0  0  0  0  0  0  0  0  0  0  0  0
   36.7894   15.4427  -12.4241 C   0  0  0  0  0  0  0  0  0  0  0  0
   40.4186   16.0706  -11.6735 C   0  0  0  0  0  0  0  0  0  0  0  0
   40.8781   16.7804  -12.6209 O   0  0  0  0  0  0  0  0  0  0  0  0
   41.2662   15.3517  -10.8229 N   0  0  0  0  0  0  0  0  0  0  0  0
   40.9179   14.7747  -10.0499 H   0  0  0  0  0  0  0  0  0  0  0  0
   42.7046   15.4188  -11.0301 C   0  0  0  0  0  0  0  0  0  0  0  0
   43.2597   16.2611   -9.8944 C   0  0  0  0  0  0  0  0  0  0  0  0
   43.2947   14.0415  -11.0487 C   0  0  0  0  0  0  0  0  0  0  0  0
   35.9475   14.8827  -13.4230 N   0  0  0  0  0  0  0  0  0  0  0  0
   35.5744   15.5120  -14.1867 H   0  0  0  0  0  0  0  0  0  0  0  0
   35.5588   13.2152  -13.3667 S   0  0  0  0  0  0  0  0  0  0  0  0
   36.1766   12.5267  -12.1548 O   0  0  0  0  0  0  0  0  0  0  0  0
   34.0342   13.0964  -13.2480 O   0  0  0  0  0  0  0  0  0  0  0  0
   36.0566   12.4298  -14.8446 C   0  0  0  0  0  0  0  0  0  0  0  0
   35.1252   11.9790  -15.7352 C   0  0  0  0  0  0  0  0  0  0  0  0
   35.6029   11.3377  -16.8865 C   0  0  0  0  0  0  0  0  0  0  0  0
   36.9388   11.1582  -17.1304 C   0  0  0  0  0  0  0  0  0  0  0  0
   37.5085   10.3577  -18.5701 Cl  0  0  0  0  0  0  0  0  0  0  0  0
   37.8308   11.6309  -16.2004 C   0  0  0  0  0  0  0  0  0  0  0  0
   37.4262   12.2633  -15.0613 C   0  0  0  0  0  0  0  0  0  0  0  0
   38.5728   12.8738  -13.8609 Cl  0  0  0  0  0  0  0  0  0  0  0  0
   34.8165   15.9250  -11.1494 O   0  0  0  0  0  0  0  0  0  0  0  0
   32.7102   15.7051   -9.9691 C   0  0  0  0  0  0  0  0  0  0  0  0
   32.0581   15.5720   -8.7534 C   0  0  0  0  0  0  0  0  0  0  0  0
   32.7236   15.5205   -7.5394 C   0  0  0  0  0  0  0  0  0  0  0  0
   34.1003   15.6078   -7.5662 C   0  0  0  0  0  0  0  0  0  0  0  0
   34.7691   15.7410   -8.7639 C   0  0  0  0  0  0  0  0  0  0  0  0
   34.0877   15.7928   -9.9904 C   0  0  0  0  0  0  0  0  0  0  0  0
   30.8203   14.9465  -11.2911 C   0  0  0  0  0  0  0  0  0  0  0  0
   31.9859   15.7481  -11.1630 O   0  0  0  0  0  0  0  0  0  0  0  0
   32.0102   15.3773   -6.2409 C   0  0  0  0  0  0  0  0  0  0  0  0
   32.3238   14.0587   -5.6358 C   0  0  0  0  0  0  0  0  0  0  0  0
   33.2754   13.8436   -4.8594 O   0  0  0  0  0  0  0  0  0  0  0  0
   31.4756   12.9940   -5.9764 O   0  0  0  0  0  0  0  0  0  0  0  0
   30.4913   13.0764   -5.7746 H   0  0  0  0  0  0  0  0  0  0  0  0
 34 35  1  0  0  0
 35 28  1  0  0  0
 28 29  2  0  0  0
 29 30  1  0  0  0
 30 36  1  0  0  0
 36 37  1  0  0  0
 37 38  2  0  0  0
 37 39  1  0  0  0
 30 31  2  0  0  0
 31 32  1  0  0  0
 32 33  2  0  0  0
 33 27  1  0  0  0
 27  1  1  0  0  0
  1  2  2  0  0  0
  2  3  1  0  0  0
  3  4  2  0  0  0
  4  7  1  0  0  0
  7  8  2  0  0  0
  7  9  1  0  0  0
  9 11  1  0  0  0
 11 12  1  0  0  0
 11 13  1  0  0  0
  4  5  1  0  0  0
  5  6  2  0  0  0
  6 14  1  0  0  0
 14 16  1  0  0  0
 16 17  2  0  0  0
 16 18  2  0  0  0
 16 19  1  0  0  0
 19 20  2  0  0  0
 20 21  1  0  0  0
 21 22  2  0  0  0
 22 23  1  0  0  0
 22 24  1  0  0  0
 24 25  2  0  0  0
 25 26  1  0  0  0
 33 28  1  0  0  0
  6  1  1  0  0  0
 25 19  1  0  0  0
 39 40  1  0  0  0
  9 10  1  0  0  0
 14 15  1  0  0  0
M  END
> <minimizedAffinity>
-9.06368

> <CNNscore>
0.2326109856

> <CNNaffinity>
6.7359228134

> <CNN_VS>
1.5668495893

> <CNNaffinity_variance>
0.2728314102

$$$$
[H]OC(=O)C([H])([H])c1c([H])c([H])c(Oc2c([H])c([H])c(C(=O)N([H])C([H])(C([H])([H])[H])C([H])([H])[H])c([H])c2N([H])S(=O)(=O)c2c([H])c([H])c(Cl)c([H])c2Cl)c(OC([H])([H])[H])c1[H]


 40 42  0  0  0  0  0  0  0  0999 V2000
   38.2367   15.4899  -11.5779 C   0  0  0  0  0  0  0  0  0  0  0  0
   38.6513   15.7577  -10.3017 C   0  0  0  0  0  0  0  0  0  0  0  0
   37.8795   15.4300   -9.2041 C   0  0  0  0  0  0  0  0  0  0  0  0
   36.6643   14.8204   -9.3857 C   0  0  0  0  0  0  0  0  0  0  0  0
   36.2567   14.5559  -10.6764 C   0  0  0  0  0  0  0  0  0  0  0  0
   36.9922   14.8648  -11.7915 C   0  0  0  0  0  0  0  0  0  0  0  0
   35.8160   14.4514   -8.2456 C   0  0  0  0  0  0  0  0  0  0  0  0
   36.3027   13.6306   -7.4078 O   0  0  0  0  0  0  0  0  0  0  0  0
   34.5295   14.9793   -8.0870 N   0  0  0  0  0  0  0  0  0  0  0  0
   34.1172   15.6454   -8.7489 H   0  0  0  0  0  0  0  0  0  0  0  0
   33.7330   14.5774   -6.9378 C   0  0  0  0  0  0  0  0  0  0  0  0
   33.9827   15.6194   -5.8613 C   0  0  0  0  0  0  0  0  0  0  0  0
   32.2843   14.4906   -7.3107 C   0  0  0  0  0  0  0  0  0  0  0  0
   36.5830   14.6122  -13.1291 N   0  0  0  0  0  0  0  0  0  0  0  0
   36.8710   15.2910  -13.8871 H   0  0  0  0  0  0  0  0  0  0  0  0
   35.6395   13.2258  -13.4793 S   0  0  0  0  0  0  0  0  0  0  0  0
   35.6008   12.2518  -12.3070 O   0  0  0  0  0  0  0  0  0  0  0  0
   34.2042   13.6953  -13.7476 O   0  0  0  0  0  0  0  0  0  0  0  0
   36.2366   12.4379  -14.9185 C   0  0  0  0  0  0  0  0  0  0  0  0
   37.5333   12.6063  -15.3112 C   0  0  0  0  0  0  0  0  0  0  0  0
   37.9307   11.9607  -16.4903 C   0  0  0  0  0  0  0  0  0  0  0  0
   37.0760   11.1905  -17.2336 C   0  0  0  0  0  0  0  0  0  0  0  0
   37.5940   10.3972  -18.6966 Cl  0  0  0  0  0  0  0  0  0  0  0  0
   35.7833   11.0564  -16.7921 C   0  0  0  0  0  0  0  0  0  0  0  0
   35.3384   11.6600  -15.6525 C   0  0  0  0  0  0  0  0  0  0  0  0
   33.6734   11.4893  -15.0805 Cl  0  0  0  0  0  0  0  0  0  0  0  0
   39.0086   15.8147  -12.6759 O   0  0  0  0  0  0  0  0  0  0  0  0
   41.4056   15.4828  -12.5277 C   0  0  0  0  0  0  0  0  0  0  0  0
   42.5252   14.8107  -12.9923 C   0  0  0  0  0  0  0  0  0  0  0  0
   42.4721   13.8532  -13.9922 C   0  0  0  0  0  0  0  0  0  0  0  0
   41.2359   13.5718  -14.5364 C   0  0  0  0  0  0  0  0  0  0  0  0
   40.1095   14.2285  -14.0897 C   0  0  0  0  0  0  0  0  0  0  0  0
   40.1712   15.1981  -13.0761 C   0  0  0  0  0  0  0  0  0  0  0  0
   42.3173   16.1420  -10.3761 C   0  0  0  0  0  0  0  0  0  0  0  0
   41.5197   16.4372  -11.5137 O   0  0  0  0  0  0  0  0  0  0  0  0
   43.6829   13.1389  -14.4815 C   0  0  0  0  0  0  0  0  0  0  0  0
   44.8527   14.0522  -14.4545 C   0  0  0  0  0  0  0  0  0  0  0  0
   45.7415   14.0396  -13.5801 O   0  0  0  0  0  0  0  0  0  0  0  0
   44.9433   14.9872  -15.4968 O   0  0  0  0  0  0  0  0  0  0  0  0
   44.9755   14.6508  -16.4467 H   0  0  0  0  0  0  0  0  0  0  0  0
 34 35  1  0  0  0
 35 28  1  0  0  0
 28 29  2  0  0  0
 29 30  1  0  0  0
 30 36  1  0  0  0
 36 37  1  0  0  0
 37 38  2  0  0  0
 37 39  1  0  0  0
 30 31  2  0  0  0
 31 32  1  0  0  0
 32 33  2  0  0  0
 33 27  1  0  0  0
 27  1  1  0  0  0
  1  2  2  0  0  0
  2  3  1  0  0  0
  3  4  2  0  0  0
  4  7  1  0  0  0
  7  8  2  0  0  0
  7  9  1  0  0  0
  9 11  1  0  0  0
 11 12  1  0  0  0
 11 13  1  0  0  0
  4  5  1  0  0  0
  5  6  2  0  0  0
  6 14  1  0  0  0
 14 16  1  0  0  0
 16 17  2  0  0  0
 16 18  2  0  0  0
 16 19  1  0  0  0
 19 20  2  0  0  0
 20 21  1  0  0  0
 21 22  2  0  0  0
 22 23  1  0  0  0
 22 24  1  0  0  0
 24 25  2  0  0  0
 25 26  1  0  0  0
 33 28  1  0  0  0
  6  1  1  0  0  0
 25 19  1  0  0  0
 39 40  1  0  0  0
  9 10  1  0  0  0
 14 15  1  0  0  0
M  END
> <minimizedAffinity>
-9.02752

> <CNNscore>
0.1840760708

> <CNNaffinity>
6.7714052200

> <CNN_VS>
1.2464536428

> <CNNaffinity_variance>
0.3428835273

$$$$
[H]OC(=O)C([H])([H])c1c([H])c([H])c(Oc2c([H])c([H])c(C(=O)N([H])C([H])(C([H])([H])[H])C([H])([H])[H])c([H])c2N([H])S(=O)(=O)c2c([H])c([H])c(Cl)c([H])c2Cl)c(OC([H])([H])[H])c1[H]


 40 42  0  0  0  0  0  0  0  0999 V2000
   36.8653   15.8150  -11.6579 C   0  0  0  0  0  0  0  0  0  0  0  0
   36.9337   16.4118  -10.4285 C   0  0  0  0  0  0  0  0  0  0  0  0
   35.8423   16.4598   -9.5833 C   0  0  0  0  0  0  0  0  0  0  0  0
   34.6540   15.8984   -9.9758 C   0  0  0  0  0  0  0  0  0  0  0  0
   34.5968   15.3001  -11.2171 C   0  0  0  0  0  0  0  0  0  0  0  0
   35.6562   15.2314  -12.0849 C   0  0  0  0  0  0  0  0  0  0  0  0
   33.4719   15.9237   -9.1053 C   0  0  0  0  0  0  0  0  0  0  0  0
   33.4922   16.7375   -8.1306 O   0  0  0  0  0  0  0  0  0  0  0  0
   32.3717   15.0903   -9.3373 N   0  0  0  0  0  0  0  0  0  0  0  0
   32.3321   14.4279  -10.1194 H   0  0  0  0  0  0  0  0  0  0  0  0
   31.2276   15.1577   -8.4414 C   0  0  0  0  0  0  0  0  0  0  0  0
   29.9987   14.9175   -9.3012 C   0  0  0  0  0  0  0  0  0  0  0  0
   31.3577   14.1391   -7.3501 C   0  0  0  0  0  0  0  0  0  0  0  0
   35.6126   14.6312  -13.3726 N   0  0  0  0  0  0  0  0  0  0  0  0
   35.9107   15.2020  -14.2114 H   0  0  0  0  0  0  0  0  0  0  0  0
   35.0815   13.0105  -13.5348 S   0  0  0  0  0  0  0  0  0  0  0  0
   35.4273   12.1722  -12.3092 O   0  0  0  0  0  0  0  0  0  0  0  0
   33.5541   13.0329  -13.6729 O   0  0  0  0  0  0  0  0  0  0  0  0
   35.7524   12.2980  -14.9808 C   0  0  0  0  0  0  0  0  0  0  0  0
   34.9397   11.9508  -16.0213 C   0  0  0  0  0  0  0  0  0  0  0  0
   35.5501   11.3620  -17.1374 C   0  0  0  0  0  0  0  0  0  0  0  0
   36.8990   11.1339  -17.2058 C   0  0  0  0  0  0  0  0  0  0  0  0
   37.6351   10.4004  -18.6051 Cl  0  0  0  0  0  0  0  0  0  0  0  0
   37.6681   11.5024  -16.1303 C   0  0  0  0  0  0  0  0  0  0  0  0
   37.1314   12.0795  -15.0168 C   0  0  0  0  0  0  0  0  0  0  0  0
   38.1195   12.5557  -13.6292 Cl  0  0  0  0  0  0  0  0  0  0  0  0
   37.9566   15.7642  -12.5026 O   0  0  0  0  0  0  0  0  0  0  0  0
   40.3070   15.4395  -13.0006 C   0  0  0  0  0  0  0  0  0  0  0  0
   41.6154   15.4711  -12.5444 C   0  0  0  0  0  0  0  0  0  0  0  0
   41.9564   15.8203  -11.2478 C   0  0  0  0  0  0  0  0  0  0  0  0
   40.9286   16.1480  -10.3877 C   0  0  0  0  0  0  0  0  0  0  0  0
   39.6202   16.1227  -10.8201 C   0  0  0  0  0  0  0  0  0  0  0  0
   39.2822   15.7674  -12.1358 C   0  0  0  0  0  0  0  0  0  0  0  0
   40.8130   14.0826  -14.9494 C   0  0  0  0  0  0  0  0  0  0  0  0
   40.0234   15.0824  -14.3212 O   0  0  0  0  0  0  0  0  0  0  0  0
   43.3663   15.8502  -10.7714 C   0  0  0  0  0  0  0  0  0  0  0  0
   43.9425   14.4830  -10.8148 C   0  0  0  0  0  0  0  0  0  0  0  0
   44.9920   14.1750  -11.4132 O   0  0  0  0  0  0  0  0  0  0  0  0
   43.2387   13.4830  -10.1264 O   0  0  0  0  0  0  0  0  0  0  0  0
   43.0762   13.5991   -9.1383 H   0  0  0  0  0  0  0  0  0  0  0  0
 34 35  1  0  0  0
 35 28  1  0  0  0
 28 29  2  0  0  0
 29 30  1  0  0  0
 30 36  1  0  0  0
 36 37  1  0  0  0
 37 38  2  0  0  0
 37 39  1  0  0  0
 30 31  2  0  0  0
 31 32  1  0  0  0
 32 33  2  0  0  0
 33 27  1  0  0  0
 27  1  1  0  0  0
  1  2  2  0  0  0
  2  3  1  0  0  0
  3  4  2  0  0  0
  4  7  1  0  0  0
  7  8  2  0  0  0
  7  9  1  0  0  0
  9 11  1  0  0  0
 11 12  1  0  0  0
 11 13  1  0  0  0
  4  5  1  0  0  0
  5  6  2  0  0  0
  6 14  1  0  0  0
 14 16  1  0  0  0
 16 17  2  0  0  0
 16 18  2  0  0  0
 16 19  1  0  0  0
 19 20  2  0  0  0
 20 21  1  0  0  0
 21 22  2  0  0  0
 22 23  1  0  0  0
 22 24  1  0  0  0
 24 25  2  0  0  0
 25 26  1  0  0  0
 33 28  1  0  0  0
  6  1  1  0  0  0
 25 19  1  0  0  0
 39 40  1  0  0  0
  9 10  1  0  0  0
 14 15  1  0  0  0
M  END
> <minimizedAffinity>
-8.82193

> <CNNscore>
0.1708638817

> <CNNaffinity>
6.8210244179

> <CNN_VS>
1.1654666662

> <CNNaffinity_variance>
0.2686906457

$$$$
[H]OC(=O)C([H])([H])c1c([H])c([H])c(Oc2c([H])c([H])c(C(=O)N([H])C([H])(C([H])([H])[H])C([H])([H])[H])c([H])c2N([H])S(=O)(=O)c2c([H])c([H])c(Cl)c([H])c2Cl)c(OC([H])([H])[H])c1[H]


 40 42  0  0  0  0  0  0  0  0999 V2000
   40.9612   13.5840  -15.1093 C   0  0  0  0  0  0  0  0  0  0  0  0
   41.5296   13.0278  -16.2228 C   0  0  0  0  0  0  0  0  0  0  0  0
   42.8794   12.7409  -16.2824 C   0  0  0  0  0  0  0  0  0  0  0  0
   43.6806   13.0165  -15.2038 C   0  0  0  0  0  0  0  0  0  0  0  0
   43.0969   13.5775  -14.0873 C   0  0  0  0  0  0  0  0  0  0  0  0
   41.7625   13.8771  -13.9882 C   0  0  0  0  0  0  0  0  0  0  0  0
   45.1190   12.7224  -15.2248 C   0  0  0  0  0  0  0  0  0  0  0  0
   45.5298   11.9220  -16.1209 O   0  0  0  0  0  0  0  0  0  0  0  0
   45.9991   13.2971  -14.3007 N   0  0  0  0  0  0  0  0  0  0  0  0
   45.6904   13.9480  -13.5706 H   0  0  0  0  0  0  0  0  0  0  0  0
   47.4147   12.9689  -14.3683 C   0  0  0  0  0  0  0  0  0  0  0  0
   48.1345   14.2588  -14.7221 C   0  0  0  0  0  0  0  0  0  0  0  0
   47.8832   12.4041  -13.0618 C   0  0  0  0  0  0  0  0  0  0  0  0
   41.1457   14.4672  -12.8517 N   0  0  0  0  0  0  0  0  0  0  0  0
   40.3490   13.9554  -12.3808 H   0  0  0  0  0  0  0  0  0  0  0  0
   41.7018   15.9820  -12.2763 S   0  0  0  0  0  0  0  0  0  0  0  0
   43.0974   16.3110  -12.7945 O   0  0  0  0  0  0  0  0  0  0  0  0
   40.7414   17.0587  -12.7969 O   0  0  0  0  0  0  0  0  0  0  0  0
   41.6669   16.0137  -10.5309 C   0  0  0  0  0  0  0  0  0  0  0  0
   42.8267   16.1178   -9.8182 C   0  0  0  0  0  0  0  0  0  0  0  0
   42.7182   16.1122   -8.4206 C   0  0  0  0  0  0  0  0  0  0  0  0
   41.5149   16.0076   -7.7746 C   0  0  0  0  0  0  0  0  0  0  0  0
   41.4056   16.0034   -6.0350 Cl  0  0  0  0  0  0  0  0  0  0  0  0
   40.3810   15.9050   -8.5412 C   0  0  0  0  0  0  0  0  0  0  0  0
   40.4232   15.9051   -9.9047 C   0  0  0  0  0  0  0  0  0  0  0  0
   38.9641   15.7731  -10.8956 Cl  0  0  0  0  0  0  0  0  0  0  0  0
   39.6114   13.8688  -15.0478 O   0  0  0  0  0  0  0  0  0  0  0  0
   37.3293   13.0754  -14.8467 C   0  0  0  0  0  0  0  0  0  0  0  0
   36.3465   12.2104  -15.3014 C   0  0  0  0  0  0  0  0  0  0  0  0
   36.5520   11.3051  -16.3298 C   0  0  0  0  0  0  0  0  0  0  0  0
   37.8017   11.2811  -16.9138 C   0  0  0  0  0  0  0  0  0  0  0  0
   38.7940   12.1321  -16.4769 C   0  0  0  0  0  0  0  0  0  0  0  0
   38.5783   13.0468  -15.4338 C   0  0  0  0  0  0  0  0  0  0  0  0
   35.7341   14.0824  -13.3182 C   0  0  0  0  0  0  0  0  0  0  0  0
   37.0630   13.9700  -13.8071 O   0  0  0  0  0  0  0  0  0  0  0  0
   35.4869   10.3818  -16.8082 C   0  0  0  0  0  0  0  0  0  0  0  0
   34.1512   10.9751  -16.5490 C   0  0  0  0  0  0  0  0  0  0  0  0
   33.3007   11.2172  -17.4280 O   0  0  0  0  0  0  0  0  0  0  0  0
   33.8468   11.2764  -15.2128 O   0  0  0  0  0  0  0  0  0  0  0  0
   33.8697   10.5330  -14.5322 H   0  0  0  0  0  0  0  0  0  0  0  0
 34 35  1  0  0  0
 35 28  1  0  0  0
 28 29  2  0  0  0
 29 30  1  0  0  0
 30 36  1  0  0  0
 36 37  1  0  0  0
 37 38  2  0  0  0
 37 39  1  0  0  0
 30 31  2  0  0  0
 31 32  1  0  0  0
 32 33  2  0  0  0
 33 27  1  0  0  0
 27  1  1  0  0  0
  1  2  2  0  0  0
  2  3  1  0  0  0
  3  4  2  0  0  0
  4  7  1  0  0  0
  7  8  2  0  0  0
  7  9  1  0  0  0
  9 11  1  0  0  0
 11 12  1  0  0  0
 11 13  1  0  0  0
  4  5  1  0  0  0
  5  6  2  0  0  0
  6 14  1  0  0  0
 14 16  1  0  0  0
 16 17  2  0  0  0
 16 18  2  0  0  0
 16 19  1  0  0  0
 19 20  2  0  0  0
 20 21  1  0  0  0
 21 22  2  0  0  0
 22 23  1  0  0  0
 22 24  1  0  0  0
 24 25  2  0  0  0
 25 26  1  0  0  0
 33 28  1  0  0  0
  6  1  1  0  0  0
 25 19  1  0  0  0
 39 40  1  0  0  0
  9 10  1  0  0  0
 14 15  1  0  0  0
M  END
> <minimizedAffinity>
-8.97754

> <CNNscore>
0.1335356086

> <CNNaffinity>
6.5346193314

> <CNN_VS>
0.8726043701

> <CNNaffinity_variance>
0.2068752050

$$$$
[H]OC(=O)C([H])([H])c1c([H])c([H])c(Oc2c([H])c([H])c(C(=O)N([H])C([H])(C([H])([H])[H])C([H])([H])[H])c([H])c2N([H])S(=O)(=O)c2c([H])c([H])c(Cl)c([H])c2Cl)c(OC([H])([H])[H])c1[H]


 40 42  0  0  0  0  0  0  0  0999 V2000
   37.0197   15.7338  -11.2363 C   0  0  0  0  0  0  0  0  0  0  0  0
   38.1329   16.0621  -10.5114 C   0  0  0  0  0  0  0  0  0  0  0  0
   39.4036   15.9447  -11.0398 C   0  0  0  0  0  0  0  0  0  0  0  0
   39.5663   15.4881  -12.3229 C   0  0  0  0  0  0  0  0  0  0  0  0
   38.4373   15.1598  -13.0436 C   0  0  0  0  0  0  0  0  0  0  0  0
   37.1597   15.2619  -12.5564 C   0  0  0  0  0  0  0  0  0  0  0  0
   40.8994   15.3534  -12.9233 C   0  0  0  0  0  0  0  0  0  0  0  0
   41.5827   16.4160  -13.0520 O   0  0  0  0  0  0  0  0  0  0  0  0
   41.3966   14.1117  -13.3353 N   0  0  0  0  0  0  0  0  0  0  0  0
   40.8640   13.2406  -13.2386 H   0  0  0  0  0  0  0  0  0  0  0  0
   42.7246   14.0379  -13.9247 C   0  0  0  0  0  0  0  0  0  0  0  0
   43.6186   13.3920  -12.8804 C   0  0  0  0  0  0  0  0  0  0  0  0
   42.6879   13.2494  -15.1984 C   0  0  0  0  0  0  0  0  0  0  0  0
   35.9856   14.9160  -13.2790 N   0  0  0  0  0  0  0  0  0  0  0  0
   35.4437   15.6814  -13.7677 H   0  0  0  0  0  0  0  0  0  0  0  0
   35.4791   13.2806  -13.3404 S   0  0  0  0  0  0  0  0  0  0  0  0
   35.8780   12.5130  -12.0849 O   0  0  0  0  0  0  0  0  0  0  0  0
   33.9479   13.2707  -13.4304 O   0  0  0  0  0  0  0  0  0  0  0  0
   36.1172   12.5048  -14.7685 C   0  0  0  0  0  0  0  0  0  0  0  0
   37.4214   12.6862  -15.1292 C   0  0  0  0  0  0  0  0  0  0  0  0
   37.8525   12.0498  -16.3015 C   0  0  0  0  0  0  0  0  0  0  0  0
   37.0225   11.2758  -17.0686 C   0  0  0  0  0  0  0  0  0  0  0  0
   37.5822   10.4940  -18.5224 Cl  0  0  0  0  0  0  0  0  0  0  0  0
   35.7209   11.1285  -16.6587 C   0  0  0  0  0  0  0  0  0  0  0  0
   35.2436   11.7228  -15.5273 C   0  0  0  0  0  0  0  0  0  0  0  0
   33.5670   11.5350  -14.9962 Cl  0  0  0  0  0  0  0  0  0  0  0  0
   35.7486   15.8532  -10.7100 O   0  0  0  0  0  0  0  0  0  0  0  0
   34.0272   15.5616   -9.0278 C   0  0  0  0  0  0  0  0  0  0  0  0
   33.6944   15.1142   -7.7590 C   0  0  0  0  0  0  0  0  0  0  0  0
   34.6119   14.5398   -6.8944 C   0  0  0  0  0  0  0  0  0  0  0  0
   35.9124   14.4178   -7.3387 C   0  0  0  0  0  0  0  0  0  0  0  0
   36.2654   14.8566   -8.5966 C   0  0  0  0  0  0  0  0  0  0  0  0
   35.3300   15.4381   -9.4673 C   0  0  0  0  0  0  0  0  0  0  0  0
   31.6920   16.0533   -9.4751 C   0  0  0  0  0  0  0  0  0  0  0  0
   33.0577   16.1302   -9.8577 O   0  0  0  0  0  0  0  0  0  0  0  0
   34.2403   14.0634   -5.5340 C   0  0  0  0  0  0  0  0  0  0  0  0
   32.8357   14.4381   -5.2345 C   0  0  0  0  0  0  0  0  0  0  0  0
   32.4561   15.5897   -4.9441 O   0  0  0  0  0  0  0  0  0  0  0  0
   31.8858   13.4067   -5.2881 O   0  0  0  0  0  0  0  0  0  0  0  0
   31.7757   12.8951   -6.1497 H   0  0  0  0  0  0  0  0  0  0  0  0
 34 35  1  0  0  0
 35 28  1  0  0  0
 28 29  2  0  0  0
 29 30  1  0  0  0
 30 36  1  0  0  0
 36 37  1  0  0  0
 37 38  2  0  0  0
 37 39  1  0  0  0
 30 31  2  0  0  0
 31 32  1  0  0  0
 32 33  2  0  0  0
 33 27  1  0  0  0
 27  1  1  0  0  0
  1  2  2  0  0  0
  2  3  1  0  0  0
  3  4  2  0  0  0
  4  7  1  0  0  0
  7  8  2  0  0  0
  7  9  1  0  0  0
  9 11  1  0  0  0
 11 12  1  0  0  0
 11 13  1  0  0  0
  4  5  1  0  0  0
  5  6  2  0  0  0
  6 14  1  0  0  0
 14 16  1  0  0  0
 16 17  2  0  0  0
 16 18  2  0  0  0
 16 19  1  0  0  0
 19 20  2  0  0  0
 20 21  1  0  0  0
 21 22  2  0  0  0
 22 23  1  0  0  0
 22 24  1  0  0  0
 24 25  2  0  0  0
 25 26  1  0  0  0
 33 28  1  0  0  0
  6  1  1  0  0  0
 25 19  1  0  0  0
 39 40  1  0  0  0
  9 10  1  0  0  0
 14 15  1  0  0  0
M  END
> <minimizedAffinity>
-9.45787

> <CNNscore>
0.1327934712

> <CNNaffinity>
6.2748918533

> <CNN_VS>
0.8332646489

> <CNNaffinity_variance>
0.7365804911

$$$$
[H]OC(=O)C([H])([H])c1c([H])c([H])c(Oc2c([H])c([H])c(C(=O)N([H])C([H])(C([H])([H])[H])C([H])([H])[H])c([H])c2N([H])S(=O)(=O)c2c([H])c([H])c(Cl)c([H])c2Cl)c(OC([H])([H])[H])c1[H]


 40 42  0  0  0  0  0  0  0  0999 V2000
   41.5346   15.4457  -12.7855 C   0  0  0  0  0  0  0  0  0  0  0  0
   42.6755   15.7024  -12.0749 C   0  0  0  0  0  0  0  0  0  0  0  0
   43.8280   14.9643  -12.2611 C   0  0  0  0  0  0  0  0  0  0  0  0
   43.8412   13.9453  -13.1791 C   0  0  0  0  0  0  0  0  0  0  0  0
   42.6855   13.6955  -13.8890 C   0  0  0  0  0  0  0  0  0  0  0  0
   41.5219   14.4041  -13.7341 C   0  0  0  0  0  0  0  0  0  0  0  0
   45.0471   13.1403  -13.4107 C   0  0  0  0  0  0  0  0  0  0  0  0
   45.2722   12.7713  -14.6047 O   0  0  0  0  0  0  0  0  0  0  0  0
   45.9106   12.7947  -12.3650 N   0  0  0  0  0  0  0  0  0  0  0  0
   45.7505   13.0838  -11.3941 H   0  0  0  0  0  0  0  0  0  0  0  0
   47.0909   11.9943  -12.6529 C   0  0  0  0  0  0  0  0  0  0  0  0
   48.2877   12.8467  -12.2682 C   0  0  0  0  0  0  0  0  0  0  0  0
   47.0486   10.7068  -11.8875 C   0  0  0  0  0  0  0  0  0  0  0  0
   40.3180   14.1529  -14.4466 N   0  0  0  0  0  0  0  0  0  0  0  0
   39.4022   14.4814  -14.0320 H   0  0  0  0  0  0  0  0  0  0  0  0
   40.3774   13.3294  -15.9477 S   0  0  0  0  0  0  0  0  0  0  0  0
   40.6530   14.2791  -17.1080 O   0  0  0  0  0  0  0  0  0  0  0  0
   41.5322   12.3221  -15.8805 O   0  0  0  0  0  0  0  0  0  0  0  0
   38.8942   12.4464  -16.2102 C   0  0  0  0  0  0  0  0  0  0  0  0
   37.8568   12.5606  -15.3300 C   0  0  0  0  0  0  0  0  0  0  0  0
   36.7088   11.8015  -15.5965 C   0  0  0  0  0  0  0  0  0  0  0  0
   36.6073   10.9745  -16.6836 C   0  0  0  0  0  0  0  0  0  0  0  0
   35.1687   10.0407  -16.9940 Cl  0  0  0  0  0  0  0  0  0  0  0  0
   37.6812   10.8980  -17.5351 C   0  0  0  0  0  0  0  0  0  0  0  0
   38.8248   11.6125  -17.3284 C   0  0  0  0  0  0  0  0  0  0  0  0
   40.2103   11.5164  -18.4235 Cl  0  0  0  0  0  0  0  0  0  0  0  0
   40.3826   16.1846  -12.6019 O   0  0  0  0  0  0  0  0  0  0  0  0
   38.2688   15.5535  -11.5962 C   0  0  0  0  0  0  0  0  0  0  0  0
   37.4726   15.5311  -10.4620 C   0  0  0  0  0  0  0  0  0  0  0  0
   37.8760   16.0536   -9.2439 C   0  0  0  0  0  0  0  0  0  0  0  0
   39.1334   16.6179   -9.1807 C   0  0  0  0  0  0  0  0  0  0  0  0
   39.9416   16.6513  -10.2966 C   0  0  0  0  0  0  0  0  0  0  0  0
   39.5257   16.1200  -11.5279 C   0  0  0  0  0  0  0  0  0  0  0  0
   36.4104   14.8775  -13.0049 C   0  0  0  0  0  0  0  0  0  0  0  0
   37.8095   15.0078  -12.7976 O   0  0  0  0  0  0  0  0  0  0  0  0
   37.0103   16.0226   -8.0335 C   0  0  0  0  0  0  0  0  0  0  0  0
   36.7619   17.4057   -7.5554 C   0  0  0  0  0  0  0  0  0  0  0  0
   37.1307   17.8505   -6.4505 O   0  0  0  0  0  0  0  0  0  0  0  0
   36.0607   18.2543   -8.4256 O   0  0  0  0  0  0  0  0  0  0  0  0
   36.4404   18.4263   -9.3435 H   0  0  0  0  0  0  0  0  0  0  0  0
 34 35  1  0  0  0
 35 28  1  0  0  0
 28 29  2  0  0  0
 29 30  1  0  0  0
 30 36  1  0  0  0
 36 37  1  0  0  0
 37 38  2  0  0  0
 37 39  1  0  0  0
 30 31  2  0  0  0
 31 32  1  0  0  0
 32 33  2  0  0  0
 33 27  1  0  0  0
 27  1  1  0  0  0
  1  2  2  0  0  0
  2  3  1  0  0  0
  3  4  2  0  0  0
  4  7  1  0  0  0
  7  8  2  0  0  0
  7  9  1  0  0  0
  9 11  1  0  0  0
 11 12  1  0  0  0
 11 13  1  0  0  0
  4  5  1  0  0  0
  5  6  2  0  0  0
  6 14  1  0  0  0
 14 16  1  0  0  0
 16 17  2  0  0  0
 16 18  2  0  0  0
 16 19  1  0  0  0
 19 20  2  0  0  0
 20 21  1  0  0  0
 21 22  2  0  0  0
 22 23  1  0  0  0
 22 24  1  0  0  0
 24 25  2  0  0  0
 25 26  1  0  0  0
 33 28  1  0  0  0
  6  1  1  0  0  0
 25 19  1  0  0  0
 39 40  1  0  0  0
  9 10  1  0  0  0
 14 15  1  0  0  0
M  END
> <minimizedAffinity>
-7.91104

> <CNNscore>
0.1202229634

> <CNNaffinity>
6.4709763527

> <CNN_VS>
0.7779599428

> <CNNaffinity_variance>
0.2239957601

$$$$
[H]OC(=O)C([H])([H])c1c([H])c([H])c(Oc2c([H])c([H])c(C(=O)N([H])C([H])(C([H])([H])[H])C([H])([H])[H])c([H])c2N([H])S(=O)(=O)c2c([H])c([H])c(Cl)c([H])c2Cl)c(OC([H])([H])[H])c1[H]


 40 42  0  0  0  0  0  0  0  0999 V2000
   41.2109   13.5003  -14.9596 C   0  0  0  0  0  0  0  0  0  0  0  0
   41.6707   12.9601  -16.1297 C   0  0  0  0  0  0  0  0  0  0  0  0
   43.0153   12.7261  -16.3420 C   0  0  0  0  0  0  0  0  0  0  0  0
   43.9224   13.0396  -15.3621 C   0  0  0  0  0  0  0  0  0  0  0  0
   43.4475   13.5840  -14.1873 C   0  0  0  0  0  0  0  0  0  0  0  0
   42.1222   13.8316  -13.9374 C   0  0  0  0  0  0  0  0  0  0  0  0
   45.3596   12.8022  -15.5463 C   0  0  0  0  0  0  0  0  0  0  0  0
   45.6984   12.0296  -16.4954 O   0  0  0  0  0  0  0  0  0  0  0  0
   46.3144   13.3992  -14.7152 N   0  0  0  0  0  0  0  0  0  0  0  0
   46.0643   14.0285  -13.9449 H   0  0  0  0  0  0  0  0  0  0  0  0
   47.7252   13.1274  -14.9438 C   0  0  0  0  0  0  0  0  0  0  0  0
   48.3763   14.4693  -15.2310 C   0  0  0  0  0  0  0  0  0  0  0  0
   48.3281   12.4545  -13.7483 C   0  0  0  0  0  0  0  0  0  0  0  0
   41.6157   14.4038  -12.7390 N   0  0  0  0  0  0  0  0  0  0  0  0
   40.6514   14.1230  -12.4079 H   0  0  0  0  0  0  0  0  0  0  0  0
   42.5707   15.5270  -11.8664 S   0  0  0  0  0  0  0  0  0  0  0  0
   43.2769   16.5133  -12.7899 O   0  0  0  0  0  0  0  0  0  0  0  0
   41.6317   16.3268  -10.9546 O   0  0  0  0  0  0  0  0  0  0  0  0
   43.7245   14.6853  -10.8620 C   0  0  0  0  0  0  0  0  0  0  0  0
   43.6361   13.3336  -10.6916 C   0  0  0  0  0  0  0  0  0  0  0  0
   44.5844   12.7341   -9.8513 C   0  0  0  0  0  0  0  0  0  0  0  0
   45.5655   13.4497   -9.2174 C   0  0  0  0  0  0  0  0  0  0  0  0
   46.7340   12.6812   -8.1773 Cl  0  0  0  0  0  0  0  0  0  0  0  0
   45.6068   14.8059   -9.4243 C   0  0  0  0  0  0  0  0  0  0  0  0
   44.7116   15.4456  -10.2309 C   0  0  0  0  0  0  0  0  0  0  0  0
   44.7619   17.1930  -10.4998 Cl  0  0  0  0  0  0  0  0  0  0  0  0
   39.8667   13.7322  -14.7451 O   0  0  0  0  0  0  0  0  0  0  0  0
   37.5551   13.0059  -14.6606 C   0  0  0  0  0  0  0  0  0  0  0  0
   36.5547   12.2186  -15.2088 C   0  0  0  0  0  0  0  0  0  0  0  0
   36.7540   11.3983  -16.3073 C   0  0  0  0  0  0  0  0  0  0  0  0
   38.0156   11.3802  -16.8653 C   0  0  0  0  0  0  0  0  0  0  0  0
   39.0253   12.1548  -16.3360 C   0  0  0  0  0  0  0  0  0  0  0  0
   38.8160   12.9836  -15.2222 C   0  0  0  0  0  0  0  0  0  0  0  0
   36.0172   14.4259  -13.4303 C   0  0  0  0  0  0  0  0  0  0  0  0
   37.2945   13.8168  -13.5531 O   0  0  0  0  0  0  0  0  0  0  0  0
   35.6701   10.5579  -16.8858 C   0  0  0  0  0  0  0  0  0  0  0  0
   34.3466   11.0815  -16.4645 C   0  0  0  0  0  0  0  0  0  0  0  0
   33.4245   11.3881  -17.2458 O   0  0  0  0  0  0  0  0  0  0  0  0
   34.1419   11.2336  -15.0847 O   0  0  0  0  0  0  0  0  0  0  0  0
   34.2343   10.4247  -14.4901 H   0  0  0  0  0  0  0  0  0  0  0  0
 34 35  1  0  0  0
 35 28  1  0  0  0
 28 29  2  0  0  0
 29 30  1  0  0  0
 30 36  1  0  0  0
 36 37  1  0  0  0
 37 38  2  0  0  0
 37 39  1  0  0  0
 30 31  2  0  0  0
 31 32  1  0  0  0
 32 33  2  0  0  0
 33 27  1  0  0  0
 27  1  1  0  0  0
  1  2  2  0  0  0
  2  3  1  0  0  0
  3  4  2  0  0  0
  4  7  1  0  0  0
  7  8  2  0  0  0
  7  9  1  0  0  0
  9 11  1  0  0  0
 11 12  1  0  0  0
 11 13  1  0  0  0
  4  5  1  0  0  0
  5  6  2  0  0  0
  6 14  1  0  0  0
 14 16  1  0  0  0
 16 17  2  0  0  0
 16 18  2  0  0  0
 16 19  1  0  0  0
 19 20  2  0  0  0
 20 21  1  0  0  0
 21 22  2  0  0  0
 22 23  1  0  0  0
 22 24  1  0  0  0
 24 25  2  0  0  0
 25 26  1  0  0  0
 33 28  1  0  0  0
  6  1  1  0  0  0
 25 19  1  0  0  0
 39 40  1  0  0  0
  9 10  1  0  0  0
 14 15  1  0  0  0
M  END
> <minimizedAffinity>
-8.10458

> <CNNscore>
0.1053171083

> <CNNaffinity>
6.3769445419

> <CNN_VS>
0.6716013551

> <CNNaffinity_variance>
0.3106533885

$$$$
[H]OC(=O)C([H])([H])c1c([H])c([H])c(Oc2c([H])c([H])c(C(=O)N([H])C([H])(C([H])([H])[H])C([H])([H])[H])c([H])c2N([H])S(=O)(=O)c2c([H])c([H])c(Cl)c([H])c2Cl)c(OC([H])([H])[H])c1[H]


 40 42  0  0  0  0  0  0  0  0999 V2000
   42.5649   13.5656  -14.8826 C   0  0  0  0  0  0  0  0  0  0  0  0
   43.3840   13.1957  -15.9143 C   0  0  0  0  0  0  0  0  0  0  0  0
   44.7241   12.9257  -15.7162 C   0  0  0  0  0  0  0  0  0  0  0  0
   45.2587   13.0281  -14.4572 C   0  0  0  0  0  0  0  0  0  0  0  0
   44.4238   13.4022  -13.4253 C   0  0  0  0  0  0  0  0  0  0  0  0
   43.0896   13.6784  -13.5799 C   0  0  0  0  0  0  0  0  0  0  0  0
   46.6769   12.7451  -14.2035 C   0  0  0  0  0  0  0  0  0  0  0  0
   47.4100   12.5243  -15.2165 O   0  0  0  0  0  0  0  0  0  0  0  0
   47.1993   12.7199  -12.9053 N   0  0  0  0  0  0  0  0  0  0  0  0
   46.6271   12.8980  -12.0730 H   0  0  0  0  0  0  0  0  0  0  0  0
   48.6126   12.4332  -12.7133 C   0  0  0  0  0  0  0  0  0  0  0  0
   49.2494   13.7286  -12.2405 C   0  0  0  0  0  0  0  0  0  0  0  0
   48.7908   11.3245  -11.7211 C   0  0  0  0  0  0  0  0  0  0  0  0
   42.2170   14.0780  -12.5315 N   0  0  0  0  0  0  0  0  0  0  0  0
   41.6827   13.3348  -12.0018 H   0  0  0  0  0  0  0  0  0  0  0  0
   42.0513   15.7408  -12.1539 S   0  0  0  0  0  0  0  0  0  0  0  0
   41.0821   16.4454  -13.0966 O   0  0  0  0  0  0  0  0  0  0  0  0
   41.4815   15.8409  -10.7334 O   0  0  0  0  0  0  0  0  0  0  0  0
   43.6125   16.5224  -12.1749 C   0  0  0  0  0  0  0  0  0  0  0  0
   43.9074   17.4517  -13.1305 C   0  0  0  0  0  0  0  0  0  0  0  0
   45.1898   18.0167  -13.0953 C   0  0  0  0  0  0  0  0  0  0  0  0
   46.1236   17.6689  -12.1555 C   0  0  0  0  0  0  0  0  0  0  0  0
   47.7121   18.3860  -12.1321 Cl  0  0  0  0  0  0  0  0  0  0  0  0
   45.7731   16.7286  -11.2189 C   0  0  0  0  0  0  0  0  0  0  0  0
   44.5406   16.1440  -11.2021 C   0  0  0  0  0  0  0  0  0  0  0  0
   44.0855   14.9322   -9.9968 Cl  0  0  0  0  0  0  0  0  0  0  0  0
   41.2245   13.8331  -15.0790 O   0  0  0  0  0  0  0  0  0  0  0  0
   39.1036   12.6592  -15.1199 C   0  0  0  0  0  0  0  0  0  0  0  0
   38.2356   11.8343  -15.8178 C   0  0  0  0  0  0  0  0  0  0  0  0
   38.5114   11.3439  -17.0838 C   0  0  0  0  0  0  0  0  0  0  0  0
   39.7127   11.7069  -17.6571 C   0  0  0  0  0  0  0  0  0  0  0  0
   40.5910   12.5258  -16.9807 C   0  0  0  0  0  0  0  0  0  0  0  0
   40.3047   13.0187  -15.6976 C   0  0  0  0  0  0  0  0  0  0  0  0
   37.8905   14.2351  -13.7272 C   0  0  0  0  0  0  0  0  0  0  0  0
   38.7701   13.1262  -13.8461 O   0  0  0  0  0  0  0  0  0  0  0  0
   37.5696   10.4587  -17.8220 C   0  0  0  0  0  0  0  0  0  0  0  0
   36.1819   10.6937  -17.3506 C   0  0  0  0  0  0  0  0  0  0  0  0
   35.4889    9.8551  -16.7415 O   0  0  0  0  0  0  0  0  0  0  0  0
   35.6325   11.9562  -17.6210 O   0  0  0  0  0  0  0  0  0  0  0  0
   36.1038   12.7744  -17.2677 H   0  0  0  0  0  0  0  0  0  0  0  0
 34 35  1  0  0  0
 35 28  1  0  0  0
 28 29  2  0  0  0
 29 30  1  0  0  0
 30 36  1  0  0  0
 36 37  1  0  0  0
 37 38  2  0  0  0
 37 39  1  0  0  0
 30 31  2  0  0  0
 31 32  1  0  0  0
 32 33  2  0  0  0
 33 27  1  0  0  0
 27  1  1  0  0  0
  1  2  2  0  0  0
  2  3  1  0  0  0
  3  4  2  0  0  0
  4  7  1  0  0  0
  7  8  2  0  0  0
  7  9  1  0  0  0
  9 11  1  0  0  0
 11 12  1  0  0  0
 11 13  1  0  0  0
  4  5  1  0  0  0
  5  6  2  0  0  0
  6 14  1  0  0  0
 14 16  1  0  0  0
 16 17  2  0  0  0
 16 18  2  0  0  0
 16 19  1  0  0  0
 19 20  2  0  0  0
 20 21  1  0  0  0
 21 22  2  0  0  0
 22 23  1  0  0  0
 22 24  1  0  0  0
 24 25  2  0  0  0
 25 26  1  0  0  0
 33 28  1  0  0  0
  6  1  1  0  0  0
 25 19  1  0  0  0
 39 40  1  0  0  0
  9 10  1  0  0  0
 14 15  1  0  0  0
M  END
> <minimizedAffinity>
-7.84435

> <CNNscore>
0.0921055377

> <CNNaffinity>
6.0566682816

> <CNN_VS>
0.5578526855

> <CNNaffinity_variance>
0.4619076252

$$$$
[H]OC(=O)C([H])([H])c1c([H])c([H])c(Oc2c([H])c([H])c(C(=O)N([H])C([H])(C([H])([H])[H])C([H])([H])[H])c([H])c2N([H])S(=O)(=O)c2c([H])c([H])c(Cl)c([H])c2Cl)c(OC([H])([H])[H])c1[H]


 40 42  0  0  0  0  0  0  0  0999 V2000
   38.0199   15.3964  -12.1637 C   0  0  0  0  0  0  0  0  0  0  0  0
   38.4144   15.7514  -10.9025 C   0  0  0  0  0  0  0  0  0  0  0  0
   37.4988   16.0580   -9.9149 C   0  0  0  0  0  0  0  0  0  0  0  0
   36.1568   16.0092  -10.1940 C   0  0  0  0  0  0  0  0  0  0  0  0
   35.7709   15.6507  -11.4686 C   0  0  0  0  0  0  0  0  0  0  0  0
   36.6472   15.3392  -12.4761 C   0  0  0  0  0  0  0  0  0  0  0  0
   35.1511   16.3230   -9.1713 C   0  0  0  0  0  0  0  0  0  0  0  0
   35.3917   17.3120   -8.4118 O   0  0  0  0  0  0  0  0  0  0  0  0
   33.9800   15.5684   -9.0378 N   0  0  0  0  0  0  0  0  0  0  0  0
   33.7635   14.7680   -9.6413 H   0  0  0  0  0  0  0  0  0  0  0  0
   33.0186   15.9248   -8.0057 C   0  0  0  0  0  0  0  0  0  0  0  0
   31.7118   16.2157   -8.7232 C   0  0  0  0  0  0  0  0  0  0  0  0
   32.8793   14.8100   -7.0140 C   0  0  0  0  0  0  0  0  0  0  0  0
   36.2690   14.9807  -13.7985 N   0  0  0  0  0  0  0  0  0  0  0  0
   36.5671   15.6025  -14.6003 H   0  0  0  0  0  0  0  0  0  0  0  0
   35.3454   13.5618  -14.0607 S   0  0  0  0  0  0  0  0  0  0  0  0
   35.1661   12.7539  -12.7803 O   0  0  0  0  0  0  0  0  0  0  0  0
   33.9547   13.9941  -14.5422 O   0  0  0  0  0  0  0  0  0  0  0  0
   36.0794   12.5868  -15.3095 C   0  0  0  0  0  0  0  0  0  0  0  0
   37.3943   12.7561  -15.6351 C   0  0  0  0  0  0  0  0  0  0  0  0
   37.9042   11.9527  -16.6644 C   0  0  0  0  0  0  0  0  0  0  0  0
   37.1385   11.0321  -17.3298 C   0  0  0  0  0  0  0  0  0  0  0  0
   37.7956   10.0440  -18.6065 Cl  0  0  0  0  0  0  0  0  0  0  0  0
   35.8225   10.9046  -16.9613 C   0  0  0  0  0  0  0  0  0  0  0  0
   35.2699   11.6581  -15.9673 C   0  0  0  0  0  0  0  0  0  0  0  0
   33.5745   11.4963  -15.4899 Cl  0  0  0  0  0  0  0  0  0  0  0  0
   38.9343   15.0871  -13.1511 O   0  0  0  0  0  0  0  0  0  0  0  0
   41.1704   14.3276  -13.6999 C   0  0  0  0  0  0  0  0  0  0  0  0
   42.5368   14.5148  -13.5625 C   0  0  0  0  0  0  0  0  0  0  0  0
   43.0884   15.5430  -12.8156 C   0  0  0  0  0  0  0  0  0  0  0  0
   42.2172   16.4091  -12.1876 C   0  0  0  0  0  0  0  0  0  0  0  0
   40.8547   16.2413  -12.3103 C   0  0  0  0  0  0  0  0  0  0  0  0
   40.3030   15.1965  -13.0688 C   0  0  0  0  0  0  0  0  0  0  0  0
   41.2677   12.9974  -15.7287 C   0  0  0  0  0  0  0  0  0  0  0  0
   40.6714   13.2737  -14.4695 O   0  0  0  0  0  0  0  0  0  0  0  0
   44.5583   15.7323  -12.6769 C   0  0  0  0  0  0  0  0  0  0  0  0
   45.0629   16.5882  -13.7795 C   0  0  0  0  0  0  0  0  0  0  0  0
   45.1675   17.8293  -13.7221 O   0  0  0  0  0  0  0  0  0  0  0  0
   45.4430   15.9319  -14.9601 O   0  0  0  0  0  0  0  0  0  0  0  0
   46.1615   15.2264  -14.9112 H   0  0  0  0  0  0  0  0  0  0  0  0
 34 35  1  0  0  0
 35 28  1  0  0  0
 28 29  2  0  0  0
 29 30  1  0  0  0
 30 36  1  0  0  0
 36 37  1  0  0  0
 37 38  2  0  0  0
 37 39  1  0  0  0
 30 31  2  0  0  0
 31 32  1  0  0  0
 32 33  2  0  0  0
 33 27  1  0  0  0
 27  1  1  0  0  0
  1  2  2  0  0  0
  2  3  1  0  0  0
  3  4  2  0  0  0
  4  7  1  0  0  0
  7  8  2  0  0  0
  7  9  1  0  0  0
  9 11  1  0  0  0
 11 12  1  0  0  0
 11 13  1  0  0  0
  4  5  1  0  0  0
  5  6  2  0  0  0
  6 14  1  0  0  0
 14 16  1  0  0  0
 16 17  2  0  0  0
 16 18  2  0  0  0
 16 19  1  0  0  0
 19 20  2  0  0  0
 20 21  1  0  0  0
 21 22  2  0  0  0
 22 23  1  0  0  0
 22 24  1  0  0  0
 24 25  2  0  0  0
 25 26  1  0  0  0
 33 28  1  0  0  0
  6  1  1  0  0  0
 25 19  1  0  0  0
 39 40  1  0  0  0
  9 10  1  0  0  0
 14 15  1  0  0  0
M  END
> <minimizedAffinity>
-8.84863

> <CNNscore>
0.0798428506

> <CNNaffinity>
6.4700441360

> <CNN_VS>
0.5165867805

> <CNNaffinity_variance>
0.4416149557

$$$$
[H]c1c([H])c([H])c(N([H])c2nc3c([H])nc(N([H])c4c([H])c([H])c(OC([H])([H])[H])c([H])c4[H])nc3n2C([H])(C([H])([H])[H])C([H])([H])[H])c(F)c1[H]


 31 34  0  0  0  0  0  0  0  0999 V2000
   33.4420   14.8486  -12.5726 C   0  0  0  0  0  0  0  0  0  0  0  0
   34.5642   15.1989  -11.9450 N   0  0  0  0  0  0  0  0  0  0  0  0
   35.7855   14.7324  -12.1986 C   0  0  0  0  0  0  0  0  0  0  0  0
   35.9306   13.7959  -13.2024 C   0  0  0  0  0  0  0  0  0  0  0  0
   36.9668   13.1270  -13.7192 N   0  0  0  0  0  0  0  0  0  0  0  0
   36.5213   12.3275  -14.6982 C   0  0  0  0  0  0  0  0  0  0  0  0
   35.1728   12.4768  -14.8223 N   0  0  0  0  0  0  0  0  0  0  0  0
   34.8134   13.3901  -13.8902 C   0  0  0  0  0  0  0  0  0  0  0  0
   33.6257   13.9124  -13.5677 N   0  0  0  0  0  0  0  0  0  0  0  0
   34.2781   11.8072  -15.7540 C   0  0  0  0  0  0  0  0  0  0  0  0
   33.5357   10.6598  -15.0968 C   0  0  0  0  0  0  0  0  0  0  0  0
   34.9725   11.3913  -17.0153 C   0  0  0  0  0  0  0  0  0  0  0  0
   32.1626   15.3376  -12.3069 N   0  0  0  0  0  0  0  0  0  0  0  0
   31.6276   15.7741  -13.1200 H   0  0  0  0  0  0  0  0  0  0  0  0
   30.0624   15.0972   -8.6382 C   0  0  0  0  0  0  0  0  0  0  0  0
   31.2020   15.8558   -8.7462 C   0  0  0  0  0  0  0  0  0  0  0  0
   31.9077   15.9589   -9.9421 C   0  0  0  0  0  0  0  0  0  0  0  0
   31.5086   15.3142  -11.0678 C   0  0  0  0  0  0  0  0  0  0  0  0
   30.3271   14.5333  -10.9399 C   0  0  0  0  0  0  0  0  0  0  0  0
   29.6533   14.4441   -9.7714 C   0  0  0  0  0  0  0  0  0  0  0  0
   29.4942   16.0352   -6.4898 C   0  0  0  0  0  0  0  0  0  0  0  0
   29.3700   15.0040   -7.4406 O   0  0  0  0  0  0  0  0  0  0  0  0
   37.2987   11.4569  -15.4935 N   0  0  0  0  0  0  0  0  0  0  0  0
   36.9434   10.4415  -15.5202 H   0  0  0  0  0  0  0  0  0  0  0  0
   38.4509   11.7281  -16.2412 C   0  0  0  0  0  0  0  0  0  0  0  0
   39.4224   12.6383  -15.9033 C   0  0  0  0  0  0  0  0  0  0  0  0
   40.5367   12.8229  -16.7369 C   0  0  0  0  0  0  0  0  0  0  0  0
   40.6862   12.1068  -17.9017 C   0  0  0  0  0  0  0  0  0  0  0  0
   39.7221   11.1889  -18.2579 C   0  0  0  0  0  0  0  0  0  0  0  0
   38.6562   11.0245  -17.4432 C   0  0  0  0  0  0  0  0  0  0  0  0
   37.7202   10.1029  -17.8325 F   0  0  0  0  0  0  0  0  0  0  0  0
 21 22  1  0  0  0
 22 15  1  0  0  0
 15 16  2  0  0  0
 16 17  1  0  0  0
 17 18  2  0  0  0
 18 13  1  0  0  0
 13  1  1  0  0  0
  1  2  2  0  0  0
  2  3  1  0  0  0
  3  4  2  0  0  0
  4  5  1  0  0  0
  5  6  2  0  0  0
  6 23  1  0  0  0
 23 25  1  0  0  0
 25 26  2  0  0  0
 26 27  1  0  0  0
 27 28  2  0  0  0
 28 29  1  0  0  0
 29 30  2  0  0  0
 30 31  1  0  0  0
  6  7  1  0  0  0
  7 10  1  0  0  0
 10 11  1  0  0  0
 10 12  1  0  0  0
  7  8  1  0  0  0
  8  9  2  0  0  0
 18 19  1  0  0  0
 19 20  2  0  0  0
 20 15  1  0  0  0
  9  1  1  0  0  0
  8  4  1  0  0  0
 30 25  1  0  0  0
 13 14  1  0  0  0
 23 24  1  0  0  0
M  END
> <minimizedAffinity>
-9.17980

> <CNNscore>
0.2805041969

> <CNNaffinity>
6.6163787842

> <CNN_VS>
1.8559219837

> <CNNaffinity_variance>
0.2667057514

$$$$
[H]c1c([H])c([H])c(N([H])c2nc3c([H])nc(N([H])c4c([H])c([H])c(OC([H])([H])[H])c([H])c4[H])nc3n2C([H])(C([H])([H])[H])C([H])([H])[H])c(F)c1[H]


 31 34  0  0  0  0  0  0  0  0999 V2000
   33.6618   14.4971  -13.1208 C   0  0  0  0  0  0  0  0  0  0  0  0
   33.0380   13.6450  -13.9335 N   0  0  0  0  0  0  0  0  0  0  0  0
   33.6142   12.7019  -14.6766 C   0  0  0  0  0  0  0  0  0  0  0  0
   34.9875   12.5736  -14.6178 C   0  0  0  0  0  0  0  0  0  0  0  0
   35.8807   11.7685  -15.2027 N   0  0  0  0  0  0  0  0  0  0  0  0
   37.1064   12.0946  -14.7698 C   0  0  0  0  0  0  0  0  0  0  0  0
   37.0118   13.1291  -13.8884 N   0  0  0  0  0  0  0  0  0  0  0  0
   35.6930   13.4210  -13.7992 C   0  0  0  0  0  0  0  0  0  0  0  0
   35.0310   14.3393  -13.0881 N   0  0  0  0  0  0  0  0  0  0  0  0
   38.0872   13.8014  -13.1753 C   0  0  0  0  0  0  0  0  0  0  0  0
   37.6193   14.3588  -11.8449 C   0  0  0  0  0  0  0  0  0  0  0  0
   38.7747   14.8329  -14.0175 C   0  0  0  0  0  0  0  0  0  0  0  0
   33.0579   15.4849  -12.3422 N   0  0  0  0  0  0  0  0  0  0  0  0
   33.3767   16.4912  -12.4960 H   0  0  0  0  0  0  0  0  0  0  0  0
   30.1720   15.0295   -9.2776 C   0  0  0  0  0  0  0  0  0  0  0  0
   29.9741   14.4715  -10.5166 C   0  0  0  0  0  0  0  0  0  0  0  0
   30.9098   14.5989  -11.5399 C   0  0  0  0  0  0  0  0  0  0  0  0
   32.0697   15.2829  -11.3696 C   0  0  0  0  0  0  0  0  0  0  0  0
   32.2599   15.8543  -10.0814 C   0  0  0  0  0  0  0  0  0  0  0  0
   31.3417   15.7209   -9.0985 C   0  0  0  0  0  0  0  0  0  0  0  0
   29.4348   15.5565   -7.0422 C   0  0  0  0  0  0  0  0  0  0  0  0
   29.2313   14.8943   -8.2681 O   0  0  0  0  0  0  0  0  0  0  0  0
   38.3227   11.4838  -15.1471 N   0  0  0  0  0  0  0  0  0  0  0  0
   38.7263   10.8058  -14.4154 H   0  0  0  0  0  0  0  0  0  0  0  0
   39.0652   11.6361  -16.3243 C   0  0  0  0  0  0  0  0  0  0  0  0
   40.2150   12.3769  -16.4492 C   0  0  0  0  0  0  0  0  0  0  0  0
   40.8734   12.4543  -17.6866 C   0  0  0  0  0  0  0  0  0  0  0  0
   40.3923   11.7989  -18.7960 C   0  0  0  0  0  0  0  0  0  0  0  0
   39.2400   11.0505  -18.6908 C   0  0  0  0  0  0  0  0  0  0  0  0
   38.6196   10.9874  -17.4917 C   0  0  0  0  0  0  0  0  0  0  0  0
   37.4774   10.2335  -17.4284 F   0  0  0  0  0  0  0  0  0  0  0  0
 21 22  1  0  0  0
 22 15  1  0  0  0
 15 16  2  0  0  0
 16 17  1  0  0  0
 17 18  2  0  0  0
 18 13  1  0  0  0
 13  1  1  0  0  0
  1  2  2  0  0  0
  2  3  1  0  0  0
  3  4  2  0  0  0
  4  5  1  0  0  0
  5  6  2  0  0  0
  6 23  1  0  0  0
 23 25  1  0  0  0
 25 26  2  0  0  0
 26 27  1  0  0  0
 27 28  2  0  0  0
 28 29  1  0  0  0
 29 30  2  0  0  0
 30 31  1  0  0  0
  6  7  1  0  0  0
  7 10  1  0  0  0
 10 11  1  0  0  0
 10 12  1  0  0  0
  7  8  1  0  0  0
  8  9  2  0  0  0
 18 19  1  0  0  0
 19 20  2  0  0  0
 20 15  1  0  0  0
  9  1  1  0  0  0
  8  4  1  0  0  0
 30 25  1  0  0  0
 13 14  1  0  0  0
 23 24  1  0  0  0
M  END
> <minimizedAffinity>
-8.78822

> <CNNscore>
0.2702335417

> <CNNaffinity>
6.6127305031

> <CNN_VS>
1.7869815826

> <CNNaffinity_variance>
0.3172882199

$$$$
[H]c1c([H])c([H])c(N([H])c2nc3c([H])nc(N([H])c4c([H])c([H])c(OC([H])([H])[H])c([H])c4[H])nc3n2C([H])(C([H])([H])[H])C([H])([H])[H])c(F)c1[H]


 31 34  0  0  0  0  0  0  0  0999 V2000
   36.0813   11.7326  -15.6375 C   0  0  0  0  0  0  0  0  0  0  0  0
   34.8514   11.3629  -15.9932 N   0  0  0  0  0  0  0  0  0  0  0  0
   33.7121   11.8877  -15.5458 C   0  0  0  0  0  0  0  0  0  0  0  0
   33.7840   12.9139  -14.6252 C   0  0  0  0  0  0  0  0  0  0  0  0
   32.8815   13.6578  -13.9768 N   0  0  0  0  0  0  0  0  0  0  0  0
   33.5251   14.5270  -13.1854 C   0  0  0  0  0  0  0  0  0  0  0  0
   34.8689   14.3476  -13.3192 N   0  0  0  0  0  0  0  0  0  0  0  0
   35.0218   13.3443  -14.2149 C   0  0  0  0  0  0  0  0  0  0  0  0
   36.1135   12.7589  -14.7176 N   0  0  0  0  0  0  0  0  0  0  0  0
   35.9413   15.0693  -12.6513 C   0  0  0  0  0  0  0  0  0  0  0  0
   37.1644   15.2081  -13.5369 C   0  0  0  0  0  0  0  0  0  0  0  0
   36.2702   14.4910  -11.3084 C   0  0  0  0  0  0  0  0  0  0  0  0
   37.2748   11.1828  -16.1065 N   0  0  0  0  0  0  0  0  0  0  0  0
   37.2238   10.2184  -16.5594 H   0  0  0  0  0  0  0  0  0  0  0  0
   41.1339   12.9249  -16.1132 C   0  0  0  0  0  0  0  0  0  0  0  0
   40.2778   13.1195  -15.0572 C   0  0  0  0  0  0  0  0  0  0  0  0
   39.0066   12.5522  -15.0254 C   0  0  0  0  0  0  0  0  0  0  0  0
   38.5425   11.7757  -16.0372 C   0  0  0  0  0  0  0  0  0  0  0  0
   39.4407   11.5835  -17.1228 C   0  0  0  0  0  0  0  0  0  0  0  0
   40.6719   12.1411  -17.1380 C   0  0  0  0  0  0  0  0  0  0  0  0
   43.5301   12.6630  -16.2022 C   0  0  0  0  0  0  0  0  0  0  0  0
   42.3972   13.4962  -16.1310 O   0  0  0  0  0  0  0  0  0  0  0  0
   32.9348   15.4886  -12.3358 N   0  0  0  0  0  0  0  0  0  0  0  0
   32.9836   16.4984  -12.7044 H   0  0  0  0  0  0  0  0  0  0  0  0
   32.3039   15.3124  -11.0983 C   0  0  0  0  0  0  0  0  0  0  0  0
   32.7974   15.7320   -9.8872 C   0  0  0  0  0  0  0  0  0  0  0  0
   32.0703   15.4968   -8.7096 C   0  0  0  0  0  0  0  0  0  0  0  0
   30.8581   14.8474   -8.7340 C   0  0  0  0  0  0  0  0  0  0  0  0
   30.3464   14.4188   -9.9395 C   0  0  0  0  0  0  0  0  0  0  0  0
   31.0601   14.6539  -11.0629 C   0  0  0  0  0  0  0  0  0  0  0  0
   30.5173   14.2122  -12.2408 F   0  0  0  0  0  0  0  0  0  0  0  0
 21 22  1  0  0  0
 22 15  1  0  0  0
 15 16  2  0  0  0
 16 17  1  0  0  0
 17 18  2  0  0  0
 18 13  1  0  0  0
 13  1  1  0  0  0
  1  2  2  0  0  0
  2  3  1  0  0  0
  3  4  2  0  0  0
  4  5  1  0  0  0
  5  6  2  0  0  0
  6 23  1  0  0  0
 23 25  1  0  0  0
 25 26  2  0  0  0
 26 27  1  0  0  0
 27 28  2  0  0  0
 28 29  1  0  0  0
 29 30  2  0  0  0
 30 31  1  0  0  0
  6  7  1  0  0  0
  7 10  1  0  0  0
 10 11  1  0  0  0
 10 12  1  0  0  0
  7  8  1  0  0  0
  8  9  2  0  0  0
 18 19  1  0  0  0
 19 20  2  0  0  0
 20 15  1  0  0  0
  9  1  1  0  0  0
  8  4  1  0  0  0
 30 25  1  0  0  0
 13 14  1  0  0  0
 23 24  1  0  0  0
M  END
> <minimizedAffinity>
-8.14184

> <CNNscore>
0.2335933298

> <CNNaffinity>
6.4782838821

> <CNN_VS>
1.5132838488

> <CNNaffinity_variance>
0.4128630161

$$$$
[H]c1c([H])c([H])c(N([H])c2nc3c([H])nc(N([H])c4c([H])c([H])c(OC([H])([H])[H])c([H])c4[H])nc3n2C([H])(C([H])([H])[H])C([H])([H])[H])c(F)c1[H]


 31 34  0  0  0  0  0  0  0  0999 V2000
   33.6810   14.4983  -13.1287 C   0  0  0  0  0  0  0  0  0  0  0  0
   33.0560   13.6195  -13.9116 N   0  0  0  0  0  0  0  0  0  0  0  0
   33.6323   12.6611  -14.6347 C   0  0  0  0  0  0  0  0  0  0  0  0
   35.0071   12.5452  -14.5864 C   0  0  0  0  0  0  0  0  0  0  0  0
   35.9010   11.7315  -15.1583 N   0  0  0  0  0  0  0  0  0  0  0  0
   37.1282   12.0789  -14.7469 C   0  0  0  0  0  0  0  0  0  0  0  0
   37.0340   13.1362  -13.8930 N   0  0  0  0  0  0  0  0  0  0  0  0
   35.7139   13.4200  -13.7983 C   0  0  0  0  0  0  0  0  0  0  0  0
   35.0516   14.3522  -13.1057 N   0  0  0  0  0  0  0  0  0  0  0  0
   38.1110   13.8360  -13.2094 C   0  0  0  0  0  0  0  0  0  0  0  0
   37.6551   14.4152  -11.8842 C   0  0  0  0  0  0  0  0  0  0  0  0
   38.7739   14.8580  -14.0824 C   0  0  0  0  0  0  0  0  0  0  0  0
   33.0768   15.5022  -12.3712 N   0  0  0  0  0  0  0  0  0  0  0  0
   32.4849   16.2194  -12.8936 H   0  0  0  0  0  0  0  0  0  0  0  0
   33.5878   16.0452   -8.2032 C   0  0  0  0  0  0  0  0  0  0  0  0
   32.3335   15.9044   -8.7441 C   0  0  0  0  0  0  0  0  0  0  0  0
   32.1370   15.7168  -10.1098 C   0  0  0  0  0  0  0  0  0  0  0  0
   33.1749   15.6635  -10.9827 C   0  0  0  0  0  0  0  0  0  0  0  0
   34.4670   15.8105  -10.4072 C   0  0  0  0  0  0  0  0  0  0  0  0
   34.6405   15.9915   -9.0790 C   0  0  0  0  0  0  0  0  0  0  0  0
   34.3171   17.4422   -6.3770 C   0  0  0  0  0  0  0  0  0  0  0  0
   33.7681   16.2314   -6.8411 O   0  0  0  0  0  0  0  0  0  0  0  0
   38.3456   11.4676  -15.1198 N   0  0  0  0  0  0  0  0  0  0  0  0
   38.7419   10.7826  -14.3905 H   0  0  0  0  0  0  0  0  0  0  0  0
   39.0975   11.6269  -16.2902 C   0  0  0  0  0  0  0  0  0  0  0  0
   40.2539   12.3599  -16.3990 C   0  0  0  0  0  0  0  0  0  0  0  0
   40.9213   12.4457  -17.6310 C   0  0  0  0  0  0  0  0  0  0  0  0
   40.4427   11.8064  -18.7509 C   0  0  0  0  0  0  0  0  0  0  0  0
   39.2839   11.0661  -18.6618 C   0  0  0  0  0  0  0  0  0  0  0  0
   38.6547   10.9948  -17.4677 C   0  0  0  0  0  0  0  0  0  0  0  0
   37.5062   10.2493  -17.4206 F   0  0  0  0  0  0  0  0  0  0  0  0
 21 22  1  0  0  0
 22 15  1  0  0  0
 15 16  2  0  0  0
 16 17  1  0  0  0
 17 18  2  0  0  0
 18 13  1  0  0  0
 13  1  1  0  0  0
  1  2  2  0  0  0
  2  3  1  0  0  0
  3  4  2  0  0  0
  4  5  1  0  0  0
  5  6  2  0  0  0
  6 23  1  0  0  0
 23 25  1  0  0  0
 25 26  2  0  0  0
 26 27  1  0  0  0
 27 28  2  0  0  0
 28 29  1  0  0  0
 29 30  2  0  0  0
 30 31  1  0  0  0
  6  7  1  0  0  0
  7 10  1  0  0  0
 10 11  1  0  0  0
 10 12  1  0  0  0
  7  8  1  0  0  0
  8  9  2  0  0  0
 18 19  1  0  0  0
 19 20  2  0  0  0
 20 15  1  0  0  0
  9  1  1  0  0  0
  8  4  1  0  0  0
 30 25  1  0  0  0
 13 14  1  0  0  0
 23 24  1  0  0  0
M  END
> <minimizedAffinity>
-8.04777

> <CNNscore>
0.1516474932

> <CNNaffinity>
6.4380960464

> <CNN_VS>
0.9763211012

> <CNNaffinity_variance>
0.3449560702

$$$$
[H]c1c([H])c([H])c(N([H])c2nc3c([H])nc(N([H])c4c([H])c([H])c(OC([H])([H])[H])c([H])c4[H])nc3n2C([H])(C([H])([H])[H])C([H])([H])[H])c(F)c1[H]


 31 34  0  0  0  0  0  0  0  0999 V2000
   35.7477   15.2992  -10.6461 C   0  0  0  0  0  0  0  0  0  0  0  0
   37.0737   15.4081  -10.5719 N   0  0  0  0  0  0  0  0  0  0  0  0
   37.9566   14.8397  -11.3911 C   0  0  0  0  0  0  0  0  0  0  0  0
   37.4788   14.0582  -12.4240 C   0  0  0  0  0  0  0  0  0  0  0  0
   38.0473   13.3546  -13.4089 N   0  0  0  0  0  0  0  0  0  0  0  0
   37.0841   12.7762  -14.1395 C   0  0  0  0  0  0  0  0  0  0  0  0
   35.8676   13.1073  -13.6233 N   0  0  0  0  0  0  0  0  0  0  0  0
   36.1209   13.9035  -12.5583 C   0  0  0  0  0  0  0  0  0  0  0  0
   35.3079   14.5119  -11.6887 N   0  0  0  0  0  0  0  0  0  0  0  0
   34.5522   12.7042  -14.0967 C   0  0  0  0  0  0  0  0  0  0  0  0
   34.6283   11.4999  -15.0152 C   0  0  0  0  0  0  0  0  0  0  0  0
   33.7906   13.8416  -14.7069 C   0  0  0  0  0  0  0  0  0  0  0  0
   34.8230   15.8950   -9.7878 N   0  0  0  0  0  0  0  0  0  0  0  0
   33.9768   16.3676  -10.2331 H   0  0  0  0  0  0  0  0  0  0  0  0
   35.0999   15.8015   -5.5637 C   0  0  0  0  0  0  0  0  0  0  0  0
   35.0522   16.9970   -6.2377 C   0  0  0  0  0  0  0  0  0  0  0  0
   34.9532   17.0569   -7.6253 C   0  0  0  0  0  0  0  0  0  0  0  0
   34.8992   15.9363   -8.3892 C   0  0  0  0  0  0  0  0  0  0  0  0
   34.9493   14.7067   -7.6767 C   0  0  0  0  0  0  0  0  0  0  0  0
   35.0451   14.6659   -6.3290 C   0  0  0  0  0  0  0  0  0  0  0  0
   34.3220   16.5365   -3.4021 C   0  0  0  0  0  0  0  0  0  0  0  0
   35.1985   15.7573   -4.1814 O   0  0  0  0  0  0  0  0  0  0  0  0
   37.2667   11.9495  -15.2700 N   0  0  0  0  0  0  0  0  0  0  0  0
   36.4627   11.2572  -15.4501 H   0  0  0  0  0  0  0  0  0  0  0  0
   38.3335   11.9066  -16.1758 C   0  0  0  0  0  0  0  0  0  0  0  0
   39.5269   12.5708  -16.0311 C   0  0  0  0  0  0  0  0  0  0  0  0
   40.5250   12.4494  -17.0108 C   0  0  0  0  0  0  0  0  0  0  0  0
   40.3392   11.6718  -18.1300 C   0  0  0  0  0  0  0  0  0  0  0  0
   39.1485   10.9976  -18.2932 C   0  0  0  0  0  0  0  0  0  0  0  0
   38.1990   11.1262  -17.3399 C   0  0  0  0  0  0  0  0  0  0  0  0
   37.0299   10.4404  -17.5390 F   0  0  0  0  0  0  0  0  0  0  0  0
 21 22  1  0  0  0
 22 15  1  0  0  0
 15 16  2  0  0  0
 16 17  1  0  0  0
 17 18  2  0  0  0
 18 13  1  0  0  0
 13  1  1  0  0  0
  1  2  2  0  0  0
  2  3  1  0  0  0
  3  4  2  0  0  0
  4  5  1  0  0  0
  5  6  2  0  0  0
  6 23  1  0  0  0
 23 25  1  0  0  0
 25 26  2  0  0  0
 26 27  1  0  0  0
 27 28  2  0  0  0
 28 29  1  0  0  0
 29 30  2  0  0  0
 30 31  1  0  0  0
  6  7  1  0  0  0
  7 10  1  0  0  0
 10 11  1  0  0  0
 10 12  1  0  0  0
  7  8  1  0  0  0
  8  9  2  0  0  0
 18 19  1  0  0  0
 19 20  2  0  0  0
 20 15  1  0  0  0
  9  1  1  0  0  0
  8  4  1  0  0  0
 30 25  1  0  0  0
 13 14  1  0  0  0
 23 24  1  0  0  0
M  END
> <minimizedAffinity>
-7.73875

> <CNNscore>
0.0918647945

> <CNNaffinity>
6.1361842155

> <CNN_VS>
0.5636993051

> <CNNaffinity_variance>
0.1591310054

$$$$
[H]c1c([H])c([H])c(N([H])c2nc3c([H])nc(N([H])c4c([H])c([H])c(OC([H])([H])[H])c([H])c4[H])nc3n2C([H])(C([H])([H])[H])C([H])([H])[H])c(F)c1[H]


 31 34  0  0  0  0  0  0  0  0999 V2000
   36.0843   15.6235  -12.4006 C   0  0  0  0  0  0  0  0  0  0  0  0
   35.0228   14.8399  -12.5872 N   0  0  0  0  0  0  0  0  0  0  0  0
   35.0041   13.6858  -13.2514 C   0  0  0  0  0  0  0  0  0  0  0  0
   36.1837   13.2355  -13.8096 C   0  0  0  0  0  0  0  0  0  0  0  0
   36.5341   12.1592  -14.5218 N   0  0  0  0  0  0  0  0  0  0  0  0
   37.8414   12.2356  -14.8070 C   0  0  0  0  0  0  0  0  0  0  0  0
   38.3524   13.3798  -14.2726 N   0  0  0  0  0  0  0  0  0  0  0  0
   37.3171   13.9953  -13.6549 C   0  0  0  0  0  0  0  0  0  0  0  0
   37.2430   15.1421  -12.9716 N   0  0  0  0  0  0  0  0  0  0  0  0
   39.7223   13.8659  -14.3362 C   0  0  0  0  0  0  0  0  0  0  0  0
   39.9922   14.9296  -13.2897 C   0  0  0  0  0  0  0  0  0  0  0  0
   40.1087   14.3089  -15.7148 C   0  0  0  0  0  0  0  0  0  0  0  0
   36.1036   16.8325  -11.7045 N   0  0  0  0  0  0  0  0  0  0  0  0
   35.7318   17.6942  -12.2114 H   0  0  0  0  0  0  0  0  0  0  0  0
   37.4051   17.2348   -7.6954 C   0  0  0  0  0  0  0  0  0  0  0  0
   37.9502   18.0075   -8.6913 C   0  0  0  0  0  0  0  0  0  0  0  0
   37.5356   17.9015  -10.0163 C   0  0  0  0  0  0  0  0  0  0  0  0
   36.5697   17.0275  -10.3975 C   0  0  0  0  0  0  0  0  0  0  0  0
   36.0151   16.2351   -9.3550 C   0  0  0  0  0  0  0  0  0  0  0  0
   36.4286   16.3506   -8.0733 C   0  0  0  0  0  0  0  0  0  0  0  0
   38.7822   16.4450   -5.8794 C   0  0  0  0  0  0  0  0  0  0  0  0
   37.8280   17.3514   -6.3802 O   0  0  0  0  0  0  0  0  0  0  0  0
   38.5989   11.2971  -15.5419 N   0  0  0  0  0  0  0  0  0  0  0  0
   39.0691   10.5369  -14.9426 H   0  0  0  0  0  0  0  0  0  0  0  0
   38.8197   11.2198  -16.9224 C   0  0  0  0  0  0  0  0  0  0  0  0
   39.9913   11.5475  -17.5600 C   0  0  0  0  0  0  0  0  0  0  0  0
   40.0924   11.4280  -18.9550 C   0  0  0  0  0  0  0  0  0  0  0  0
   39.0346   10.9849  -19.7144 C   0  0  0  0  0  0  0  0  0  0  0  0
   37.8508   10.6513  -19.0930 C   0  0  0  0  0  0  0  0  0  0  0  0
   37.7717   10.7727  -17.7492 C   0  0  0  0  0  0  0  0  0  0  0  0
   36.5782   10.4312  -17.1695 F   0  0  0  0  0  0  0  0  0  0  0  0
 21 22  1  0  0  0
 22 15  1  0  0  0
 15 16  2  0  0  0
 16 17  1  0  0  0
 17 18  2  0  0  0
 18 13  1  0  0  0
 13  1  1  0  0  0
  1  2  2  0  0  0
  2  3  1  0  0  0
  3  4  2  0  0  0
  4  5  1  0  0  0
  5  6  2  0  0  0
  6 23  1  0  0  0
 23 25  1  0  0  0
 25 26  2  0  0  0
 26 27  1  0  0  0
 27 28  2  0  0  0
 28 29  1  0  0  0
 29 30  2  0  0  0
 30 31  1  0  0  0
  6  7  1  0  0  0
  7 10  1  0  0  0
 10 11  1  0  0  0
 10 12  1  0  0  0
  7  8  1  0  0  0
  8  9  2  0  0  0
 18 19  1  0  0  0
 19 20  2  0  0  0
 20 15  1  0  0  0
  9  1  1  0  0  0
  8  4  1  0  0  0
 30 25  1  0  0  0
 13 14  1  0  0  0
 23 24  1  0  0  0
M  END
> <minimizedAffinity>
-7.76757

> <CNNscore>
0.0724767298

> <CNNaffinity>
6.0546121597

> <CNN_VS>
0.4388184845

> <CNNaffinity_variance>
0.2811372876

$$$$
[H]c1c([H])c([H])c(N([H])c2nc3c([H])nc(N([H])c4c([H])c([H])c(OC([H])([H])[H])c([H])c4[H])nc3n2C([H])(C([H])([H])[H])C([H])([H])[H])c(F)c1[H]


 31 34  0  0  0  0  0  0  0  0999 V2000
   40.9555   16.0305  -12.4900 C   0  0  0  0  0  0  0  0  0  0  0  0
   39.8037   16.1468  -11.8302 N   0  0  0  0  0  0  0  0  0  0  0  0
   38.6736   15.4958  -12.0999 C   0  0  0  0  0  0  0  0  0  0  0  0
   38.6680   14.6102  -13.1589 C   0  0  0  0  0  0  0  0  0  0  0  0
   37.7490   13.8074  -13.7060 N   0  0  0  0  0  0  0  0  0  0  0  0
   38.3027   13.1555  -14.7377 C   0  0  0  0  0  0  0  0  0  0  0  0
   39.6037   13.5388  -14.8662 N   0  0  0  0  0  0  0  0  0  0  0  0
   39.8230   14.4422  -13.8823 C   0  0  0  0  0  0  0  0  0  0  0  0
   40.9119   15.1383  -13.5400 N   0  0  0  0  0  0  0  0  0  0  0  0
   40.5791   13.0882  -15.8473 C   0  0  0  0  0  0  0  0  0  0  0  0
   41.9779   13.0277  -15.2649 C   0  0  0  0  0  0  0  0  0  0  0  0
   40.5221   13.8823  -17.1170 C   0  0  0  0  0  0  0  0  0  0  0  0
   42.1394   16.7126  -12.2072 N   0  0  0  0  0  0  0  0  0  0  0  0
   42.0669   17.5858  -11.5988 H   0  0  0  0  0  0  0  0  0  0  0  0
   46.0555   15.8713  -13.5799 C   0  0  0  0  0  0  0  0  0  0  0  0
   45.3100   14.9054  -12.9497 C   0  0  0  0  0  0  0  0  0  0  0  0
   44.0172   15.1524  -12.4954 C   0  0  0  0  0  0  0  0  0  0  0  0
   43.4220   16.3625  -12.6496 C   0  0  0  0  0  0  0  0  0  0  0  0
   44.2066   17.3516  -13.3041 C   0  0  0  0  0  0  0  0  0  0  0  0
   45.4603   17.0954  -13.7396 C   0  0  0  0  0  0  0  0  0  0  0  0
   47.6198   14.3781  -14.6484 C   0  0  0  0  0  0  0  0  0  0  0  0
   47.3418   15.6108  -14.0271 O   0  0  0  0  0  0  0  0  0  0  0  0
   37.6671   12.2149  -15.5781 N   0  0  0  0  0  0  0  0  0  0  0  0
   38.3335   11.6809  -16.2330 H   0  0  0  0  0  0  0  0  0  0  0  0
   36.3097   11.8856  -15.6755 C   0  0  0  0  0  0  0  0  0  0  0  0
   35.3205   12.3330  -14.8343 C   0  0  0  0  0  0  0  0  0  0  0  0
   33.9901   11.9319  -15.0339 C   0  0  0  0  0  0  0  0  0  0  0  0
   33.6429   11.0898  -16.0645 C   0  0  0  0  0  0  0  0  0  0  0  0
   34.6213   10.6302  -16.9192 C   0  0  0  0  0  0  0  0  0  0  0  0
   35.8966   11.0268  -16.7118 C   0  0  0  0  0  0  0  0  0  0  0  0
   36.8396   10.5481  -17.5828 F   0  0  0  0  0  0  0  0  0  0  0  0
 21 22  1  0  0  0
 22 15  1  0  0  0
 15 16  2  0  0  0
 16 17  1  0  0  0
 17 18  2  0  0  0
 18 13  1  0  0  0
 13  1  1  0  0  0
  1  2  2  0  0  0
  2  3  1  0  0  0
  3  4  2  0  0  0
  4  5  1  0  0  0
  5  6  2  0  0  0
  6 23  1  0  0  0
 23 25  1  0  0  0
 25 26  2  0  0  0
 26 27  1  0  0  0
 27 28  2  0  0  0
 28 29  1  0  0  0
 29 30  2  0  0  0
 30 31  1  0  0  0
  6  7  1  0  0  0
  7 10  1  0  0  0
 10 11  1  0  0  0
 10 12  1  0  0  0
  7  8  1  0  0  0
  8  9  2  0  0  0
 18 19  1  0  0  0
 19 20  2  0  0  0
 20 15  1  0  0  0
  9  1  1  0  0  0
  8  4  1  0  0  0
 30 25  1  0  0  0
 13 14  1  0  0  0
 23 24  1  0  0  0
M  END
> <minimizedAffinity>
-8.05885

> <CNNscore>
0.0708617121

> <CNNaffinity>
5.9764628410

> <CNN_VS>
0.4235023856

> <CNNaffinity_variance>
0.2443282306

$$$$
[H]c1c([H])c([H])c(N([H])c2nc3c([H])nc(N([H])c4c([H])c([H])c(OC([H])([H])[H])c([H])c4[H])nc3n2C([H])(C([H])([H])[H])C([H])([H])[H])c(F)c1[H]


 31 34  0  0  0  0  0  0  0  0999 V2000
   37.9112   14.8934  -12.5164 C   0  0  0  0  0  0  0  0  0  0  0  0
   37.8296   15.8568  -11.5993 N   0  0  0  0  0  0  0  0  0  0  0  0
   36.7113   16.3271  -11.0501 C   0  0  0  0  0  0  0  0  0  0  0  0
   35.5082   15.7819  -11.4516 C   0  0  0  0  0  0  0  0  0  0  0  0
   34.2277   15.9947  -11.1303 N   0  0  0  0  0  0  0  0  0  0  0  0
   33.4579   15.1618  -11.8443 C   0  0  0  0  0  0  0  0  0  0  0  0
   34.2485   14.3931  -12.6444 N   0  0  0  0  0  0  0  0  0  0  0  0
   35.5202   14.7840  -12.3949 C   0  0  0  0  0  0  0  0  0  0  0  0
   36.6912   14.3735  -12.8926 N   0  0  0  0  0  0  0  0  0  0  0  0
   33.8395   13.3589  -13.5825 C   0  0  0  0  0  0  0  0  0  0  0  0
   34.7501   12.1479  -13.5187 C   0  0  0  0  0  0  0  0  0  0  0  0
   33.6809   13.8823  -14.9778 C   0  0  0  0  0  0  0  0  0  0  0  0
   39.0831   14.4007  -13.0916 N   0  0  0  0  0  0  0  0  0  0  0  0
   40.0037   14.6474  -12.6126 H   0  0  0  0  0  0  0  0  0  0  0  0
   39.5318   12.1252  -16.6340 C   0  0  0  0  0  0  0  0  0  0  0  0
   38.6257   11.7539  -15.6712 C   0  0  0  0  0  0  0  0  0  0  0  0
   38.4521   12.4879  -14.5008 C   0  0  0  0  0  0  0  0  0  0  0  0
   39.1698   13.6113  -14.2460 C   0  0  0  0  0  0  0  0  0  0  0  0
   40.1033   13.9828  -15.2524 C   0  0  0  0  0  0  0  0  0  0  0  0
   40.2594   13.2593  -16.3834 C   0  0  0  0  0  0  0  0  0  0  0  0
   40.9577   11.3399  -18.4140 C   0  0  0  0  0  0  0  0  0  0  0  0
   39.6939   11.3844  -17.7947 O   0  0  0  0  0  0  0  0  0  0  0  0
   32.0493   15.0699  -11.7987 N   0  0  0  0  0  0  0  0  0  0  0  0
   31.5757   15.0047  -12.7628 H   0  0  0  0  0  0  0  0  0  0  0  0
   31.1960   15.0519  -10.6887 C   0  0  0  0  0  0  0  0  0  0  0  0
   31.5441   15.4195   -9.4119 C   0  0  0  0  0  0  0  0  0  0  0  0
   30.5971   15.3584   -8.3774 C   0  0  0  0  0  0  0  0  0  0  0  0
   29.3095   14.9340   -8.6093 C   0  0  0  0  0  0  0  0  0  0  0  0
   28.9411   14.5610   -9.8837 C   0  0  0  0  0  0  0  0  0  0  0  0
   29.8660   14.6262  -10.8671 C   0  0  0  0  0  0  0  0  0  0  0  0
   29.4605   14.2469  -12.1196 F   0  0  0  0  0  0  0  0  0  0  0  0
 21 22  1  0  0  0
 22 15  1  0  0  0
 15 16  2  0  0  0
 16 17  1  0  0  0
 17 18  2  0  0  0
 18 13  1  0  0  0
 13  1  1  0  0  0
  1  2  2  0  0  0
  2  3  1  0  0  0
  3  4  2  0  0  0
  4  5  1  0  0  0
  5  6  2  0  0  0
  6 23  1  0  0  0
 23 25  1  0  0  0
 25 26  2  0  0  0
 26 27  1  0  0  0
 27 28  2  0  0  0
 28 29  1  0  0  0
 29 30  2  0  0  0
 30 31  1  0  0  0
  6  7  1  0  0  0
  7 10  1  0  0  0
 10 11  1  0  0  0
 10 12  1  0  0  0
  7  8  1  0  0  0
  8  9  2  0  0  0
 18 19  1  0  0  0
 19 20  2  0  0  0
 20 15  1  0  0  0
  9  1  1  0  0  0
  8  4  1  0  0  0
 30 25  1  0  0  0
 13 14  1  0  0  0
 23 24  1  0  0  0
M  END
> <minimizedAffinity>
-8.43088

> <CNNscore>
0.0619238019

> <CNNaffinity>
6.1322569847

> <CNN_VS>
0.3797326684

> <CNNaffinity_variance>
0.3880254328

$$$$
[H]c1c([H])c([H])c(N([H])c2nc3c([H])nc(N([H])c4c([H])c([H])c(OC([H])([H])[H])c([H])c4[H])nc3n2C([H])(C([H])([H])[H])C([H])([H])[H])c(F)c1[H]


 31 34  0  0  0  0  0  0  0  0999 V2000
   35.7223   12.0947  -15.3814 C   0  0  0  0  0  0  0  0  0  0  0  0
   34.3927   12.1571  -15.4443 N   0  0  0  0  0  0  0  0  0  0  0  0
   33.6005   12.8748  -14.6500 C   0  0  0  0  0  0  0  0  0  0  0  0
   34.1874   13.6356  -13.6588 C   0  0  0  0  0  0  0  0  0  0  0  0
   33.7263   14.4539  -12.7069 N   0  0  0  0  0  0  0  0  0  0  0  0
   34.7646   14.9355  -12.0096 C   0  0  0  0  0  0  0  0  0  0  0  0
   35.9218   14.4234  -12.5143 N   0  0  0  0  0  0  0  0  0  0  0  0
   35.5552   13.6172  -13.5381 C   0  0  0  0  0  0  0  0  0  0  0  0
   36.2724   12.8666  -14.3804 N   0  0  0  0  0  0  0  0  0  0  0  0
   37.2836   14.6729  -12.0669 C   0  0  0  0  0  0  0  0  0  0  0  0
   37.3578   15.8533  -11.1179 C   0  0  0  0  0  0  0  0  0  0  0  0
   38.2473   14.7950  -13.2080 C   0  0  0  0  0  0  0  0  0  0  0  0
   36.5520   11.3428  -16.2138 N   0  0  0  0  0  0  0  0  0  0  0  0
   36.1222   10.4925  -16.6933 H   0  0  0  0  0  0  0  0  0  0  0  0
   40.6621   12.1691  -16.8079 C   0  0  0  0  0  0  0  0  0  0  0  0
   39.9412   11.4796  -17.7517 C   0  0  0  0  0  0  0  0  0  0  0  0
   38.5871   11.2011  -17.5857 C   0  0  0  0  0  0  0  0  0  0  0  0
   37.9043   11.5952  -16.4808 C   0  0  0  0  0  0  0  0  0  0  0  0
   38.6644   12.3082  -15.5134 C   0  0  0  0  0  0  0  0  0  0  0  0
   39.9785   12.5708  -15.6901 C   0  0  0  0  0  0  0  0  0  0  0  0
   42.7533   12.9788  -15.9194 C   0  0  0  0  0  0  0  0  0  0  0  0
   42.0102   12.4393  -16.9869 O   0  0  0  0  0  0  0  0  0  0  0  0
   34.7037   15.8321  -10.9201 N   0  0  0  0  0  0  0  0  0  0  0  0
   35.4164   16.6371  -10.9654 H   0  0  0  0  0  0  0  0  0  0  0  0
   33.8567   15.8189   -9.8053 C   0  0  0  0  0  0  0  0  0  0  0  0
   32.4942   15.9893   -9.8396 C   0  0  0  0  0  0  0  0  0  0  0  0
   31.7491   15.9559   -8.6504 C   0  0  0  0  0  0  0  0  0  0  0  0
   32.3539   15.7540   -7.4317 C   0  0  0  0  0  0  0  0  0  0  0  0
   33.7199   15.5809   -7.3767 C   0  0  0  0  0  0  0  0  0  0  0  0
   34.4211   15.6162   -8.5316 C   0  0  0  0  0  0  0  0  0  0  0  0
   35.7763   15.4401   -8.4346 F   0  0  0  0  0  0  0  0  0  0  0  0
 21 22  1  0  0  0
 22 15  1  0  0  0
 15 16  2  0  0  0
 16 17  1  0  0  0
 17 18  2  0  0  0
 18 13  1  0  0  0
 13  1  1  0  0  0
  1  2  2  0  0  0
  2  3  1  0  0  0
  3  4  2  0  0  0
  4  5  1  0  0  0
  5  6  2  0  0  0
  6 23  1  0  0  0
 23 25  1  0  0  0
 25 26  2  0  0  0
 26 27  1  0  0  0
 27 28  2  0  0  0
 28 29  1  0  0  0
 29 30  2  0  0  0
 30 31  1  0  0  0
  6  7  1  0  0  0
  7 10  1  0  0  0
 10 11  1  0  0  0
 10 12  1  0  0  0
  7  8  1  0  0  0
  8  9  2  0  0  0
 18 19  1  0  0  0
 19 20  2  0  0  0
 20 15  1  0  0  0
  9  1  1  0  0  0
  8  4  1  0  0  0
 30 25  1  0  0  0
 13 14  1  0  0  0
 23 24  1  0  0  0
M  END
> <minimizedAffinity>
-8.17301

> <CNNscore>
0.0558702871

> <CNNaffinity>
6.3200521469

> <CNN_VS>
0.3531031311

> <CNNaffinity_variance>
0.3497660458

$$$$
[H]c1nc(-c2c([H])c([H])c(OC([H])([H])C([H])([H])C([H])([H])N3C([H])([H])C([H])([H])C([H])(C([H])([H])c4c([H])nc([H])n4[H])C([H])([H])C3([H])[H])c([H])c2[H])nc([H])c1[H]


 29 32  0  0  0  0  0  0  0  0999 V2000
   35.6237   14.4468  -12.9031 C   0  0  0  0  0  0  0  0  0  0  0  0
   36.9912   14.1630  -12.3102 C   0  0  0  0  0  0  0  0  0  0  0  0
   37.8998   15.0280  -12.9193 O   0  0  0  0  0  0  0  0  0  0  0  0
   41.5889   13.7546  -14.5376 C   0  0  0  0  0  0  0  0  0  0  0  0
   40.3902   13.2615  -15.0053 C   0  0  0  0  0  0  0  0  0  0  0  0
   39.1719   13.6796  -14.4734 C   0  0  0  0  0  0  0  0  0  0  0  0
   39.1223   14.6064  -13.4551 C   0  0  0  0  0  0  0  0  0  0  0  0
   40.3243   15.0967  -12.9908 C   0  0  0  0  0  0  0  0  0  0  0  0
   41.5415   14.6816  -13.5193 C   0  0  0  0  0  0  0  0  0  0  0  0
   45.2789   12.5028  -16.1216 C   0  0  0  0  0  0  0  0  0  0  0  0
   45.2187   13.3114  -15.0080 C   0  0  0  0  0  0  0  0  0  0  0  0
   44.0179   13.6883  -14.5346 N   0  0  0  0  0  0  0  0  0  0  0  0
   42.8593   13.3107  -15.1007 C   0  0  0  0  0  0  0  0  0  0  0  0
   42.9234   12.5246  -16.1831 N   0  0  0  0  0  0  0  0  0  0  0  0
   44.1039   12.1096  -16.7098 C   0  0  0  0  0  0  0  0  0  0  0  0
   34.9624   13.1258  -13.2242 C   0  0  0  0  0  0  0  0  0  0  0  0
   34.4919   13.0645  -14.5957 N   0  0  0  0  0  0  0  0  0  0  0  0
   35.5736   13.5348  -15.4404 C   0  0  0  0  0  0  0  0  0  0  0  0
   36.4573   12.3390  -15.8177 C   0  0  0  0  0  0  0  0  0  0  0  0
   35.6775   11.5565  -16.8434 C   0  0  0  0  0  0  0  0  0  0  0  0
   34.2902   11.3477  -16.3386 C   0  0  0  0  0  0  0  0  0  0  0  0
   34.1481   11.6859  -14.8730 C   0  0  0  0  0  0  0  0  0  0  0  0
   36.3703   10.2692  -17.2236 C   0  0  0  0  0  0  0  0  0  0  0  0
   37.6650   10.6037  -17.8494 C   0  0  0  0  0  0  0  0  0  0  0  0
   38.8563   10.8944  -17.2401 C   0  0  0  0  0  0  0  0  0  0  0  0
   39.7711   11.1377  -18.1756 N   0  0  0  0  0  0  0  0  0  0  0  0
   39.1843   11.0072  -19.3699 C   0  0  0  0  0  0  0  0  0  0  0  0
   37.9023   10.6821  -19.1651 N   0  0  0  0  0  0  0  0  0  0  0  0
   37.1912   10.5142  -19.9313 H   0  0  0  0  0  0  0  0  0  0  0  0
 10 11  2  0  0  0
 11 12  1  0  0  0
 12 13  2  0  0  0
 13  4  1  0  0  0
  4  5  2  0  0  0
  5  6  1  0  0  0
  6  7  2  0  0  0
  7  3  1  0  0  0
  3  2  1  0  0  0
  2  1  1  0  0  0
  1 16  1  0  0  0
 16 17  1  0  0  0
 17 18  1  0  0  0
 18 19  1  0  0  0
 19 20  1  0  0  0
 20 23  1  0  0  0
 23 24  1  0  0  0
 24 25  2  0  0  0
 25 26  1  0  0  0
 26 27  2  0  0  0
 27 28  1  0  0  0
 20 21  1  0  0  0
 21 22  1  0  0  0
  7  8  1  0  0  0
  8  9  2  0  0  0
 13 14  1  0  0  0
 14 15  2  0  0  0
 15 10  1  0  0  0
  9  4  1  0  0  0
 22 17  1  0  0  0
 28 24  1  0  0  0
 28 29  1  0  0  0
M  END
> <minimizedAffinity>
-7.69731

> <CNNscore>
0.6411921978

> <CNNaffinity>
7.5588922501

> <CNN_VS>
4.8467025757

> <CNNaffinity_variance>
0.0483228900

$$$$
[H]c1nc(-c2c([H])c([H])c(OC([H])([H])C([H])([H])C([H])([H])N3C([H])([H])C([H])([H])C([H])(C([H])([H])c4c([H])nc([H])n4[H])C([H])([H])C3([H])[H])c([H])c2[H])nc([H])c1[H]


 29 32  0  0  0  0  0  0  0  0999 V2000
   33.2784   13.7072  -12.8577 C   0  0  0  0  0  0  0  0  0  0  0  0
   33.4618   15.1203  -12.3366 C   0  0  0  0  0  0  0  0  0  0  0  0
   32.4069   15.3854  -11.4638 O   0  0  0  0  0  0  0  0  0  0  0  0
   32.9616   16.5982   -7.4550 C   0  0  0  0  0  0  0  0  0  0  0  0
   34.0326   16.3560   -8.2875 C   0  0  0  0  0  0  0  0  0  0  0  0
   33.8527   15.9558   -9.6102 C   0  0  0  0  0  0  0  0  0  0  0  0
   32.5902   15.7872  -10.1356 C   0  0  0  0  0  0  0  0  0  0  0  0
   31.5221   16.0309   -9.2986 C   0  0  0  0  0  0  0  0  0  0  0  0
   31.6981   16.4302   -7.9785 C   0  0  0  0  0  0  0  0  0  0  0  0
   33.5677   17.8451   -3.4838 C   0  0  0  0  0  0  0  0  0  0  0  0
   34.1873   18.4854   -4.5345 C   0  0  0  0  0  0  0  0  0  0  0  0
   33.9657   18.0541   -5.7886 N   0  0  0  0  0  0  0  0  0  0  0  0
   33.1599   17.0167   -6.0716 C   0  0  0  0  0  0  0  0  0  0  0  0
   32.5600   16.3977   -5.0467 N   0  0  0  0  0  0  0  0  0  0  0  0
   32.7424   16.7846   -3.7581 C   0  0  0  0  0  0  0  0  0  0  0  0
   34.1354   13.5419  -14.0922 C   0  0  0  0  0  0  0  0  0  0  0  0
   34.9916   12.3726  -14.0156 N   0  0  0  0  0  0  0  0  0  0  0  0
   35.2267   11.9248  -15.3753 C   0  0  0  0  0  0  0  0  0  0  0  0
   36.4650   12.6461  -15.9225 C   0  0  0  0  0  0  0  0  0  0  0  0
   37.6499   11.9998  -15.2510 C   0  0  0  0  0  0  0  0  0  0  0  0
   37.3954   11.9325  -13.7835 C   0  0  0  0  0  0  0  0  0  0  0  0
   36.2168   12.7769  -13.3588 C   0  0  0  0  0  0  0  0  0  0  0  0
   38.9469   12.6923  -15.5969 C   0  0  0  0  0  0  0  0  0  0  0  0
   39.4499   12.1330  -16.8673 C   0  0  0  0  0  0  0  0  0  0  0  0
   40.5607   12.4994  -17.5794 C   0  0  0  0  0  0  0  0  0  0  0  0
   40.6463   11.7375  -18.6672 N   0  0  0  0  0  0  0  0  0  0  0  0
   39.6103   10.8924  -18.6612 C   0  0  0  0  0  0  0  0  0  0  0  0
   38.8854   11.1377  -17.5633 N   0  0  0  0  0  0  0  0  0  0  0  0
   38.0024   10.6198  -17.2934 H   0  0  0  0  0  0  0  0  0  0  0  0
 10 11  2  0  0  0
 11 12  1  0  0  0
 12 13  2  0  0  0
 13  4  1  0  0  0
  4  5  2  0  0  0
  5  6  1  0  0  0
  6  7  2  0  0  0
  7  3  1  0  0  0
  3  2  1  0  0  0
  2  1  1  0  0  0
  1 16  1  0  0  0
 16 17  1  0  0  0
 17 18  1  0  0  0
 18 19  1  0  0  0
 19 20  1  0  0  0
 20 23  1  0  0  0
 23 24  1  0  0  0
 24 25  2  0  0  0
 25 26  1  0  0  0
 26 27  2  0  0  0
 27 28  1  0  0  0
 20 21  1  0  0  0
 21 22  1  0  0  0
  7  8  1  0  0  0
  8  9  2  0  0  0
 13 14  1  0  0  0
 14 15  2  0  0  0
 15 10  1  0  0  0
  9  4  1  0  0  0
 22 17  1  0  0  0
 28 24  1  0  0  0
 28 29  1  0  0  0
M  END
> <minimizedAffinity>
-7.08012

> <CNNscore>
0.2933970690

> <CNNaffinity>
6.0497980118

> <CNN_VS>
1.7749930620

> <CNNaffinity_variance>
0.4559367299

$$$$
[H]c1nc(-c2c([H])c([H])c(OC([H])([H])C([H])([H])C([H])([H])N3C([H])([H])C([H])([H])C([H])(C([H])([H])c4c([H])nc([H])n4[H])C([H])([H])C3([H])[H])c([H])c2[H])nc([H])c1[H]


 29 32  0  0  0  0  0  0  0  0999 V2000
   34.3701   14.8642  -12.6857 C   0  0  0  0  0  0  0  0  0  0  0  0
   33.5478   13.6736  -13.1421 C   0  0  0  0  0  0  0  0  0  0  0  0
   34.3775   12.5533  -13.1081 O   0  0  0  0  0  0  0  0  0  0  0  0
   37.8319   12.1504  -15.5068 C   0  0  0  0  0  0  0  0  0  0  0  0
   36.5801   12.2872  -16.0664 C   0  0  0  0  0  0  0  0  0  0  0  0
   35.4389   12.4203  -15.2777 C   0  0  0  0  0  0  0  0  0  0  0  0
   35.5223   12.4197  -13.9024 C   0  0  0  0  0  0  0  0  0  0  0  0
   36.7770   12.2827  -13.3476 C   0  0  0  0  0  0  0  0  0  0  0  0
   37.9174   12.1497  -14.1317 C   0  0  0  0  0  0  0  0  0  0  0  0
   41.2879   11.7823  -17.8759 C   0  0  0  0  0  0  0  0  0  0  0  0
   41.2948   12.5246  -16.7155 C   0  0  0  0  0  0  0  0  0  0  0  0
   40.1678   12.6159  -15.9880 N   0  0  0  0  0  0  0  0  0  0  0  0
   39.0208   12.0116  -16.3408 C   0  0  0  0  0  0  0  0  0  0  0  0
   39.0193   11.2911  -17.4698 N   0  0  0  0  0  0  0  0  0  0  0  0
   40.1239   11.1598  -18.2483 C   0  0  0  0  0  0  0  0  0  0  0  0
   33.9844   15.1887  -11.2604 C   0  0  0  0  0  0  0  0  0  0  0  0
   34.8679   16.1718  -10.6611 N   0  0  0  0  0  0  0  0  0  0  0  0
   34.8383   15.9555   -9.2268 C   0  0  0  0  0  0  0  0  0  0  0  0
   35.9240   14.9352   -8.8617 C   0  0  0  0  0  0  0  0  0  0  0  0
   37.2349   15.6724   -8.9641 C   0  0  0  0  0  0  0  0  0  0  0  0
   37.2800   16.3981  -10.2658 C   0  0  0  0  0  0  0  0  0  0  0  0
   36.1889   15.9590  -11.2139 C   0  0  0  0  0  0  0  0  0  0  0  0
   38.4190   14.7586   -8.7531 C   0  0  0  0  0  0  0  0  0  0  0  0
   38.5697   14.5175   -7.3043 C   0  0  0  0  0  0  0  0  0  0  0  0
   38.8968   13.3523   -6.6637 C   0  0  0  0  0  0  0  0  0  0  0  0
   38.9248   13.5746   -5.3519 N   0  0  0  0  0  0  0  0  0  0  0  0
   38.6217   14.8602   -5.1450 C   0  0  0  0  0  0  0  0  0  0  0  0
   38.4065   15.4292   -6.3370 N   0  0  0  0  0  0  0  0  0  0  0  0
   38.1474   16.4452   -6.4843 H   0  0  0  0  0  0  0  0  0  0  0  0
 10 11  2  0  0  0
 11 12  1  0  0  0
 12 13  2  0  0  0
 13  4  1  0  0  0
  4  5  2  0  0  0
  5  6  1  0  0  0
  6  7  2  0  0  0
  7  3  1  0  0  0
  3  2  1  0  0  0
  2  1  1  0  0  0
  1 16  1  0  0  0
 16 17  1  0  0  0
 17 18  1  0  0  0
 18 19  1  0  0  0
 19 20  1  0  0  0
 20 23  1  0  0  0
 23 24  1  0  0  0
 24 25  2  0  0  0
 25 26  1  0  0  0
 26 27  2  0  0  0
 27 28  1  0  0  0
 20 21  1  0  0  0
 21 22  1  0  0  0
  7  8  1  0  0  0
  8  9  2  0  0  0
 13 14  1  0  0  0
 14 15  2  0  0  0
 15 10  1  0  0  0
  9  4  1  0  0  0
 22 17  1  0  0  0
 28 24  1  0  0  0
 28 29  1  0  0  0
M  END
> <minimizedAffinity>
-7.28330

> <CNNscore>
0.1905162334

> <CNNaffinity>
5.9973716736

> <CNN_VS>
1.1425966024

> <CNNaffinity_variance>
0.1418283880

$$$$
[H]c1nc(-c2c([H])c([H])c(OC([H])([H])C([H])([H])C([H])([H])N3C([H])([H])C([H])([H])C([H])(C([H])([H])c4c([H])nc([H])n4[H])C([H])([H])C3([H])[H])c([H])c2[H])nc([H])c1[H]


 29 32  0  0  0  0  0  0  0  0999 V2000
   33.9337   14.1279  -12.4635 C   0  0  0  0  0  0  0  0  0  0  0  0
   34.6543   15.3783  -11.9953 C   0  0  0  0  0  0  0  0  0  0  0  0
   35.1663   15.1162  -10.7250 O   0  0  0  0  0  0  0  0  0  0  0  0
   39.2245   15.6845   -9.6967 C   0  0  0  0  0  0  0  0  0  0  0  0
   38.7352   16.0627  -10.9281 C   0  0  0  0  0  0  0  0  0  0  0  0
   37.3971   15.8764  -11.2700 C   0  0  0  0  0  0  0  0  0  0  0  0
   36.5108   15.3042  -10.3838 C   0  0  0  0  0  0  0  0  0  0  0  0
   37.0054   14.9278   -9.1532 C   0  0  0  0  0  0  0  0  0  0  0  0
   38.3397   15.1122   -8.8089 C   0  0  0  0  0  0  0  0  0  0  0  0
   43.2809   16.2607   -8.7449 C   0  0  0  0  0  0  0  0  0  0  0  0
   42.8549   16.2183  -10.0543 C   0  0  0  0  0  0  0  0  0  0  0  0
   41.5489   16.0321  -10.3140 N   0  0  0  0  0  0  0  0  0  0  0  0
   40.6270   15.8835   -9.3478 C   0  0  0  0  0  0  0  0  0  0  0  0
   41.0463   15.9255   -8.0766 N   0  0  0  0  0  0  0  0  0  0  0  0
   42.3507   16.1105   -7.7484 C   0  0  0  0  0  0  0  0  0  0  0  0
   34.4492   13.7702  -13.8390 C   0  0  0  0  0  0  0  0  0  0  0  0
   35.1972   12.5266  -13.8405 N   0  0  0  0  0  0  0  0  0  0  0  0
   35.3734   12.1351  -15.2262 C   0  0  0  0  0  0  0  0  0  0  0  0
   36.6647   12.7717  -15.7559 C   0  0  0  0  0  0  0  0  0  0  0  0
   37.7949   11.9860  -15.1412 C   0  0  0  0  0  0  0  0  0  0  0  0
   37.5542   11.8611  -13.6750 C   0  0  0  0  0  0  0  0  0  0  0  0
   36.4622   12.7829  -13.1848 C   0  0  0  0  0  0  0  0  0  0  0  0
   39.1446   12.5777  -15.4724 C   0  0  0  0  0  0  0  0  0  0  0  0
   39.5239   12.1422  -16.8311 C   0  0  0  0  0  0  0  0  0  0  0  0
   40.3122   12.7898  -17.7447 C   0  0  0  0  0  0  0  0  0  0  0  0
   40.3974   12.0458  -18.8448 N   0  0  0  0  0  0  0  0  0  0  0  0
   39.6780   10.9361  -18.6489 C   0  0  0  0  0  0  0  0  0  0  0  0
   39.1486   11.0003  -17.4215 N   0  0  0  0  0  0  0  0  0  0  0  0
   38.5291   10.2577  -16.9905 H   0  0  0  0  0  0  0  0  0  0  0  0
 10 11  2  0  0  0
 11 12  1  0  0  0
 12 13  2  0  0  0
 13  4  1  0  0  0
  4  5  2  0  0  0
  5  6  1  0  0  0
  6  7  2  0  0  0
  7  3  1  0  0  0
  3  2  1  0  0  0
  2  1  1  0  0  0
  1 16  1  0  0  0
 16 17  1  0  0  0
 17 18  1  0  0  0
 18 19  1  0  0  0
 19 20  1  0  0  0
 20 23  1  0  0  0
 23 24  1  0  0  0
 24 25  2  0  0  0
 25 26  1  0  0  0
 26 27  2  0  0  0
 27 28  1  0  0  0
 20 21  1  0  0  0
 21 22  1  0  0  0
  7  8  1  0  0  0
  8  9  2  0  0  0
 13 14  1  0  0  0
 14 15  2  0  0  0
 15 10  1  0  0  0
  9  4  1  0  0  0
 22 17  1  0  0  0
 28 24  1  0  0  0
 28 29  1  0  0  0
M  END
> <minimizedAffinity>
-6.98926

> <CNNscore>
0.1800360978

> <CNNaffinity>
6.2340278625

> <CNN_VS>
1.1223500967

> <CNNaffinity_variance>
0.2332604825

$$$$
[H]c1nc(-c2c([H])c([H])c(OC([H])([H])C([H])([H])C([H])([H])N3C([H])([H])C([H])([H])C([H])(C([H])([H])c4c([H])nc([H])n4[H])C([H])([H])C3([H])[H])c([H])c2[H])nc([H])c1[H]


 29 32  0  0  0  0  0  0  0  0999 V2000
   43.4640   13.3775  -16.0161 C   0  0  0  0  0  0  0  0  0  0  0  0
   42.7908   12.0788  -16.4193 C   0  0  0  0  0  0  0  0  0  0  0  0
   41.7641   12.3971  -17.3076 O   0  0  0  0  0  0  0  0  0  0  0  0
   37.6764   11.7478  -16.4602 C   0  0  0  0  0  0  0  0  0  0  0  0
   38.3042   11.1072  -17.5062 C   0  0  0  0  0  0  0  0  0  0  0  0
   39.6524   11.3195  -17.7881 C   0  0  0  0  0  0  0  0  0  0  0  0
   40.4097   12.1824  -17.0265 C   0  0  0  0  0  0  0  0  0  0  0  0
   39.7769   12.8207  -15.9811 C   0  0  0  0  0  0  0  0  0  0  0  0
   38.4320   12.6111  -15.6972 C   0  0  0  0  0  0  0  0  0  0  0  0
   33.6028   11.0536  -15.6749 C   0  0  0  0  0  0  0  0  0  0  0  0
   34.2447   10.4251  -16.7192 C   0  0  0  0  0  0  0  0  0  0  0  0
   35.5480   10.6757  -16.9348 N   0  0  0  0  0  0  0  0  0  0  0  0
   36.2644   11.5192  -16.1729 C   0  0  0  0  0  0  0  0  0  0  0  0
   35.6358   12.1277  -15.1589 N   0  0  0  0  0  0  0  0  0  0  0  0
   34.3219   11.9173  -14.8887 C   0  0  0  0  0  0  0  0  0  0  0  0
   44.7369   13.0411  -15.2730 C   0  0  0  0  0  0  0  0  0  0  0  0
   45.0472   14.0156  -14.2433 N   0  0  0  0  0  0  0  0  0  0  0  0
   43.7975   14.3649  -13.5944 C   0  0  0  0  0  0  0  0  0  0  0  0
   43.5591   13.3924  -12.4323 C   0  0  0  0  0  0  0  0  0  0  0  0
   44.5162   13.8067  -11.3439 C   0  0  0  0  0  0  0  0  0  0  0  0
   45.8762   13.9688  -11.9332 C   0  0  0  0  0  0  0  0  0  0  0  0
   45.9783   13.3929  -13.3261 C   0  0  0  0  0  0  0  0  0  0  0  0
   44.4879   12.8566  -10.1700 C   0  0  0  0  0  0  0  0  0  0  0  0
   43.5353   13.3789   -9.1702 C   0  0  0  0  0  0  0  0  0  0  0  0
   43.5563   14.5847   -8.5215 C   0  0  0  0  0  0  0  0  0  0  0  0
   42.5097   14.6519   -7.7022 N   0  0  0  0  0  0  0  0  0  0  0  0
   41.8222   13.5109   -7.8171 C   0  0  0  0  0  0  0  0  0  0  0  0
   42.4512   12.7399   -8.7120 N   0  0  0  0  0  0  0  0  0  0  0  0
   42.1339   11.7739   -9.0072 H   0  0  0  0  0  0  0  0  0  0  0  0
 10 11  2  0  0  0
 11 12  1  0  0  0
 12 13  2  0  0  0
 13  4  1  0  0  0
  4  5  2  0  0  0
  5  6  1  0  0  0
  6  7  2  0  0  0
  7  3  1  0  0  0
  3  2  1  0  0  0
  2  1  1  0  0  0
  1 16  1  0  0  0
 16 17  1  0  0  0
 17 18  1  0  0  0
 18 19  1  0  0  0
 19 20  1  0  0  0
 20 23  1  0  0  0
 23 24  1  0  0  0
 24 25  2  0  0  0
 25 26  1  0  0  0
 26 27  2  0  0  0
 27 28  1  0  0  0
 20 21  1  0  0  0
 21 22  1  0  0  0
  7  8  1  0  0  0
  8  9  2  0  0  0
 13 14  1  0  0  0
 14 15  2  0  0  0
 15 10  1  0  0  0
  9  4  1  0  0  0
 22 17  1  0  0  0
 28 24  1  0  0  0
 28 29  1  0  0  0
M  END
> <minimizedAffinity>
-7.23700

> <CNNscore>
0.1453420222

> <CNNaffinity>
5.9886069298

> <CNN_VS>
0.8703962564

> <CNNaffinity_variance>
0.0936700702

$$$$
[H]c1nc(-c2c([H])c([H])c(OC([H])([H])C([H])([H])C([H])([H])N3C([H])([H])C([H])([H])C([H])(C([H])([H])c4c([H])nc([H])n4[H])C([H])([H])C3([H])[H])c([H])c2[H])nc([H])c1[H]


 29 32  0  0  0  0  0  0  0  0999 V2000
   40.3967   16.0623   -9.9640 C   0  0  0  0  0  0  0  0  0  0  0  0
   41.1414   15.6435  -11.2178 C   0  0  0  0  0  0  0  0  0  0  0  0
   40.3628   16.0178  -12.3126 O   0  0  0  0  0  0  0  0  0  0  0  0
   38.7728   13.2540  -15.0842 C   0  0  0  0  0  0  0  0  0  0  0  0
   37.9626   13.9311  -14.1988 C   0  0  0  0  0  0  0  0  0  0  0  0
   38.4842   14.8432  -13.2835 C   0  0  0  0  0  0  0  0  0  0  0  0
   39.8365   15.1020  -13.2310 C   0  0  0  0  0  0  0  0  0  0  0  0
   40.6427   14.4220  -14.1191 C   0  0  0  0  0  0  0  0  0  0  0  0
   40.1254   13.5114  -15.0335 C   0  0  0  0  0  0  0  0  0  0  0  0
   37.2217   10.4996  -17.8591 C   0  0  0  0  0  0  0  0  0  0  0  0
   38.5569   10.8387  -17.8614 C   0  0  0  0  0  0  0  0  0  0  0  0
   39.0110   11.7236  -16.9566 N   0  0  0  0  0  0  0  0  0  0  0  0
   38.2173   12.3008  -16.0388 C   0  0  0  0  0  0  0  0  0  0  0  0
   36.9201   11.9677  -16.0408 N   0  0  0  0  0  0  0  0  0  0  0  0
   36.3999   11.0811  -16.9277 C   0  0  0  0  0  0  0  0  0  0  0  0
   39.1915   16.8761  -10.3777 C   0  0  0  0  0  0  0  0  0  0  0  0
   37.9973   16.5045   -9.6415 N   0  0  0  0  0  0  0  0  0  0  0  0
   36.9551   17.4417  -10.0161 C   0  0  0  0  0  0  0  0  0  0  0  0
   36.2208   16.8934  -11.2463 C   0  0  0  0  0  0  0  0  0  0  0  0
   35.3567   15.7654  -10.7430 C   0  0  0  0  0  0  0  0  0  0  0  0
   36.1852   14.8671   -9.8887 C   0  0  0  0  0  0  0  0  0  0  0  0
   37.6645   15.1462  -10.0158 C   0  0  0  0  0  0  0  0  0  0  0  0
   34.6601   15.0373  -11.8682 C   0  0  0  0  0  0  0  0  0  0  0  0
   33.2077   15.0501  -11.6033 C   0  0  0  0  0  0  0  0  0  0  0  0
   32.5293   15.6953  -10.6039 C   0  0  0  0  0  0  0  0  0  0  0  0
   31.2292   15.4408  -10.7313 N   0  0  0  0  0  0  0  0  0  0  0  0
   31.0669   14.6454  -11.7936 C   0  0  0  0  0  0  0  0  0  0  0  0
   32.2746   14.4109  -12.3204 N   0  0  0  0  0  0  0  0  0  0  0  0
   32.4562   13.8108  -13.1736 H   0  0  0  0  0  0  0  0  0  0  0  0
 10 11  2  0  0  0
 11 12  1  0  0  0
 12 13  2  0  0  0
 13  4  1  0  0  0
  4  5  2  0  0  0
  5  6  1  0  0  0
  6  7  2  0  0  0
  7  3  1  0  0  0
  3  2  1  0  0  0
  2  1  1  0  0  0
  1 16  1  0  0  0
 16 17  1  0  0  0
 17 18  1  0  0  0
 18 19  1  0  0  0
 19 20  1  0  0  0
 20 23  1  0  0  0
 23 24  1  0  0  0
 24 25  2  0  0  0
 25 26  1  0  0  0
 26 27  2  0  0  0
 27 28  1  0  0  0
 20 21  1  0  0  0
 21 22  1  0  0  0
  7  8  1  0  0  0
  8  9  2  0  0  0
 13 14  1  0  0  0
 14 15  2  0  0  0
 15 10  1  0  0  0
  9  4  1  0  0  0
 22 17  1  0  0  0
 28 24  1  0  0  0
 28 29  1  0  0  0
M  END
> <minimizedAffinity>
-7.22178

> <CNNscore>
0.1436750293

> <CNNaffinity>
6.1323356628

> <CNN_VS>
0.8810635209

> <CNNaffinity_variance>
0.3693838716

$$$$
[H]c1nc(-c2c([H])c([H])c(OC([H])([H])C([H])([H])C([H])([H])N3C([H])([H])C([H])([H])C([H])(C([H])([H])c4c([H])nc([H])n4[H])C([H])([H])C3([H])[H])c([H])c2[H])nc([H])c1[H]


 29 32  0  0  0  0  0  0  0  0999 V2000
   37.3843   11.8148  -16.1967 C   0  0  0  0  0  0  0  0  0  0  0  0
   38.8840   11.7026  -16.3975 C   0  0  0  0  0  0  0  0  0  0  0  0
   39.4484   12.9242  -16.0317 O   0  0  0  0  0  0  0  0  0  0  0  0
   43.4616   13.3441  -14.7799 C   0  0  0  0  0  0  0  0  0  0  0  0
   43.1444   12.8100  -16.0099 C   0  0  0  0  0  0  0  0  0  0  0  0
   41.8216   12.6702  -16.4254 C   0  0  0  0  0  0  0  0  0  0  0  0
   40.7779   13.0635  -15.6165 C   0  0  0  0  0  0  0  0  0  0  0  0
   41.1007   13.5974  -14.3870 C   0  0  0  0  0  0  0  0  0  0  0  0
   42.4194   13.7382  -13.9694 C   0  0  0  0  0  0  0  0  0  0  0  0
   47.4465   13.7840  -13.5071 C   0  0  0  0  0  0  0  0  0  0  0  0
   46.4055   14.3385  -12.7954 C   0  0  0  0  0  0  0  0  0  0  0  0
   45.1465   14.1736  -13.2379 N   0  0  0  0  0  0  0  0  0  0  0  0
   44.8496   13.4864  -14.3536 C   0  0  0  0  0  0  0  0  0  0  0  0
   45.8652   12.9493  -15.0419 N   0  0  0  0  0  0  0  0  0  0  0  0
   47.1580   13.0797  -14.6480 C   0  0  0  0  0  0  0  0  0  0  0  0
   37.1300   12.3236  -14.7959 C   0  0  0  0  0  0  0  0  0  0  0  0
   35.7972   11.9958  -14.3245 N   0  0  0  0  0  0  0  0  0  0  0  0
   35.8071   12.1381  -12.8808 C   0  0  0  0  0  0  0  0  0  0  0  0
   35.4447   13.5861  -12.5276 C   0  0  0  0  0  0  0  0  0  0  0  0
   33.9619   13.7114  -12.7687 C   0  0  0  0  0  0  0  0  0  0  0  0
   33.6431   13.1541  -14.1144 C   0  0  0  0  0  0  0  0  0  0  0  0
   34.8773   12.9200  -14.9536 C   0  0  0  0  0  0  0  0  0  0  0  0
   33.4734   15.1286  -12.5827 C   0  0  0  0  0  0  0  0  0  0  0  0
   32.1843   15.0870  -11.8642 C   0  0  0  0  0  0  0  0  0  0  0  0
   31.8765   15.6063  -10.6351 C   0  0  0  0  0  0  0  0  0  0  0  0
   30.6000   15.3448  -10.3639 N   0  0  0  0  0  0  0  0  0  0  0  0
   30.0890   14.6685  -11.3978 C   0  0  0  0  0  0  0  0  0  0  0  0
   31.0579   14.5144  -12.3080 N   0  0  0  0  0  0  0  0  0  0  0  0
   30.9434   14.0152  -13.2346 H   0  0  0  0  0  0  0  0  0  0  0  0
 10 11  2  0  0  0
 11 12  1  0  0  0
 12 13  2  0  0  0
 13  4  1  0  0  0
  4  5  2  0  0  0
  5  6  1  0  0  0
  6  7  2  0  0  0
  7  3  1  0  0  0
  3  2  1  0  0  0
  2  1  1  0  0  0
  1 16  1  0  0  0
 16 17  1  0  0  0
 17 18  1  0  0  0
 18 19  1  0  0  0
 19 20  1  0  0  0
 20 23  1  0  0  0
 23 24  1  0  0  0
 24 25  2  0  0  0
 25 26  1  0  0  0
 26 27  2  0  0  0
 27 28  1  0  0  0
 20 21  1  0  0  0
 21 22  1  0  0  0
  7  8  1  0  0  0
  8  9  2  0  0  0
 13 14  1  0  0  0
 14 15  2  0  0  0
 15 10  1  0  0  0
  9  4  1  0  0  0
 22 17  1  0  0  0
 28 24  1  0  0  0
 28 29  1  0  0  0
M  END
> <minimizedAffinity>
-7.61344

> <CNNscore>
0.1404695213

> <CNNaffinity>
6.0279216766

> <CNN_VS>
0.8467392921

> <CNNaffinity_variance>
0.1214401722

$$$$
[H]c1nc(-c2c([H])c([H])c(OC([H])([H])C([H])([H])C([H])([H])N3C([H])([H])C([H])([H])C([H])(C([H])([H])c4c([H])nc([H])n4[H])C([H])([H])C3([H])[H])c([H])c2[H])nc([H])c1[H]


 29 32  0  0  0  0  0  0  0  0999 V2000
   35.5144   11.9826  -16.5312 C   0  0  0  0  0  0  0  0  0  0  0  0
   36.1509   10.6673  -16.9399 C   0  0  0  0  0  0  0  0  0  0  0  0
   37.1635   10.9576  -17.8536 O   0  0  0  0  0  0  0  0  0  0  0  0
   41.0612   12.1187  -16.7094 C   0  0  0  0  0  0  0  0  0  0  0  0
   40.8052   11.5910  -17.9564 C   0  0  0  0  0  0  0  0  0  0  0  0
   39.5207   11.2071  -18.3365 C   0  0  0  0  0  0  0  0  0  0  0  0
   38.4547   11.3424  -17.4741 C   0  0  0  0  0  0  0  0  0  0  0  0
   38.7161   11.8710  -16.2278 C   0  0  0  0  0  0  0  0  0  0  0  0
   39.9966   12.2550  -15.8455 C   0  0  0  0  0  0  0  0  0  0  0  0
   44.9272   13.3003  -15.5476 C   0  0  0  0  0  0  0  0  0  0  0  0
   43.8113   13.7627  -14.8853 C   0  0  0  0  0  0  0  0  0  0  0  0
   42.5940   13.3595  -15.2898 N   0  0  0  0  0  0  0  0  0  0  0  0
   42.4095   12.5176  -16.3205 C   0  0  0  0  0  0  0  0  0  0  0  0
   43.4976   12.0710  -16.9610 N   0  0  0  0  0  0  0  0  0  0  0  0
   44.7538   12.4402  -16.6017 C   0  0  0  0  0  0  0  0  0  0  0  0
   34.6634   11.7373  -15.3060 C   0  0  0  0  0  0  0  0  0  0  0  0
   34.6990   12.8529  -14.3785 N   0  0  0  0  0  0  0  0  0  0  0  0
   35.2831   12.3641  -13.1437 C   0  0  0  0  0  0  0  0  0  0  0  0
   36.8056   12.5352  -13.2194 C   0  0  0  0  0  0  0  0  0  0  0  0
   37.0652   14.0090  -13.0382 C   0  0  0  0  0  0  0  0  0  0  0  0
   36.1676   14.7729  -13.9514 C   0  0  0  0  0  0  0  0  0  0  0  0
   35.5040   13.8925  -14.9843 C   0  0  0  0  0  0  0  0  0  0  0  0
   38.5248   14.3552  -13.2149 C   0  0  0  0  0  0  0  0  0  0  0  0
   38.9342   15.2326  -12.1003 C   0  0  0  0  0  0  0  0  0  0  0  0
   38.1424   15.8768  -11.1875 C   0  0  0  0  0  0  0  0  0  0  0  0
   38.9181   16.5646  -10.3530 N   0  0  0  0  0  0  0  0  0  0  0  0
   40.1898   16.3703  -10.7174 C   0  0  0  0  0  0  0  0  0  0  0  0
   40.1935   15.5587  -11.7816 N   0  0  0  0  0  0  0  0  0  0  0  0
   41.0629   15.2295  -12.2881 H   0  0  0  0  0  0  0  0  0  0  0  0
 10 11  2  0  0  0
 11 12  1  0  0  0
 12 13  2  0  0  0
 13  4  1  0  0  0
  4  5  2  0  0  0
  5  6  1  0  0  0
  6  7  2  0  0  0
  7  3  1  0  0  0
  3  2  1  0  0  0
  2  1  1  0  0  0
  1 16  1  0  0  0
 16 17  1  0  0  0
 17 18  1  0  0  0
 18 19  1  0  0  0
 19 20  1  0  0  0
 20 23  1  0  0  0
 23 24  1  0  0  0
 24 25  2  0  0  0
 25 26  1  0  0  0
 26 27  2  0  0  0
 27 28  1  0  0  0
 20 21  1  0  0  0
 21 22  1  0  0  0
  7  8  1  0  0  0
  8  9  2  0  0  0
 13 14  1  0  0  0
 14 15  2  0  0  0
 15 10  1  0  0  0
  9  4  1  0  0  0
 22 17  1  0  0  0
 28 24  1  0  0  0
 28 29  1  0  0  0
M  END
> <minimizedAffinity>
-7.84838

> <CNNscore>
0.1398087740

> <CNNaffinity>
6.7335481644

> <CNN_VS>
0.9414091110

> <CNNaffinity_variance>
0.1168148518

$$$$
[H]c1nc(-c2c([H])c([H])c(OC([H])([H])C([H])([H])C([H])([H])N3C([H])([H])C([H])([H])C([H])(C([H])([H])c4c([H])nc([H])n4[H])C([H])([H])C3([H])[H])c([H])c2[H])nc([H])c1[H]


 29 32  0  0  0  0  0  0  0  0999 V2000
   42.8209   14.5608  -13.7631 C   0  0  0  0  0  0  0  0  0  0  0  0
   42.5256   13.2160  -14.4006 C   0  0  0  0  0  0  0  0  0  0  0  0
   41.7229   13.4485  -15.5169 O   0  0  0  0  0  0  0  0  0  0  0  0
   37.6785   12.2506  -15.7570 C   0  0  0  0  0  0  0  0  0  0  0  0
   38.1353   13.0364  -14.7212 C   0  0  0  0  0  0  0  0  0  0  0  0
   39.4687   13.4330  -14.6394 C   0  0  0  0  0  0  0  0  0  0  0  0
   40.3830   13.0514  -15.5969 C   0  0  0  0  0  0  0  0  0  0  0  0
   39.9209   12.2653  -16.6310 C   0  0  0  0  0  0  0  0  0  0  0  0
   38.5913   11.8679  -16.7156 C   0  0  0  0  0  0  0  0  0  0  0  0
   33.6366   11.1003  -15.9355 C   0  0  0  0  0  0  0  0  0  0  0  0
   34.0829   11.9913  -14.9844 C   0  0  0  0  0  0  0  0  0  0  0  0
   35.3834   12.3319  -14.9630 N   0  0  0  0  0  0  0  0  0  0  0  0
   36.2807   11.8403  -15.8340 C   0  0  0  0  0  0  0  0  0  0  0  0
   35.8417   10.9745  -16.7567 N   0  0  0  0  0  0  0  0  0  0  0  0
   34.5416   10.5906  -16.8312 C   0  0  0  0  0  0  0  0  0  0  0  0
   43.9909   14.3923  -12.8206 C   0  0  0  0  0  0  0  0  0  0  0  0
   43.7385   13.3883  -11.8035 N   0  0  0  0  0  0  0  0  0  0  0  0
   44.9626   12.6267  -11.6413 C   0  0  0  0  0  0  0  0  0  0  0  0
   45.8298   13.3120  -10.5776 C   0  0  0  0  0  0  0  0  0  0  0  0
   45.1800   13.0030   -9.2529 C   0  0  0  0  0  0  0  0  0  0  0  0
   43.7216   13.2974   -9.3505 C   0  0  0  0  0  0  0  0  0  0  0  0
   43.3698   14.0863  -10.5900 C   0  0  0  0  0  0  0  0  0  0  0  0
   45.8546   13.7204   -8.1076 C   0  0  0  0  0  0  0  0  0  0  0  0
   45.3470   13.1571   -6.8408 C   0  0  0  0  0  0  0  0  0  0  0  0
   44.4878   13.7259   -5.9389 C   0  0  0  0  0  0  0  0  0  0  0  0
   44.2925   12.8755   -4.9340 N   0  0  0  0  0  0  0  0  0  0  0  0
   45.0114   11.7752   -5.1793 C   0  0  0  0  0  0  0  0  0  0  0  0
   45.6513   11.9524   -6.3413 N   0  0  0  0  0  0  0  0  0  0  0  0
   46.2973   11.2437   -6.7901 H   0  0  0  0  0  0  0  0  0  0  0  0
 10 11  2  0  0  0
 11 12  1  0  0  0
 12 13  2  0  0  0
 13  4  1  0  0  0
  4  5  2  0  0  0
  5  6  1  0  0  0
  6  7  2  0  0  0
  7  3  1  0  0  0
  3  2  1  0  0  0
  2  1  1  0  0  0
  1 16  1  0  0  0
 16 17  1  0  0  0
 17 18  1  0  0  0
 18 19  1  0  0  0
 19 20  1  0  0  0
 20 23  1  0  0  0
 23 24  1  0  0  0
 24 25  2  0  0  0
 25 26  1  0  0  0
 26 27  2  0  0  0
 27 28  1  0  0  0
 20 21  1  0  0  0
 21 22  1  0  0  0
  7  8  1  0  0  0
  8  9  2  0  0  0
 13 14  1  0  0  0
 14 15  2  0  0  0
 15 10  1  0  0  0
  9  4  1  0  0  0
 22 17  1  0  0  0
 28 24  1  0  0  0
 28 29  1  0  0  0
M  END
> <minimizedAffinity>
-6.28603

> <CNNscore>
0.1380941272

> <CNNaffinity>
5.7450437546

> <CNN_VS>
0.7933567762

> <CNNaffinity_variance>
0.0949564129

$$$$
[H]OC(=O)[C@]1([H])N([H])[C@@]([H])(C([H])([H])C([H])([H])c2c([H])c([H])c([H])c([H])c2[H])C(=O)N([H])[C@]([H])(C(=O)N([H])C([H])([H])[H])C([H])([H])C([H])([H])C(=O)OC([H])([H])C([H])([H])N([H])C(=O)C([H])([H])C1([H])[H]


 39 40  0  0  0  0  0  0  0  0999 V2000
   41.1759   15.4480   -8.8846 C   0  0  0  0  0  0  0  0  0  0  0  0
   41.1118   14.2734   -7.9649 C   0  0  0  0  0  0  0  0  0  0  0  0
   39.7791   13.9168   -7.4064 C   0  0  0  0  0  0  0  0  0  0  0  0
   39.9148   13.5412   -5.9513 C   0  0  0  0  0  0  0  0  0  0  0  0
   39.6588   14.4668   -5.1074 O   0  0  0  0  0  0  0  0  0  0  0  0
   40.2852   12.3035   -5.5118 O   0  0  0  0  0  0  0  0  0  0  0  0
   41.3701   11.5237   -5.8741 C   0  0  0  0  0  0  0  0  0  0  0  0
   42.5937   11.6945   -4.9734 C   0  0  0  0  0  0  0  0  0  0  0  0
   43.7435   11.2013   -5.6801 N   0  0  0  0  0  0  0  0  0  0  0  0
   45.0833   11.6178   -5.5158 C   0  0  0  0  0  0  0  0  0  0  0  0
   46.0230   10.7549   -5.4149 O   0  0  0  0  0  0  0  0  0  0  0  0
   45.5217   13.0455   -5.4460 C   0  0  0  0  0  0  0  0  0  0  0  0
   44.7734   13.9078   -6.4091 C   0  0  0  0  0  0  0  0  0  0  0  0
   45.3904   14.0305   -7.7863 C   0  0  0  0  0  0  0  0  0  0  0  0
   44.5808   14.9291   -8.5565 N   0  0  0  0  0  0  0  0  0  0  0  0
   44.4367   16.2642   -8.1737 C   0  0  0  0  0  0  0  0  0  0  0  0
   43.0943   16.6865   -7.6858 C   0  0  0  0  0  0  0  0  0  0  0  0
   43.0949   17.2166   -6.5191 O   0  0  0  0  0  0  0  0  0  0  0  0
   41.8599   16.5937   -8.3034 N   0  0  0  0  0  0  0  0  0  0  0  0
   43.5800   10.4406   -6.4027 H   0  0  0  0  0  0  0  0  0  0  0  0
   44.6234   14.6749   -9.5407 H   0  0  0  0  0  0  0  0  0  0  0  0
   41.2864   17.4996   -8.3823 H   0  0  0  0  0  0  0  0  0  0  0  0
   38.0228   15.4128  -11.0709 C   0  0  0  0  0  0  0  0  0  0  0  0
   39.3176   15.0976  -10.5231 N   0  0  0  0  0  0  0  0  0  0  0  0
   39.8498   15.7896   -9.4260 C   0  0  0  0  0  0  0  0  0  0  0  0
   39.1905   16.7041   -8.9058 O   0  0  0  0  0  0  0  0  0  0  0  0
   39.8739   14.3320  -10.9575 H   0  0  0  0  0  0  0  0  0  0  0  0
   46.8238   14.3116   -7.7482 C   0  0  0  0  0  0  0  0  0  0  0  0
   47.3926   15.2332   -7.1195 O   0  0  0  0  0  0  0  0  0  0  0  0
   47.6525   13.4584   -8.5000 O   0  0  0  0  0  0  0  0  0  0  0  0
   47.9026   13.8020   -9.4176 H   0  0  0  0  0  0  0  0  0  0  0  0
   44.9284   17.2604   -9.2303 C   0  0  0  0  0  0  0  0  0  0  0  0
   46.0788   16.7164  -10.0064 C   0  0  0  0  0  0  0  0  0  0  0  0
   45.9266   16.9699  -11.4744 C   0  0  0  0  0  0  0  0  0  0  0  0
   45.3741   18.1083  -11.9763 C   0  0  0  0  0  0  0  0  0  0  0  0
   45.2906   18.2284  -13.3583 C   0  0  0  0  0  0  0  0  0  0  0  0
   45.7454   17.2406  -14.2104 C   0  0  0  0  0  0  0  0  0  0  0  0
   46.3013   16.0956  -13.6893 C   0  0  0  0  0  0  0  0  0  0  0  0
   46.3808   15.9834  -12.3205 C   0  0  0  0  0  0  0  0  0  0  0  0
 23 24  1  0  0  0
 24 25  1  0  0  0
 25 26  2  0  0  0
 25  1  1  0  0  0
  1  2  1  0  0  0
  2  3  1  0  0  0
  3  4  1  0  0  0
  4  5  2  0  0  0
  4  6  1  0  0  0
  6  7  1  0  0  0
  7  8  1  0  0  0
  8  9  1  0  0  0
  9 10  1  0  0  0
 10 11  2  0  0  0
 10 12  1  0  0  0
 12 13  1  0  0  0
 13 14  1  0  0  0
 14 28  1  0  0  0
 28 29  2  0  0  0
 28 30  1  0  0  0
 14 15  1  0  0  0
 15 16  1  0  0  0
 16 32  1  0  0  0
 32 33  1  0  0  0
 33 34  1  0  0  0
 34 35  2  0  0  0
 35 36  1  0  0  0
 36 37  2  0  0  0
 37 38  1  0  0  0
 38 39  2  0  0  0
 16 17  1  0  0  0
 17 18  2  0  0  0
 17 19  1  0  0  0
 19  1  1  0  0  0
 39 34  1  0  0  0
 24 27  1  0  0  0
  9 20  1  0  0  0
 30 31  1  0  0  0
 15 21  1  0  0  0
 19 22  1  0  0  0
M  END
> <minimizedAffinity>
-5.52539

> <CNNscore>
0.3027260303

> <CNNaffinity>
4.7215991020

> <CNN_VS>
1.4293509722

> <CNNaffinity_variance>
0.4450298846

$$$$
[H]OC(=O)[C@]1([H])N([H])[C@@]([H])(C([H])([H])C([H])([H])c2c([H])c([H])c([H])c([H])c2[H])C(=O)N([H])[C@]([H])(C(=O)N([H])C([H])([H])[H])C([H])([H])C([H])([H])C(=O)OC([H])([H])C([H])([H])N([H])C(=O)C([H])([H])C1([H])[H]


 39 40  0  0  0  0  0  0  0  0999 V2000
   40.5027   15.7027   -8.7510 C   0  0  0  0  0  0  0  0  0  0  0  0
   40.6575   16.4168   -7.4487 C   0  0  0  0  0  0  0  0  0  0  0  0
   41.9678   16.2916   -6.7541 C   0  0  0  0  0  0  0  0  0  0  0  0
   41.7494   16.1148   -5.2715 C   0  0  0  0  0  0  0  0  0  0  0  0
   41.7744   14.9113   -4.8410 O   0  0  0  0  0  0  0  0  0  0  0  0
   41.5342   17.1441   -4.4018 O   0  0  0  0  0  0  0  0  0  0  0  0
   40.6244   18.1853   -4.4703 C   0  0  0  0  0  0  0  0  0  0  0  0
   39.3065   17.9152   -3.7439 C   0  0  0  0  0  0  0  0  0  0  0  0
   38.3223   18.8358   -4.2425 N   0  0  0  0  0  0  0  0  0  0  0  0
   36.9245   18.6380   -4.2936 C   0  0  0  0  0  0  0  0  0  0  0  0
   36.1248   19.5557   -3.8984 O   0  0  0  0  0  0  0  0  0  0  0  0
   36.2652   17.3923   -4.7923 C   0  0  0  0  0  0  0  0  0  0  0  0
   36.9617   16.8316   -5.9888 C   0  0  0  0  0  0  0  0  0  0  0  0
   36.4718   17.3455   -7.3260 C   0  0  0  0  0  0  0  0  0  0  0  0
   37.2040   16.6688   -8.3566 N   0  0  0  0  0  0  0  0  0  0  0  0
   37.1008   15.2850   -8.5124 C   0  0  0  0  0  0  0  0  0  0  0  0
   38.3068   14.4757   -8.1822 C   0  0  0  0  0  0  0  0  0  0  0  0
   38.1091   13.5580   -7.3098 O   0  0  0  0  0  0  0  0  0  0  0  0
   39.5954   14.5672   -8.6771 N   0  0  0  0  0  0  0  0  0  0  0  0
   38.6721   19.7680   -4.6114 H   0  0  0  0  0  0  0  0  0  0  0  0
   37.2985   17.2751   -9.1680 H   0  0  0  0  0  0  0  0  0  0  0  0
   40.0263   13.6685   -9.0802 H   0  0  0  0  0  0  0  0  0  0  0  0
   43.6037   13.6934   -9.7854 C   0  0  0  0  0  0  0  0  0  0  0  0
   42.3308   14.0593   -9.2181 N   0  0  0  0  0  0  0  0  0  0  0  0
   41.8065   15.3539   -9.3399 C   0  0  0  0  0  0  0  0  0  0  0  0
   42.4542   16.2171   -9.9539 O   0  0  0  0  0  0  0  0  0  0  0  0
   41.7852   13.3383   -8.7015 H   0  0  0  0  0  0  0  0  0  0  0  0
   35.0155   17.3350   -7.4444 C   0  0  0  0  0  0  0  0  0  0  0  0
   34.2752   16.3283   -7.5263 O   0  0  0  0  0  0  0  0  0  0  0  0
   34.3773   18.5888   -7.4724 O   0  0  0  0  0  0  0  0  0  0  0  0
   34.1614   18.9399   -8.3958 H   0  0  0  0  0  0  0  0  0  0  0  0
   36.5669   14.8619   -9.8858 C   0  0  0  0  0  0  0  0  0  0  0  0
   37.2499   15.5926  -10.9909 C   0  0  0  0  0  0  0  0  0  0  0  0
   37.6604   14.6689  -12.0957 C   0  0  0  0  0  0  0  0  0  0  0  0
   38.7142   14.9215  -12.9196 C   0  0  0  0  0  0  0  0  0  0  0  0
   38.9983   13.9857  -13.9070 C   0  0  0  0  0  0  0  0  0  0  0  0
   38.2514   12.8341  -14.0645 C   0  0  0  0  0  0  0  0  0  0  0  0
   37.1894   12.5920  -13.2249 C   0  0  0  0  0  0  0  0  0  0  0  0
   36.9138   13.5224  -12.2498 C   0  0  0  0  0  0  0  0  0  0  0  0
 23 24  1  0  0  0
 24 25  1  0  0  0
 25 26  2  0  0  0
 25  1  1  0  0  0
  1  2  1  0  0  0
  2  3  1  0  0  0
  3  4  1  0  0  0
  4  5  2  0  0  0
  4  6  1  0  0  0
  6  7  1  0  0  0
  7  8  1  0  0  0
  8  9  1  0  0  0
  9 10  1  0  0  0
 10 11  2  0  0  0
 10 12  1  0  0  0
 12 13  1  0  0  0
 13 14  1  0  0  0
 14 28  1  0  0  0
 28 29  2  0  0  0
 28 30  1  0  0  0
 14 15  1  0  0  0
 15 16  1  0  0  0
 16 32  1  0  0  0
 32 33  1  0  0  0
 33 34  1  0  0  0
 34 35  2  0  0  0
 35 36  1  0  0  0
 36 37  2  0  0  0
 37 38  1  0  0  0
 38 39  2  0  0  0
 16 17  1  0  0  0
 17 18  2  0  0  0
 17 19  1  0  0  0
 19  1  1  0  0  0
 39 34  1  0  0  0
 24 27  1  0  0  0
  9 20  1  0  0  0
 30 31  1  0  0  0
 15 21  1  0  0  0
 19 22  1  0  0  0
M  END
> <minimizedAffinity>
-6.29119

> <CNNscore>
0.2312180996

> <CNNaffinity>
4.9071207047

> <CNN_VS>
1.1346151829

> <CNNaffinity_variance>
0.3197124004

$$$$
[H]OC(=O)[C@]1([H])N([H])[C@@]([H])(C([H])([H])C([H])([H])c2c([H])c([H])c([H])c([H])c2[H])C(=O)N([H])[C@]([H])(C(=O)N([H])C([H])([H])[H])C([H])([H])C([H])([H])C(=O)OC([H])([H])C([H])([H])N([H])C(=O)C([H])([H])C1([H])[H]


 39 40  0  0  0  0  0  0  0  0999 V2000
   32.9147   15.9771   -8.8545 C   0  0  0  0  0  0  0  0  0  0  0  0
   34.2776   16.1979   -9.4234 C   0  0  0  0  0  0  0  0  0  0  0  0
   34.4977   15.7988  -10.8403 C   0  0  0  0  0  0  0  0  0  0  0  0
   35.8446   15.1339  -10.9843 C   0  0  0  0  0  0  0  0  0  0  0  0
   35.8434   13.8556  -10.9649 O   0  0  0  0  0  0  0  0  0  0  0  0
   37.0205   15.8110  -11.1287 O   0  0  0  0  0  0  0  0  0  0  0  0
   37.5465   16.8432  -10.3707 C   0  0  0  0  0  0  0  0  0  0  0  0
   38.4886   16.3861   -9.2568 C   0  0  0  0  0  0  0  0  0  0  0  0
   38.6077   17.4543   -8.3032 N   0  0  0  0  0  0  0  0  0  0  0  0
   38.8917   17.3333   -6.9247 C   0  0  0  0  0  0  0  0  0  0  0  0
   39.7671   18.0874   -6.3742 O   0  0  0  0  0  0  0  0  0  0  0  0
   38.2286   16.3558   -6.0081 C   0  0  0  0  0  0  0  0  0  0  0  0
   36.7709   16.2141   -6.3018 C   0  0  0  0  0  0  0  0  0  0  0  0
   35.8624   17.1700   -5.5581 C   0  0  0  0  0  0  0  0  0  0  0  0
   34.5078   16.8615   -5.9134 N   0  0  0  0  0  0  0  0  0  0  0  0
   33.9546   15.6184   -5.5996 C   0  0  0  0  0  0  0  0  0  0  0  0
   33.6560   14.7047   -6.7373 C   0  0  0  0  0  0  0  0  0  0  0  0
   34.2087   13.5515   -6.6526 O   0  0  0  0  0  0  0  0  0  0  0  0
   32.8748   14.9160   -7.8592 N   0  0  0  0  0  0  0  0  0  0  0  0
   38.4727   18.4441   -8.6633 H   0  0  0  0  0  0  0  0  0  0  0  0
   33.9402   17.7048   -5.8751 H   0  0  0  0  0  0  0  0  0  0  0  0
   32.1021   14.1949   -8.0564 H   0  0  0  0  0  0  0  0  0  0  0  0
   30.5164   14.3360  -11.3601 C   0  0  0  0  0  0  0  0  0  0  0  0
   31.5036   14.5291  -10.3285 N   0  0  0  0  0  0  0  0  0  0  0  0
   31.9037   15.8064   -9.9114 C   0  0  0  0  0  0  0  0  0  0  0  0
   31.3960   16.8068  -10.4436 O   0  0  0  0  0  0  0  0  0  0  0  0
   31.9323   13.6925   -9.8806 H   0  0  0  0  0  0  0  0  0  0  0  0
   36.1617   17.2499   -4.1302 C   0  0  0  0  0  0  0  0  0  0  0  0
   36.4164   16.2950   -3.3610 O   0  0  0  0  0  0  0  0  0  0  0  0
   36.1604   18.5353   -3.5579 O   0  0  0  0  0  0  0  0  0  0  0  0
   35.2995   18.7996   -3.0980 H   0  0  0  0  0  0  0  0  0  0  0  0
   32.7268   15.7080   -4.6858 C   0  0  0  0  0  0  0  0  0  0  0  0
   32.1754   17.0920   -4.6389 C   0  0  0  0  0  0  0  0  0  0  0  0
   30.9677   17.2375   -5.5121 C   0  0  0  0  0  0  0  0  0  0  0  0
   30.2828   16.1730   -6.0128 C   0  0  0  0  0  0  0  0  0  0  0  0
   29.1751   16.4370   -6.8094 C   0  0  0  0  0  0  0  0  0  0  0  0
   28.7663   17.7253   -7.0957 C   0  0  0  0  0  0  0  0  0  0  0  0
   29.4679   18.7913   -6.5831 C   0  0  0  0  0  0  0  0  0  0  0  0
   30.5633   18.5227   -5.7954 C   0  0  0  0  0  0  0  0  0  0  0  0
 23 24  1  0  0  0
 24 25  1  0  0  0
 25 26  2  0  0  0
 25  1  1  0  0  0
  1  2  1  0  0  0
  2  3  1  0  0  0
  3  4  1  0  0  0
  4  5  2  0  0  0
  4  6  1  0  0  0
  6  7  1  0  0  0
  7  8  1  0  0  0
  8  9  1  0  0  0
  9 10  1  0  0  0
 10 11  2  0  0  0
 10 12  1  0  0  0
 12 13  1  0  0  0
 13 14  1  0  0  0
 14 28  1  0  0  0
 28 29  2  0  0  0
 28 30  1  0  0  0
 14 15  1  0  0  0
 15 16  1  0  0  0
 16 32  1  0  0  0
 32 33  1  0  0  0
 33 34  1  0  0  0
 34 35  2  0  0  0
 35 36  1  0  0  0
 36 37  2  0  0  0
 37 38  1  0  0  0
 38 39  2  0  0  0
 16 17  1  0  0  0
 17 18  2  0  0  0
 17 19  1  0  0  0
 19  1  1  0  0  0
 39 34  1  0  0  0
 24 27  1  0  0  0
  9 20  1  0  0  0
 30 31  1  0  0  0
 15 21  1  0  0  0
 19 22  1  0  0  0
M  END
> <minimizedAffinity>
-6.47235

> <CNNscore>
0.1893098503

> <CNNaffinity>
4.9601793289

> <CNN_VS>
0.9390107989

> <CNNaffinity_variance>
0.4700330794

$$$$
[H]OC(=O)[C@]1([H])N([H])[C@@]([H])(C([H])([H])C([H])([H])c2c([H])c([H])c([H])c([H])c2[H])C(=O)N([H])[C@]([H])(C(=O)N([H])C([H])([H])[H])C([H])([H])C([H])([H])C(=O)OC([H])([H])C([H])([H])N([H])C(=O)C([H])([H])C1([H])[H]


 39 40  0  0  0  0  0  0  0  0999 V2000
   39.8273   16.1559  -10.8358 C   0  0  0  0  0  0  0  0  0  0  0  0
   41.1060   16.3718  -10.0954 C   0  0  0  0  0  0  0  0  0  0  0  0
   42.3466   15.8153  -10.7009 C   0  0  0  0  0  0  0  0  0  0  0  0
   43.2132   15.2037   -9.6276 C   0  0  0  0  0  0  0  0  0  0  0  0
   43.1085   13.9386   -9.4762 O   0  0  0  0  0  0  0  0  0  0  0  0
   44.0719   15.9144   -8.8403 O   0  0  0  0  0  0  0  0  0  0  0  0
   43.8458   17.0548   -8.0888 C   0  0  0  0  0  0  0  0  0  0  0  0
   43.4769   16.7818   -6.6304 C   0  0  0  0  0  0  0  0  0  0  0  0
   42.8554   17.9620   -6.0961 N   0  0  0  0  0  0  0  0  0  0  0  0
   41.9080   18.0224   -5.0501 C   0  0  0  0  0  0  0  0  0  0  0  0
   42.0359   18.8789   -4.1077 O   0  0  0  0  0  0  0  0  0  0  0  0
   40.7118   17.1321   -4.9411 C   0  0  0  0  0  0  0  0  0  0  0  0
   40.0753   16.8857   -6.2698 C   0  0  0  0  0  0  0  0  0  0  0  0
   39.0066   17.8796   -6.6725 C   0  0  0  0  0  0  0  0  0  0  0  0
   38.4690   17.4653   -7.9357 N   0  0  0  0  0  0  0  0  0  0  0  0
   37.8036   16.2441   -8.0607 C   0  0  0  0  0  0  0  0  0  0  0  0
   38.4775   15.1861   -8.8639 C   0  0  0  0  0  0  0  0  0  0  0  0
   38.6567   14.0797   -8.2425 O   0  0  0  0  0  0  0  0  0  0  0  0
   38.9309   15.2223  -10.1703 N   0  0  0  0  0  0  0  0  0  0  0  0
   43.1332   18.8932   -6.5240 H   0  0  0  0  0  0  0  0  0  0  0  0
   38.1607   18.2788   -8.4632 H   0  0  0  0  0  0  0  0  0  0  0  0
   38.5822   14.4462  -10.8275 H   0  0  0  0  0  0  0  0  0  0  0  0
   39.8826   14.2107  -14.1428 C   0  0  0  0  0  0  0  0  0  0  0  0
   39.6606   14.5723  -12.7659 N   0  0  0  0  0  0  0  0  0  0  0  0
   40.0661   15.8101  -12.2471 C   0  0  0  0  0  0  0  0  0  0  0  0
   40.6352   16.6246  -12.9917 O   0  0  0  0  0  0  0  0  0  0  0  0
   39.1846   13.8913  -12.1382 H   0  0  0  0  0  0  0  0  0  0  0  0
   38.0423   18.1459   -5.6075 C   0  0  0  0  0  0  0  0  0  0  0  0
   37.7542   19.2611   -5.1160 O   0  0  0  0  0  0  0  0  0  0  0  0
   37.3682   17.0312   -5.0757 O   0  0  0  0  0  0  0  0  0  0  0  0
   37.7664   16.6538   -4.2262 H   0  0  0  0  0  0  0  0  0  0  0  0
   36.3494   16.3842   -8.5255 C   0  0  0  0  0  0  0  0  0  0  0  0
   35.6784   15.0583   -8.6416 C   0  0  0  0  0  0  0  0  0  0  0  0
   34.8737   14.7354   -7.4208 C   0  0  0  0  0  0  0  0  0  0  0  0
   35.4061   14.1403   -6.3184 C   0  0  0  0  0  0  0  0  0  0  0  0
   34.5571   13.8943   -5.2460 C   0  0  0  0  0  0  0  0  0  0  0  0
   33.2181   14.2331   -5.2764 C   0  0  0  0  0  0  0  0  0  0  0  0
   32.6936   14.8338   -6.3969 C   0  0  0  0  0  0  0  0  0  0  0  0
   33.5397   15.0744   -7.4546 C   0  0  0  0  0  0  0  0  0  0  0  0
 23 24  1  0  0  0
 24 25  1  0  0  0
 25 26  2  0  0  0
 25  1  1  0  0  0
  1  2  1  0  0  0
  2  3  1  0  0  0
  3  4  1  0  0  0
  4  5  2  0  0  0
  4  6  1  0  0  0
  6  7  1  0  0  0
  7  8  1  0  0  0
  8  9  1  0  0  0
  9 10  1  0  0  0
 10 11  2  0  0  0
 10 12  1  0  0  0
 12 13  1  0  0  0
 13 14  1  0  0  0
 14 28  1  0  0  0
 28 29  2  0  0  0
 28 30  1  0  0  0
 14 15  1  0  0  0
 15 16  1  0  0  0
 16 32  1  0  0  0
 32 33  1  0  0  0
 33 34  1  0  0  0
 34 35  2  0  0  0
 35 36  1  0  0  0
 36 37  2  0  0  0
 37 38  1  0  0  0
 38 39  2  0  0  0
 16 17  1  0  0  0
 17 18  2  0  0  0
 17 19  1  0  0  0
 19  1  1  0  0  0
 39 34  1  0  0  0
 24 27  1  0  0  0
  9 20  1  0  0  0
 30 31  1  0  0  0
 15 21  1  0  0  0
 19 22  1  0  0  0
M  END
> <minimizedAffinity>
-6.85524

> <CNNscore>
0.1684859544

> <CNNaffinity>
4.8845210075

> <CNN_VS>
0.8229731917

> <CNNaffinity_variance>
0.3045892119

$$$$
[H]OC(=O)[C@]1([H])N([H])[C@@]([H])(C([H])([H])C([H])([H])c2c([H])c([H])c([H])c([H])c2[H])C(=O)N([H])[C@]([H])(C(=O)N([H])C([H])([H])[H])C([H])([H])C([H])([H])C(=O)OC([H])([H])C([H])([H])N([H])C(=O)C([H])([H])C1([H])[H]


 39 40  0  0  0  0  0  0  0  0999 V2000
   39.4807   14.0269  -15.3533 C   0  0  0  0  0  0  0  0  0  0  0  0
   40.3950   14.6104  -14.3269 C   0  0  0  0  0  0  0  0  0  0  0  0
   41.8514   14.3459  -14.4821 C   0  0  0  0  0  0  0  0  0  0  0  0
   42.4668   14.0496  -13.1366 C   0  0  0  0  0  0  0  0  0  0  0  0
   42.6047   12.8128  -12.8437 O   0  0  0  0  0  0  0  0  0  0  0  0
   42.8677   15.0073  -12.2510 O   0  0  0  0  0  0  0  0  0  0  0  0
   42.1782   16.1023  -11.7591 C   0  0  0  0  0  0  0  0  0  0  0  0
   41.4567   15.8463  -10.4358 C   0  0  0  0  0  0  0  0  0  0  0  0
   40.4574   16.8645  -10.2650 N   0  0  0  0  0  0  0  0  0  0  0  0
   39.2498   16.7551   -9.5403 C   0  0  0  0  0  0  0  0  0  0  0  0
   38.8941   17.6791   -8.7293 O   0  0  0  0  0  0  0  0  0  0  0  0
   38.3054   15.6005   -9.6414 C   0  0  0  0  0  0  0  0  0  0  0  0
   38.1708   15.1097  -11.0458 C   0  0  0  0  0  0  0  0  0  0  0  0
   37.0809   15.7700  -11.8632 C   0  0  0  0  0  0  0  0  0  0  0  0
   37.0556   15.1467  -13.1544 N   0  0  0  0  0  0  0  0  0  0  0  0
   36.7473   13.7911  -13.2851 C   0  0  0  0  0  0  0  0  0  0  0  0
   37.8492   12.8855  -13.7142 C   0  0  0  0  0  0  0  0  0  0  0  0
   38.0733   11.9063  -12.9184 O   0  0  0  0  0  0  0  0  0  0  0  0
   38.6558   12.9450  -14.8365 N   0  0  0  0  0  0  0  0  0  0  0  0
   40.6375   17.8039  -10.7262 H   0  0  0  0  0  0  0  0  0  0  0  0
   36.7484   15.8170  -13.8554 H   0  0  0  0  0  0  0  0  0  0  0  0
   38.7030   12.0623  -15.4485 H   0  0  0  0  0  0  0  0  0  0  0  0
   41.1515   11.9240  -18.0936 C   0  0  0  0  0  0  0  0  0  0  0  0
   40.4459   12.3122  -16.8988 N   0  0  0  0  0  0  0  0  0  0  0  0
   40.2047   13.6562  -16.5807 C   0  0  0  0  0  0  0  0  0  0  0  0
   40.6094   14.5448  -17.3478 O   0  0  0  0  0  0  0  0  0  0  0  0
   40.1059   11.5697  -16.2527 H   0  0  0  0  0  0  0  0  0  0  0  0
   35.8063   15.8563  -11.1540 C   0  0  0  0  0  0  0  0  0  0  0  0
   34.8427   15.0612  -11.2404 O   0  0  0  0  0  0  0  0  0  0  0  0
   35.6430   16.9502  -10.2841 O   0  0  0  0  0  0  0  0  0  0  0  0
   35.1486   17.7403  -10.6763 H   0  0  0  0  0  0  0  0  0  0  0  0
   35.5081   13.5257  -14.1479 C   0  0  0  0  0  0  0  0  0  0  0  0
   35.8737   13.2500  -15.5664 C   0  0  0  0  0  0  0  0  0  0  0  0
   35.3146   11.9439  -16.0392 C   0  0  0  0  0  0  0  0  0  0  0  0
   36.0427   11.0405  -16.7512 C   0  0  0  0  0  0  0  0  0  0  0  0
   35.4124    9.8615  -17.1309 C   0  0  0  0  0  0  0  0  0  0  0  0
   34.0956    9.5957  -16.8085 C   0  0  0  0  0  0  0  0  0  0  0  0
   33.3720   10.5175  -16.0887 C   0  0  0  0  0  0  0  0  0  0  0  0
   34.0021   11.6822  -15.7161 C   0  0  0  0  0  0  0  0  0  0  0  0
 23 24  1  0  0  0
 24 25  1  0  0  0
 25 26  2  0  0  0
 25  1  1  0  0  0
  1  2  1  0  0  0
  2  3  1  0  0  0
  3  4  1  0  0  0
  4  5  2  0  0  0
  4  6  1  0  0  0
  6  7  1  0  0  0
  7  8  1  0  0  0
  8  9  1  0  0  0
  9 10  1  0  0  0
 10 11  2  0  0  0
 10 12  1  0  0  0
 12 13  1  0  0  0
 13 14  1  0  0  0
 14 28  1  0  0  0
 28 29  2  0  0  0
 28 30  1  0  0  0
 14 15  1  0  0  0
 15 16  1  0  0  0
 16 32  1  0  0  0
 32 33  1  0  0  0
 33 34  1  0  0  0
 34 35  2  0  0  0
 35 36  1  0  0  0
 36 37  2  0  0  0
 37 38  1  0  0  0
 38 39  2  0  0  0
 16 17  1  0  0  0
 17 18  2  0  0  0
 17 19  1  0  0  0
 19  1  1  0  0  0
 39 34  1  0  0  0
 24 27  1  0  0  0
  9 20  1  0  0  0
 30 31  1  0  0  0
 15 21  1  0  0  0
 19 22  1  0  0  0
M  END
> <minimizedAffinity>
-6.43760

> <CNNscore>
0.1590333879

> <CNNaffinity>
5.7501659393

> <CNN_VS>
0.9144683480

> <CNNaffinity_variance>
0.1519249976

$$$$
[H]OC(=O)[C@]1([H])N([H])[C@@]([H])(C([H])([H])C([H])([H])c2c([H])c([H])c([H])c([H])c2[H])C(=O)N([H])[C@]([H])(C(=O)N([H])C([H])([H])[H])C([H])([H])C([H])([H])C(=O)OC([H])([H])C([H])([H])N([H])C(=O)C([H])([H])C1([H])[H]


 39 40  0  0  0  0  0  0  0  0999 V2000
   42.0565   15.9241  -11.1837 C   0  0  0  0  0  0  0  0  0  0  0  0
   43.4053   16.5140  -11.4340 C   0  0  0  0  0  0  0  0  0  0  0  0
   43.9636   16.3804  -12.8072 C   0  0  0  0  0  0  0  0  0  0  0  0
   45.4343   16.0504  -12.7347 C   0  0  0  0  0  0  0  0  0  0  0  0
   45.7368   14.8130  -12.8426 O   0  0  0  0  0  0  0  0  0  0  0  0
   46.4194   16.9794  -12.5653 O   0  0  0  0  0  0  0  0  0  0  0  0
   46.5382   17.9805  -11.6167 C   0  0  0  0  0  0  0  0  0  0  0  0
   47.3486   17.5824  -10.3829 C   0  0  0  0  0  0  0  0  0  0  0  0
   47.0357   18.5023   -9.3243 N   0  0  0  0  0  0  0  0  0  0  0  0
   47.0902   18.2482   -7.9358 C   0  0  0  0  0  0  0  0  0  0  0  0
   47.6462   19.0863   -7.1444 O   0  0  0  0  0  0  0  0  0  0  0  0
   46.5291   17.0287   -7.2774 C   0  0  0  0  0  0  0  0  0  0  0  0
   45.2245   16.6190   -7.8785 C   0  0  0  0  0  0  0  0  0  0  0  0
   43.9954   17.2384   -7.2477 C   0  0  0  0  0  0  0  0  0  0  0  0
   42.8403   16.6988   -7.9040 N   0  0  0  0  0  0  0  0  0  0  0  0
   42.5551   15.3335   -7.8360 C   0  0  0  0  0  0  0  0  0  0  0  0
   42.6924   14.5506   -9.0955 C   0  0  0  0  0  0  0  0  0  0  0  0
   43.4818   13.5443   -9.0130 O   0  0  0  0  0  0  0  0  0  0  0  0
   42.0960   14.7474  -10.3281 N   0  0  0  0  0  0  0  0  0  0  0  0
   46.7332   19.4807   -9.6048 H   0  0  0  0  0  0  0  0  0  0  0  0
   42.0891   17.3849   -7.9006 H   0  0  0  0  0  0  0  0  0  0  0  0
   41.5672   13.9124  -10.7511 H   0  0  0  0  0  0  0  0  0  0  0  0
   40.6187   14.1850  -14.2871 C   0  0  0  0  0  0  0  0  0  0  0  0
   41.3303   14.4362  -13.0597 N   0  0  0  0  0  0  0  0  0  0  0  0
   41.3211   15.6930  -12.4382 C   0  0  0  0  0  0  0  0  0  0  0  0
   40.6823   16.6231  -12.9565 O   0  0  0  0  0  0  0  0  0  0  0  0
   41.8680   13.6589  -12.6227 H   0  0  0  0  0  0  0  0  0  0  0  0
   44.0074   17.1745   -5.7881 C   0  0  0  0  0  0  0  0  0  0  0  0
   44.0513   16.1417   -5.0812 O   0  0  0  0  0  0  0  0  0  0  0  0
   43.9615   18.4032   -5.1039 O   0  0  0  0  0  0  0  0  0  0  0  0
   43.0417   18.6890   -4.7960 H   0  0  0  0  0  0  0  0  0  0  0  0
   41.1992   15.0229   -7.1914 C   0  0  0  0  0  0  0  0  0  0  0  0
   40.3687   16.2510   -7.0373 C   0  0  0  0  0  0  0  0  0  0  0  0
   39.6850   16.2944   -5.7057 C   0  0  0  0  0  0  0  0  0  0  0  0
   40.3547   16.4756   -4.5345 C   0  0  0  0  0  0  0  0  0  0  0  0
   39.6077   16.5005   -3.3629 C   0  0  0  0  0  0  0  0  0  0  0  0
   38.2345   16.3487   -3.3638 C   0  0  0  0  0  0  0  0  0  0  0  0
   37.5710   16.1663   -4.5546 C   0  0  0  0  0  0  0  0  0  0  0  0
   38.3166   16.1427   -5.7104 C   0  0  0  0  0  0  0  0  0  0  0  0
 23 24  1  0  0  0
 24 25  1  0  0  0
 25 26  2  0  0  0
 25  1  1  0  0  0
  1  2  1  0  0  0
  2  3  1  0  0  0
  3  4  1  0  0  0
  4  5  2  0  0  0
  4  6  1  0  0  0
  6  7  1  0  0  0
  7  8  1  0  0  0
  8  9  1  0  0  0
  9 10  1  0  0  0
 10 11  2  0  0  0
 10 12  1  0  0  0
 12 13  1  0  0  0
 13 14  1  0  0  0
 14 28  1  0  0  0
 28 29  2  0  0  0
 28 30  1  0  0  0
 14 15  1  0  0  0
 15 16  1  0  0  0
 16 32  1  0  0  0
 32 33  1  0  0  0
 33 34  1  0  0  0
 34 35  2  0  0  0
 35 36  1  0  0  0
 36 37  2  0  0  0
 37 38  1  0  0  0
 38 39  2  0  0  0
 16 17  1  0  0  0
 17 18  2  0  0  0
 17 19  1  0  0  0
 19  1  1  0  0  0
 39 34  1  0  0  0
 24 27  1  0  0  0
  9 20  1  0  0  0
 30 31  1  0  0  0
 15 21  1  0  0  0
 19 22  1  0  0  0
M  END
> <minimizedAffinity>
-5.59116

> <CNNscore>
0.1565723717

> <CNNaffinity>
4.7367763519

> <CNN_VS>
0.7416483164

> <CNNaffinity_variance>
0.5119971037

$$$$
[H]OC(=O)[C@]1([H])N([H])[C@@]([H])(C([H])([H])C([H])([H])c2c([H])c([H])c([H])c([H])c2[H])C(=O)N([H])[C@]([H])(C(=O)N([H])C([H])([H])[H])C([H])([H])C([H])([H])C(=O)OC([H])([H])C([H])([H])N([H])C(=O)C([H])([H])C1([H])[H]


 39 40  0  0  0  0  0  0  0  0999 V2000
   40.9648   15.8953   -9.0179 C   0  0  0  0  0  0  0  0  0  0  0  0
   41.9777   16.2012  -10.0715 C   0  0  0  0  0  0  0  0  0  0  0  0
   41.4935   16.2951  -11.4758 C   0  0  0  0  0  0  0  0  0  0  0  0
   42.4771   15.6269  -12.4049 C   0  0  0  0  0  0  0  0  0  0  0  0
   42.2059   14.4221  -12.7354 O   0  0  0  0  0  0  0  0  0  0  0  0
   43.6016   16.2287  -12.8899 O   0  0  0  0  0  0  0  0  0  0  0  0
   44.6067   16.9009  -12.2159 C   0  0  0  0  0  0  0  0  0  0  0  0
   45.8034   16.0266  -11.8405 C   0  0  0  0  0  0  0  0  0  0  0  0
   46.5391   16.6944  -10.8024 N   0  0  0  0  0  0  0  0  0  0  0  0
   47.3387   16.0908   -9.8065 C   0  0  0  0  0  0  0  0  0  0  0  0
   48.5050   16.5487   -9.5454 O   0  0  0  0  0  0  0  0  0  0  0  0
   46.9235   14.9081   -8.9916 C   0  0  0  0  0  0  0  0  0  0  0  0
   45.4841   14.9773   -8.5988 C   0  0  0  0  0  0  0  0  0  0  0  0
   45.2010   15.6831   -7.2896 C   0  0  0  0  0  0  0  0  0  0  0  0
   43.7905   15.6097   -7.0421 N   0  0  0  0  0  0  0  0  0  0  0  0
   43.1628   14.3760   -6.8581 C   0  0  0  0  0  0  0  0  0  0  0  0
   42.2256   13.9285   -7.9257 C   0  0  0  0  0  0  0  0  0  0  0  0
   42.4975   12.7800   -8.4251 O   0  0  0  0  0  0  0  0  0  0  0  0
   41.1140   14.5639   -8.4494 N   0  0  0  0  0  0  0  0  0  0  0  0
   46.4851   17.7544  -10.7738 H   0  0  0  0  0  0  0  0  0  0  0  0
   43.4893   16.4269   -6.5163 H   0  0  0  0  0  0  0  0  0  0  0  0
   40.1930   14.0092   -8.4518 H   0  0  0  0  0  0  0  0  0  0  0  0
   37.7440   17.7622   -9.9480 C   0  0  0  0  0  0  0  0  0  0  0  0
   39.0811   17.4711   -9.4968 N   0  0  0  0  0  0  0  0  0  0  0  0
   39.5945   16.1665   -9.4837 C   0  0  0  0  0  0  0  0  0  0  0  0
   38.8800   15.2279   -9.8712 O   0  0  0  0  0  0  0  0  0  0  0  0
   39.6828   18.2557   -9.1701 H   0  0  0  0  0  0  0  0  0  0  0  0
   46.0785   15.2499   -6.2046 C   0  0  0  0  0  0  0  0  0  0  0  0
   46.7949   15.9787   -5.4808 O   0  0  0  0  0  0  0  0  0  0  0  0
   46.1261   13.8673   -5.9476 O   0  0  0  0  0  0  0  0  0  0  0  0
   46.8974   13.3767   -6.3800 H   0  0  0  0  0  0  0  0  0  0  0  0
   42.4805   14.2340   -5.4925 C   0  0  0  0  0  0  0  0  0  0  0  0
   42.2280   15.5612   -4.8627 C   0  0  0  0  0  0  0  0  0  0  0  0
   40.8864   16.1081   -5.2412 C   0  0  0  0  0  0  0  0  0  0  0  0
   40.6853   17.4124   -5.5752 C   0  0  0  0  0  0  0  0  0  0  0  0
   39.3935   17.7992   -5.9111 C   0  0  0  0  0  0  0  0  0  0  0  0
   38.3369   16.9091   -5.9123 C   0  0  0  0  0  0  0  0  0  0  0  0
   38.5547   15.5943   -5.5726 C   0  0  0  0  0  0  0  0  0  0  0  0
   39.8358   15.2182   -5.2413 C   0  0  0  0  0  0  0  0  0  0  0  0
 23 24  1  0  0  0
 24 25  1  0  0  0
 25 26  2  0  0  0
 25  1  1  0  0  0
  1  2  1  0  0  0
  2  3  1  0  0  0
  3  4  1  0  0  0
  4  5  2  0  0  0
  4  6  1  0  0  0
  6  7  1  0  0  0
  7  8  1  0  0  0
  8  9  1  0  0  0
  9 10  1  0  0  0
 10 11  2  0  0  0
 10 12  1  0  0  0
 12 13  1  0  0  0
 13 14  1  0  0  0
 14 28  1  0  0  0
 28 29  2  0  0  0
 28 30  1  0  0  0
 14 15  1  0  0  0
 15 16  1  0  0  0
 16 32  1  0  0  0
 32 33  1  0  0  0
 33 34  1  0  0  0
 34 35  2  0  0  0
 35 36  1  0  0  0
 36 37  2  0  0  0
 37 38  1  0  0  0
 38 39  2  0  0  0
 16 17  1  0  0  0
 17 18  2  0  0  0
 17 19  1  0  0  0
 19  1  1  0  0  0
 39 34  1  0  0  0
 24 27  1  0  0  0
  9 20  1  0  0  0
 30 31  1  0  0  0
 15 21  1  0  0  0
 19 22  1  0  0  0
M  END
> <minimizedAffinity>
-4.84226

> <CNNscore>
0.1553779244

> <CNNaffinity>
4.7179946899

> <CNN_VS>
0.7330722213

> <CNNaffinity_variance>
0.3570997715

$$$$
[H]OC(=O)[C@]1([H])N([H])[C@@]([H])(C([H])([H])C([H])([H])c2c([H])c([H])c([H])c([H])c2[H])C(=O)N([H])[C@]([H])(C(=O)N([H])C([H])([H])[H])C([H])([H])C([H])([H])C(=O)OC([H])([H])C([H])([H])N([H])C(=O)C([H])([H])C1([H])[H]


 39 40  0  0  0  0  0  0  0  0999 V2000
   46.2651   10.7859   -9.5709 C   0  0  0  0  0  0  0  0  0  0  0  0
   46.1436   11.5318  -10.8588 C   0  0  0  0  0  0  0  0  0  0  0  0
   47.2237   11.3365  -11.8641 C   0  0  0  0  0  0  0  0  0  0  0  0
   47.5722   12.6560  -12.5077 C   0  0  0  0  0  0  0  0  0  0  0  0
   48.5834   13.2675  -12.0200 O   0  0  0  0  0  0  0  0  0  0  0  0
   46.8817   13.2057  -13.5485 O   0  0  0  0  0  0  0  0  0  0  0  0
   45.5229   13.4302  -13.6890 C   0  0  0  0  0  0  0  0  0  0  0  0
   45.0709   14.8275  -13.2637 C   0  0  0  0  0  0  0  0  0  0  0  0
   43.6522   14.7913  -13.0388 N   0  0  0  0  0  0  0  0  0  0  0  0
   42.9108   15.6149  -12.1627 C   0  0  0  0  0  0  0  0  0  0  0  0
   41.8234   16.1647  -12.5541 O   0  0  0  0  0  0  0  0  0  0  0  0
   43.3024   15.9154  -10.7515 C   0  0  0  0  0  0  0  0  0  0  0  0
   43.8689   14.7179  -10.0613 C   0  0  0  0  0  0  0  0  0  0  0  0
   42.8611   13.8422   -9.3474 C   0  0  0  0  0  0  0  0  0  0  0  0
   43.5756   12.7807   -8.7002 N   0  0  0  0  0  0  0  0  0  0  0  0
   44.5002   13.0562   -7.6907 C   0  0  0  0  0  0  0  0  0  0  0  0
   45.9351   12.8055   -8.0012 C   0  0  0  0  0  0  0  0  0  0  0  0
   46.7004   13.8200   -7.8355 O   0  0  0  0  0  0  0  0  0  0  0  0
   46.5564   11.6482   -8.4351 N   0  0  0  0  0  0  0  0  0  0  0  0
   43.0918   14.0748  -13.5867 H   0  0  0  0  0  0  0  0  0  0  0  0
   42.9912   11.9493   -8.6535 H   0  0  0  0  0  0  0  0  0  0  0  0
   47.3968   11.3027   -7.8603 H   0  0  0  0  0  0  0  0  0  0  0  0
   49.3076    8.5154   -9.0131 C   0  0  0  0  0  0  0  0  0  0  0  0
   48.3772    9.6118   -8.9220 N   0  0  0  0  0  0  0  0  0  0  0  0
   47.2001    9.6539   -9.6824 C   0  0  0  0  0  0  0  0  0  0  0  0
   46.9454    8.7208  -10.4611 O   0  0  0  0  0  0  0  0  0  0  0  0
   48.5880   10.3966   -8.2708 H   0  0  0  0  0  0  0  0  0  0  0  0
   41.9280   14.6022   -8.5188 C   0  0  0  0  0  0  0  0  0  0  0  0
   42.2083   15.5405   -7.7383 O   0  0  0  0  0  0  0  0  0  0  0  0
   40.5711   14.2396   -8.6044 O   0  0  0  0  0  0  0  0  0  0  0  0
   40.2489   13.6094   -7.8822 H   0  0  0  0  0  0  0  0  0  0  0  0
   44.1512   12.4057   -6.3470 C   0  0  0  0  0  0  0  0  0  0  0  0
   42.8776   11.6351   -6.4228 C   0  0  0  0  0  0  0  0  0  0  0  0
   42.7753   10.6237   -5.3233 C   0  0  0  0  0  0  0  0  0  0  0  0
   41.8486   10.7010   -4.3292 C   0  0  0  0  0  0  0  0  0  0  0  0
   41.8520    9.6990   -3.3663 C   0  0  0  0  0  0  0  0  0  0  0  0
   42.7543    8.6532   -3.3975 C   0  0  0  0  0  0  0  0  0  0  0  0
   43.6852    8.5879   -4.4078 C   0  0  0  0  0  0  0  0  0  0  0  0
   43.6761    9.5830   -5.3576 C   0  0  0  0  0  0  0  0  0  0  0  0
 23 24  1  0  0  0
 24 25  1  0  0  0
 25 26  2  0  0  0
 25  1  1  0  0  0
  1  2  1  0  0  0
  2  3  1  0  0  0
  3  4  1  0  0  0
  4  5  2  0  0  0
  4  6  1  0  0  0
  6  7  1  0  0  0
  7  8  1  0  0  0
  8  9  1  0  0  0
  9 10  1  0  0  0
 10 11  2  0  0  0
 10 12  1  0  0  0
 12 13  1  0  0  0
 13 14  1  0  0  0
 14 28  1  0  0  0
 28 29  2  0  0  0
 28 30  1  0  0  0
 14 15  1  0  0  0
 15 16  1  0  0  0
 16 32  1  0  0  0
 32 33  1  0  0  0
 33 34  1  0  0  0
 34 35  2  0  0  0
 35 36  1  0  0  0
 36 37  2  0  0  0
 37 38  1  0  0  0
 38 39  2  0  0  0
 16 17  1  0  0  0
 17 18  2  0  0  0
 17 19  1  0  0  0
 19  1  1  0  0  0
 39 34  1  0  0  0
 24 27  1  0  0  0
  9 20  1  0  0  0
 30 31  1  0  0  0
 15 21  1  0  0  0
 19 22  1  0  0  0
M  END
> <minimizedAffinity>
-6.75859

> <CNNscore>
0.1446490735

> <CNNaffinity>
4.3734364510

> <CNN_VS>
0.6326135397

> <CNNaffinity_variance>
0.6147028208

$$$$
[H]OC(=O)[C@]1([H])N([H])[C@@]([H])(C([H])([H])C([H])([H])c2c([H])c([H])c([H])c([H])c2[H])C(=O)N([H])[C@]([H])(C(=O)N([H])C([H])([H])[H])C([H])([H])C([H])([H])C(=O)OC([H])([H])C([H])([H])N([H])C(=O)C([H])([H])C1([H])[H]


 39 40  0  0  0  0  0  0  0  0999 V2000
   39.0487   15.5816  -12.3956 C   0  0  0  0  0  0  0  0  0  0  0  0
   38.7138   15.9898  -10.9989 C   0  0  0  0  0  0  0  0  0  0  0  0
   39.8383   16.0860  -10.0286 C   0  0  0  0  0  0  0  0  0  0  0  0
   39.4176   15.5175   -8.6956 C   0  0  0  0  0  0  0  0  0  0  0  0
   39.7567   14.3055   -8.4711 O   0  0  0  0  0  0  0  0  0  0  0  0
   38.7172   16.2136   -7.7537 O   0  0  0  0  0  0  0  0  0  0  0  0
   37.5451   16.9394   -7.8792 C   0  0  0  0  0  0  0  0  0  0  0  0
   36.2786   16.1457   -7.5577 C   0  0  0  0  0  0  0  0  0  0  0  0
   35.1576   16.8373   -8.1319 N   0  0  0  0  0  0  0  0  0  0  0  0
   33.9384   16.2673   -8.5612 C   0  0  0  0  0  0  0  0  0  0  0  0
   32.8222   16.8026   -8.2362 O   0  0  0  0  0  0  0  0  0  0  0  0
   33.8313   15.0355   -9.4017 C   0  0  0  0  0  0  0  0  0  0  0  0
   34.8839   14.9878  -10.4605 C   0  0  0  0  0  0  0  0  0  0  0  0
   34.5107   15.6349  -11.7773 C   0  0  0  0  0  0  0  0  0  0  0  0
   35.6036   15.4511  -12.6873 N   0  0  0  0  0  0  0  0  0  0  0  0
   35.9928   14.1700  -13.0837 C   0  0  0  0  0  0  0  0  0  0  0  0
   37.3139   13.6839  -12.5972 C   0  0  0  0  0  0  0  0  0  0  0  0
   37.2702   12.5726  -11.9605 O   0  0  0  0  0  0  0  0  0  0  0  0
   38.5688   14.2498  -12.7336 N   0  0  0  0  0  0  0  0  0  0  0  0
   35.2433   17.8893   -8.2474 H   0  0  0  0  0  0  0  0  0  0  0  0
   35.6428   16.2293  -13.3414 H   0  0  0  0  0  0  0  0  0  0  0  0
   39.3388   13.6290  -13.1551 H   0  0  0  0  0  0  0  0  0  0  0  0
   42.7551   14.8185  -13.0306 C   0  0  0  0  0  0  0  0  0  0  0  0
   41.3509   14.6664  -12.7457 N   0  0  0  0  0  0  0  0  0  0  0  0
   40.4802   15.7637  -12.6886 C   0  0  0  0  0  0  0  0  0  0  0  0
   40.9263   16.9051  -12.8882 O   0  0  0  0  0  0  0  0  0  0  0  0
   40.9734   13.7107  -12.5767 H   0  0  0  0  0  0  0  0  0  0  0  0
   33.1883   15.2382  -12.2555 C   0  0  0  0  0  0  0  0  0  0  0  0
   32.8420   14.1018  -12.6518 O   0  0  0  0  0  0  0  0  0  0  0  0
   32.1999   16.2395  -12.2759 O   0  0  0  0  0  0  0  0  0  0  0  0
   32.0686   16.6949  -13.1692 H   0  0  0  0  0  0  0  0  0  0  0  0
   35.8941   13.9411  -14.5964 C   0  0  0  0  0  0  0  0  0  0  0  0
   35.5068   12.5378  -14.9166 C   0  0  0  0  0  0  0  0  0  0  0  0
   36.4446   11.9155  -15.9043 C   0  0  0  0  0  0  0  0  0  0  0  0
   36.0189   11.1938  -16.9771 C   0  0  0  0  0  0  0  0  0  0  0  0
   36.9868   10.6685  -17.8249 C   0  0  0  0  0  0  0  0  0  0  0  0
   38.3373   10.8593  -17.6054 C   0  0  0  0  0  0  0  0  0  0  0  0
   38.7531   11.5906  -16.5173 C   0  0  0  0  0  0  0  0  0  0  0  0
   37.7897   12.1076  -15.6825 C   0  0  0  0  0  0  0  0  0  0  0  0
 23 24  1  0  0  0
 24 25  1  0  0  0
 25 26  2  0  0  0
 25  1  1  0  0  0
  1  2  1  0  0  0
  2  3  1  0  0  0
  3  4  1  0  0  0
  4  5  2  0  0  0
  4  6  1  0  0  0
  6  7  1  0  0  0
  7  8  1  0  0  0
  8  9  1  0  0  0
  9 10  1  0  0  0
 10 11  2  0  0  0
 10 12  1  0  0  0
 12 13  1  0  0  0
 13 14  1  0  0  0
 14 28  1  0  0  0
 28 29  2  0  0  0
 28 30  1  0  0  0
 14 15  1  0  0  0
 15 16  1  0  0  0
 16 32  1  0  0  0
 32 33  1  0  0  0
 33 34  1  0  0  0
 34 35  2  0  0  0
 35 36  1  0  0  0
 36 37  2  0  0  0
 37 38  1  0  0  0
 38 39  2  0  0  0
 16 17  1  0  0  0
 17 18  2  0  0  0
 17 19  1  0  0  0
 19  1  1  0  0  0
 39 34  1  0  0  0
 24 27  1  0  0  0
  9 20  1  0  0  0
 30 31  1  0  0  0
 15 21  1  0  0  0
 19 22  1  0  0  0
M  END
> <minimizedAffinity>
-8.70835

> <CNNscore>
0.1436277330

> <CNNaffinity>
5.8788089752

> <CNN_VS>
0.8443599939

> <CNNaffinity_variance>
0.1542967558

$$$$
[H]c1nc2n(n1)C([H])(c1sc([H])c([H])c1[H])C([H])([H])C([H])(c1c([H])c([H])c(Cl)c(Cl)c1[H])N2[H]


 23 26  0  0  0  0  0  0  0  0999 V2000
   42.2598   12.7003  -15.9860 C   0  0  0  0  0  0  0  0  0  0  0  0
   41.3569   13.8816  -16.0711 C   0  0  0  0  0  0  0  0  0  0  0  0
   39.9856   13.5147  -16.5057 C   0  0  0  0  0  0  0  0  0  0  0  0
   39.9225   12.4814  -17.4901 N   0  0  0  0  0  0  0  0  0  0  0  0
   38.8994   12.0147  -18.1759 N   0  0  0  0  0  0  0  0  0  0  0  0
   39.2870   11.0357  -19.0031 C   0  0  0  0  0  0  0  0  0  0  0  0
   40.6103   10.9090  -18.8030 N   0  0  0  0  0  0  0  0  0  0  0  0
   41.0316   11.7841  -17.8782 C   0  0  0  0  0  0  0  0  0  0  0  0
   42.2946   12.0786  -17.2952 N   0  0  0  0  0  0  0  0  0  0  0  0
   43.1430   11.8352  -17.8318 H   0  0  0  0  0  0  0  0  0  0  0  0
   47.6805   14.0685  -13.8197 Cl  0  0  0  0  0  0  0  0  0  0  0  0
   46.1086   13.6597  -14.4646 C   0  0  0  0  0  0  0  0  0  0  0  0
   46.0165   12.8658  -15.5838 C   0  0  0  0  0  0  0  0  0  0  0  0
   44.7435   12.5545  -16.0783 C   0  0  0  0  0  0  0  0  0  0  0  0
   43.6040   13.0171  -15.4798 C   0  0  0  0  0  0  0  0  0  0  0  0
   43.7213   13.8102  -14.3603 C   0  0  0  0  0  0  0  0  0  0  0  0
   44.9790   14.1414  -13.8386 C   0  0  0  0  0  0  0  0  0  0  0  0
   45.1436   15.1487  -12.4165 Cl  0  0  0  0  0  0  0  0  0  0  0  0
   39.0985   13.1292  -15.3457 C   0  0  0  0  0  0  0  0  0  0  0  0
   38.5424   11.9075  -15.0946 C   0  0  0  0  0  0  0  0  0  0  0  0
   37.7811   11.7850  -14.0013 C   0  0  0  0  0  0  0  0  0  0  0  0
   37.6213   12.9004  -13.2199 C   0  0  0  0  0  0  0  0  0  0  0  0
   38.5402   14.0774  -14.0417 S   0  0  0  0  0  0  0  0  0  0  0  0
 11 12  1  0  0  0
 12 13  2  0  0  0
 13 14  1  0  0  0
 14 15  2  0  0  0
 15  1  1  0  0  0
  1  2  1  0  0  0
  2  3  1  0  0  0
  3 19  1  0  0  0
 19 20  2  0  0  0
 20 21  1  0  0  0
 21 22  2  0  0  0
 22 23  1  0  0  0
  3  4  1  0  0  0
  4  5  1  0  0  0
  5  6  2  0  0  0
  6  7  1  0  0  0
  7  8  2  0  0  0
  8  9  1  0  0  0
 15 16  1  0  0  0
 16 17  2  0  0  0
 17 18  1  0  0  0
 17 12  1  0  0  0
  9  1  1  0  0  0
 23 19  1  0  0  0
  8  4  1  0  0  0
  9 10  1  0  0  0
M  END
> <minimizedAffinity>
-6.72392

> <CNNscore>
0.6146750450

> <CNNaffinity>
6.5729455948

> <CNN_VS>
4.0402255058

> <CNNaffinity_variance>
0.3082601130

$$$$
[H]c1nc2n(n1)C([H])(c1sc([H])c([H])c1[H])C([H])([H])C([H])(c1c([H])c([H])c(Cl)c(Cl)c1[H])N2[H]


 23 26  0  0  0  0  0  0  0  0999 V2000
   40.0607   13.9020   -6.1350 C   0  0  0  0  0  0  0  0  0  0  0  0
   38.9749   13.2781   -6.9411 C   0  0  0  0  0  0  0  0  0  0  0  0
   37.7942   14.1669   -7.0826 C   0  0  0  0  0  0  0  0  0  0  0  0
   37.4830   14.9430   -5.9244 N   0  0  0  0  0  0  0  0  0  0  0  0
   36.4495   15.7178   -5.6663 N   0  0  0  0  0  0  0  0  0  0  0  0
   36.5544   16.2618   -4.4474 C   0  0  0  0  0  0  0  0  0  0  0  0
   37.7101   15.7891   -3.9491 N   0  0  0  0  0  0  0  0  0  0  0  0
   38.3050   14.9752   -4.8334 C   0  0  0  0  0  0  0  0  0  0  0  0
   39.5118   14.2231   -4.8323 N   0  0  0  0  0  0  0  0  0  0  0  0
   39.9145   13.9575   -3.9189 H   0  0  0  0  0  0  0  0  0  0  0  0
   44.9538   10.4678   -5.6735 Cl  0  0  0  0  0  0  0  0  0  0  0  0
   43.5368   11.4800   -5.8197 C   0  0  0  0  0  0  0  0  0  0  0  0
   43.5783   12.5996   -6.6173 C   0  0  0  0  0  0  0  0  0  0  0  0
   42.4275   13.3921   -6.7155 C   0  0  0  0  0  0  0  0  0  0  0  0
   41.2776   13.0808   -6.0437 C   0  0  0  0  0  0  0  0  0  0  0  0
   41.2599   11.9549   -5.2511 C   0  0  0  0  0  0  0  0  0  0  0  0
   42.3931   11.1393   -5.1300 C   0  0  0  0  0  0  0  0  0  0  0  0
   42.3856    9.7053   -4.1263 Cl  0  0  0  0  0  0  0  0  0  0  0  0
   37.9125   15.0961   -8.2672 C   0  0  0  0  0  0  0  0  0  0  0  0
   38.7922   16.1279   -8.4299 C   0  0  0  0  0  0  0  0  0  0  0  0
   38.7220   16.8301   -9.5665 C   0  0  0  0  0  0  0  0  0  0  0  0
   37.7689   16.4545  -10.4780 C   0  0  0  0  0  0  0  0  0  0  0  0
   37.0074   15.1354   -9.7131 S   0  0  0  0  0  0  0  0  0  0  0  0
 11 12  1  0  0  0
 12 13  2  0  0  0
 13 14  1  0  0  0
 14 15  2  0  0  0
 15  1  1  0  0  0
  1  2  1  0  0  0
  2  3  1  0  0  0
  3 19  1  0  0  0
 19 20  2  0  0  0
 20 21  1  0  0  0
 21 22  2  0  0  0
 22 23  1  0  0  0
  3  4  1  0  0  0
  4  5  1  0  0  0
  5  6  2  0  0  0
  6  7  1  0  0  0
  7  8  2  0  0  0
  8  9  1  0  0  0
 15 16  1  0  0  0
 16 17  2  0  0  0
 17 18  1  0  0  0
 17 12  1  0  0  0
  9  1  1  0  0  0
 23 19  1  0  0  0
  8  4  1  0  0  0
  9 10  1  0  0  0
M  END
> <minimizedAffinity>
-4.87486

> <CNNscore>
0.2713084519

> <CNNaffinity>
4.6792073250

> <CNN_VS>
1.2695084810

> <CNNaffinity_variance>
0.6340392828

$$$$
[H]c1nc2n(n1)C([H])(c1sc([H])c([H])c1[H])C([H])([H])C([H])(c1c([H])c([H])c(Cl)c(Cl)c1[H])N2[H]


 23 26  0  0  0  0  0  0  0  0999 V2000
   35.4321   13.7573  -12.8540 C   0  0  0  0  0  0  0  0  0  0  0  0
   35.7962   15.1661  -12.5367 C   0  0  0  0  0  0  0  0  0  0  0  0
   34.9173   15.7563  -11.4960 C   0  0  0  0  0  0  0  0  0  0  0  0
   33.5466   15.3608  -11.5709 N   0  0  0  0  0  0  0  0  0  0  0  0
   32.4955   15.7875  -10.9015 N   0  0  0  0  0  0  0  0  0  0  0  0
   31.3887   15.1419  -11.2902 C   0  0  0  0  0  0  0  0  0  0  0  0
   31.7972   14.2840  -12.2412 N   0  0  0  0  0  0  0  0  0  0  0  0
   33.1194   14.3943  -12.4370 C   0  0  0  0  0  0  0  0  0  0  0  0
   34.0513   13.7491  -13.2955 N   0  0  0  0  0  0  0  0  0  0  0  0
   33.6920   13.3224  -14.1649 H   0  0  0  0  0  0  0  0  0  0  0  0
   38.9979   11.1136  -16.8844 Cl  0  0  0  0  0  0  0  0  0  0  0  0
   37.9735   11.8877  -15.6991 C   0  0  0  0  0  0  0  0  0  0  0  0
   38.5293   12.4084  -14.5539 C   0  0  0  0  0  0  0  0  0  0  0  0
   37.6838   13.0232  -13.6216 C   0  0  0  0  0  0  0  0  0  0  0  0
   36.3342   13.1158  -13.8226 C   0  0  0  0  0  0  0  0  0  0  0  0
   35.8005   12.5872  -14.9767 C   0  0  0  0  0  0  0  0  0  0  0  0
   36.6170   11.9653  -15.9309 C   0  0  0  0  0  0  0  0  0  0  0  0
   35.9529   11.2888  -17.4024 Cl  0  0  0  0  0  0  0  0  0  0  0  0
   35.4204   15.4865  -10.0977 C   0  0  0  0  0  0  0  0  0  0  0  0
   36.5057   14.7416   -9.7339 C   0  0  0  0  0  0  0  0  0  0  0  0
   36.7728   14.6308   -8.4277 C   0  0  0  0  0  0  0  0  0  0  0  0
   35.9317   15.2766   -7.5584 C   0  0  0  0  0  0  0  0  0  0  0  0
   34.8002   16.0139   -8.5982 S   0  0  0  0  0  0  0  0  0  0  0  0
 11 12  1  0  0  0
 12 13  2  0  0  0
 13 14  1  0  0  0
 14 15  2  0  0  0
 15  1  1  0  0  0
  1  2  1  0  0  0
  2  3  1  0  0  0
  3 19  1  0  0  0
 19 20  2  0  0  0
 20 21  1  0  0  0
 21 22  2  0  0  0
 22 23  1  0  0  0
  3  4  1  0  0  0
  4  5  1  0  0  0
  5  6  2  0  0  0
  6  7  1  0  0  0
  7  8  2  0  0  0
  8  9  1  0  0  0
 15 16  1  0  0  0
 16 17  2  0  0  0
 17 18  1  0  0  0
 17 12  1  0  0  0
  9  1  1  0  0  0
 23 19  1  0  0  0
  8  4  1  0  0  0
  9 10  1  0  0  0
M  END
> <minimizedAffinity>
-7.56754

> <CNNscore>
0.2469316423

> <CNNaffinity>
5.8480463028

> <CNN_VS>
1.4440677166

> <CNNaffinity_variance>
0.4414512217

$$$$
[H]c1nc2n(n1)C([H])(c1sc([H])c([H])c1[H])C([H])([H])C([H])(c1c([H])c([H])c(Cl)c(Cl)c1[H])N2[H]


 23 26  0  0  0  0  0  0  0  0999 V2000
   40.0370   12.7600  -15.3673 C   0  0  0  0  0  0  0  0  0  0  0  0
   39.2379   14.0015  -15.5622 C   0  0  0  0  0  0  0  0  0  0  0  0
   37.7794   13.7311  -15.6233 C   0  0  0  0  0  0  0  0  0  0  0  0
   37.4189   12.5236  -16.2961 N   0  0  0  0  0  0  0  0  0  0  0  0
   36.2363   12.0556  -16.6387 N   0  0  0  0  0  0  0  0  0  0  0  0
   36.3527   10.8761  -17.2617 C   0  0  0  0  0  0  0  0  0  0  0  0
   37.6728   10.6240  -17.2943 N   0  0  0  0  0  0  0  0  0  0  0  0
   38.3558   11.6184  -16.7084 C   0  0  0  0  0  0  0  0  0  0  0  0
   39.7351   11.8658  -16.4677 N   0  0  0  0  0  0  0  0  0  0  0  0
   40.4236   11.4008  -17.0816 H   0  0  0  0  0  0  0  0  0  0  0  0
   45.9437   13.6715  -14.8895 Cl  0  0  0  0  0  0  0  0  0  0  0  0
   44.2196   13.4153  -15.0130 C   0  0  0  0  0  0  0  0  0  0  0  0
   43.3848   13.9155  -14.0411 C   0  0  0  0  0  0  0  0  0  0  0  0
   42.0072   13.6949  -14.1662 C   0  0  0  0  0  0  0  0  0  0  0  0
   41.4805   13.0013  -15.2207 C   0  0  0  0  0  0  0  0  0  0  0  0
   42.3359   12.5100  -16.1815 C   0  0  0  0  0  0  0  0  0  0  0  0
   43.7195   12.7122  -16.0879 C   0  0  0  0  0  0  0  0  0  0  0  0
   44.8190   12.0936  -17.3013 Cl  0  0  0  0  0  0  0  0  0  0  0  0
   37.1368   13.7308  -14.2565 C   0  0  0  0  0  0  0  0  0  0  0  0
   36.6436   14.8031  -13.5695 C   0  0  0  0  0  0  0  0  0  0  0  0
   36.1139   14.5763  -12.3621 C   0  0  0  0  0  0  0  0  0  0  0  0
   36.1097   13.2811  -11.9121 C   0  0  0  0  0  0  0  0  0  0  0  0
   36.8455   12.4295  -13.1922 S   0  0  0  0  0  0  0  0  0  0  0  0
 11 12  1  0  0  0
 12 13  2  0  0  0
 13 14  1  0  0  0
 14 15  2  0  0  0
 15  1  1  0  0  0
  1  2  1  0  0  0
  2  3  1  0  0  0
  3 19  1  0  0  0
 19 20  2  0  0  0
 20 21  1  0  0  0
 21 22  2  0  0  0
 22 23  1  0  0  0
  3  4  1  0  0  0
  4  5  1  0  0  0
  5  6  2  0  0  0
  6  7  1  0  0  0
  7  8  2  0  0  0
  8  9  1  0  0  0
 15 16  1  0  0  0
 16 17  2  0  0  0
 17 18  1  0  0  0
 17 12  1  0  0  0
  9  1  1  0  0  0
 23 19  1  0  0  0
  8  4  1  0  0  0
  9 10  1  0  0  0
M  END
> <minimizedAffinity>
-6.50616

> <CNNscore>
0.2393036634

> <CNNaffinity>
6.2920594215

> <CNN_VS>
1.5057128668

> <CNNaffinity_variance>
0.1733106226

$$$$
[H]c1nc2n(n1)C([H])(c1sc([H])c([H])c1[H])C([H])([H])C([H])(c1c([H])c([H])c(Cl)c(Cl)c1[H])N2[H]


 23 26  0  0  0  0  0  0  0  0999 V2000
   40.1262   13.6051   -6.9626 C   0  0  0  0  0  0  0  0  0  0  0  0
   39.8449   14.7364   -6.0360 C   0  0  0  0  0  0  0  0  0  0  0  0
   38.5867   15.4469   -6.3770 C   0  0  0  0  0  0  0  0  0  0  0  0
   38.3277   15.5740   -7.7761 N   0  0  0  0  0  0  0  0  0  0  0  0
   37.3920   16.2456   -8.4152 N   0  0  0  0  0  0  0  0  0  0  0  0
   37.5154   16.0919   -9.7395 C   0  0  0  0  0  0  0  0  0  0  0  0
   38.5796   15.2869   -9.9029 N   0  0  0  0  0  0  0  0  0  0  0  0
   39.1014   14.9508   -8.7141 C   0  0  0  0  0  0  0  0  0  0  0  0
   40.1998   14.1453   -8.3059 N   0  0  0  0  0  0  0  0  0  0  0  0
   40.9680   13.9982   -8.9807 H   0  0  0  0  0  0  0  0  0  0  0  0
   44.9317   10.3794   -5.3972 Cl  0  0  0  0  0  0  0  0  0  0  0  0
   43.5411   11.3276   -5.8670 C   0  0  0  0  0  0  0  0  0  0  0  0
   43.6422   12.2133   -6.9143 C   0  0  0  0  0  0  0  0  0  0  0  0
   42.5112   12.9598   -7.2687 C   0  0  0  0  0  0  0  0  0  0  0  0
   41.3231   12.8289   -6.6042 C   0  0  0  0  0  0  0  0  0  0  0  0
   41.2458   11.9358   -5.5590 C   0  0  0  0  0  0  0  0  0  0  0  0
   42.3576   11.1727   -5.1776 C   0  0  0  0  0  0  0  0  0  0  0  0
   42.2744   10.0336   -3.8511 Cl  0  0  0  0  0  0  0  0  0  0  0  0
   37.3783   14.8249   -5.7183 C   0  0  0  0  0  0  0  0  0  0  0  0
   36.7657   15.2197   -4.5633 C   0  0  0  0  0  0  0  0  0  0  0  0
   35.7010   14.5199   -4.1550 C   0  0  0  0  0  0  0  0  0  0  0  0
   35.3111   13.4600   -4.9327 C   0  0  0  0  0  0  0  0  0  0  0  0
   36.4460   13.4811   -6.2042 S   0  0  0  0  0  0  0  0  0  0  0  0
 11 12  1  0  0  0
 12 13  2  0  0  0
 13 14  1  0  0  0
 14 15  2  0  0  0
 15  1  1  0  0  0
  1  2  1  0  0  0
  2  3  1  0  0  0
  3 19  1  0  0  0
 19 20  2  0  0  0
 20 21  1  0  0  0
 21 22  2  0  0  0
 22 23  1  0  0  0
  3  4  1  0  0  0
  4  5  1  0  0  0
  5  6  2  0  0  0
  6  7  1  0  0  0
  7  8  2  0  0  0
  8  9  1  0  0  0
 15 16  1  0  0  0
 16 17  2  0  0  0
 17 18  1  0  0  0
 17 12  1  0  0  0
  9  1  1  0  0  0
 23 19  1  0  0  0
  8  4  1  0  0  0
  9 10  1  0  0  0
M  END
> <minimizedAffinity>
-5.26764

> <CNNscore>
0.2302759290

> <CNNaffinity>
4.7324662209

> <CNN_VS>
1.0897730589

> <CNNaffinity_variance>
0.8008057475

$$$$
[H]c1nc2n(n1)C([H])(c1sc([H])c([H])c1[H])C([H])([H])C([H])(c1c([H])c([H])c(Cl)c(Cl)c1[H])N2[H]


 23 26  0  0  0  0  0  0  0  0999 V2000
   36.6720   14.0190  -13.3634 C   0  0  0  0  0  0  0  0  0  0  0  0
   36.8681   13.4128  -12.0173 C   0  0  0  0  0  0  0  0  0  0  0  0
   37.6241   14.3034  -11.1011 C   0  0  0  0  0  0  0  0  0  0  0  0
   38.6722   15.0522  -11.7188 N   0  0  0  0  0  0  0  0  0  0  0  0
   39.6022   15.8197  -11.1886 N   0  0  0  0  0  0  0  0  0  0  0  0
   40.3928   16.3355  -12.1381 C   0  0  0  0  0  0  0  0  0  0  0  0
   39.9122   15.8526  -13.2971 N   0  0  0  0  0  0  0  0  0  0  0  0
   38.8539   15.0600  -13.0730 C   0  0  0  0  0  0  0  0  0  0  0  0
   37.9831   14.3093  -13.9097 N   0  0  0  0  0  0  0  0  0  0  0  0
   38.3333   14.0231  -14.8383 H   0  0  0  0  0  0  0  0  0  0  0  0
   33.4634   10.6349  -17.1318 Cl  0  0  0  0  0  0  0  0  0  0  0  0
   34.3830   11.6256  -16.0243 C   0  0  0  0  0  0  0  0  0  0  0  0
   33.7368   12.2967  -15.0126 C   0  0  0  0  0  0  0  0  0  0  0  0
   34.4995   13.0833  -14.1399 C   0  0  0  0  0  0  0  0  0  0  0  0
   35.8561   13.1972  -14.2703 C   0  0  0  0  0  0  0  0  0  0  0  0
   36.4812   12.5159  -15.2907 C   0  0  0  0  0  0  0  0  0  0  0  0
   35.7490   11.7199  -16.1820 C   0  0  0  0  0  0  0  0  0  0  0  0
   36.5297   10.8483  -17.4839 Cl  0  0  0  0  0  0  0  0  0  0  0  0
   36.7238   15.2599  -10.3559 C   0  0  0  0  0  0  0  0  0  0  0  0
   35.3743   15.4133  -10.4983 C   0  0  0  0  0  0  0  0  0  0  0  0
   34.7693   16.3283   -9.7324 C   0  0  0  0  0  0  0  0  0  0  0  0
   35.5571   17.0395   -8.8641 C   0  0  0  0  0  0  0  0  0  0  0  0
   37.1122   16.4033   -9.1505 S   0  0  0  0  0  0  0  0  0  0  0  0
 11 12  1  0  0  0
 12 13  2  0  0  0
 13 14  1  0  0  0
 14 15  2  0  0  0
 15  1  1  0  0  0
  1  2  1  0  0  0
  2  3  1  0  0  0
  3 19  1  0  0  0
 19 20  2  0  0  0
 20 21  1  0  0  0
 21 22  2  0  0  0
 22 23  1  0  0  0
  3  4  1  0  0  0
  4  5  1  0  0  0
  5  6  2  0  0  0
  6  7  1  0  0  0
  7  8  2  0  0  0
  8  9  1  0  0  0
 15 16  1  0  0  0
 16 17  2  0  0  0
 17 18  1  0  0  0
 17 12  1  0  0  0
  9  1  1  0  0  0
 23 19  1  0  0  0
  8  4  1  0  0  0
  9 10  1  0  0  0
M  END
> <minimizedAffinity>
-7.19145

> <CNNscore>
0.2236097157

> <CNNaffinity>
5.9415512085

> <CNN_VS>
1.3285886049

> <CNNaffinity_variance>
0.3060030043

$$$$
[H]c1nc2n(n1)C([H])(c1sc([H])c([H])c1[H])C([H])([H])C([H])(c1c([H])c([H])c(Cl)c(Cl)c1[H])N2[H]


 23 26  0  0  0  0  0  0  0  0999 V2000
   36.8651   13.5788  -13.8377 C   0  0  0  0  0  0  0  0  0  0  0  0
   37.1946   15.0022  -13.5493 C   0  0  0  0  0  0  0  0  0  0  0  0
   36.3686   15.5620  -12.4500 C   0  0  0  0  0  0  0  0  0  0  0  0
   35.0128   15.1125  -12.4272 N   0  0  0  0  0  0  0  0  0  0  0  0
   33.9954   15.5006  -11.6860 N   0  0  0  0  0  0  0  0  0  0  0  0
   32.8905   14.8101  -11.9943 C   0  0  0  0  0  0  0  0  0  0  0  0
   33.2645   13.9647  -12.9704 N   0  0  0  0  0  0  0  0  0  0  0  0
   34.5641   14.1260  -13.2593 C   0  0  0  0  0  0  0  0  0  0  0  0
   35.4580   13.5142  -14.1804 N   0  0  0  0  0  0  0  0  0  0  0  0
   35.0554   13.0697  -15.0215 H   0  0  0  0  0  0  0  0  0  0  0  0
   40.2420   11.0260  -18.0836 Cl  0  0  0  0  0  0  0  0  0  0  0  0
   39.2729   11.7786  -16.8394 C   0  0  0  0  0  0  0  0  0  0  0  0
   39.8684   12.6145  -15.9239 C   0  0  0  0  0  0  0  0  0  0  0  0
   39.0667   13.2038  -14.9379 C   0  0  0  0  0  0  0  0  0  0  0  0
   37.7213   12.9689  -14.8665 C   0  0  0  0  0  0  0  0  0  0  0  0
   37.1474   12.1284  -15.7940 C   0  0  0  0  0  0  0  0  0  0  0  0
   37.9194   11.5220  -16.7941 C   0  0  0  0  0  0  0  0  0  0  0  0
   37.2039   10.4514  -17.9797 Cl  0  0  0  0  0  0  0  0  0  0  0  0
   36.9794   15.3185  -11.0904 C   0  0  0  0  0  0  0  0  0  0  0  0
   38.2922   15.4410  -10.7347 C   0  0  0  0  0  0  0  0  0  0  0  0
   38.6191   15.1725   -9.4655 C   0  0  0  0  0  0  0  0  0  0  0  0
   37.6051   14.7951   -8.6230 C   0  0  0  0  0  0  0  0  0  0  0  0
   36.2343   14.8296   -9.6353 S   0  0  0  0  0  0  0  0  0  0  0  0
 11 12  1  0  0  0
 12 13  2  0  0  0
 13 14  1  0  0  0
 14 15  2  0  0  0
 15  1  1  0  0  0
  1  2  1  0  0  0
  2  3  1  0  0  0
  3 19  1  0  0  0
 19 20  2  0  0  0
 20 21  1  0  0  0
 21 22  2  0  0  0
 22 23  1  0  0  0
  3  4  1  0  0  0
  4  5  1  0  0  0
  5  6  2  0  0  0
  6  7  1  0  0  0
  7  8  2  0  0  0
  8  9  1  0  0  0
 15 16  1  0  0  0
 16 17  2  0  0  0
 17 18  1  0  0  0
 17 12  1  0  0  0
  9  1  1  0  0  0
 23 19  1  0  0  0
  8  4  1  0  0  0
  9 10  1  0  0  0
M  END
> <minimizedAffinity>
-8.03550

> <CNNscore>
0.2203980386

> <CNNaffinity>
6.1337919235

> <CNN_VS>
1.3518756628

> <CNNaffinity_variance>
0.4171361923

$$$$
[H]c1nc2n(n1)C([H])(c1sc([H])c([H])c1[H])C([H])([H])C([H])(c1c([H])c([H])c(Cl)c(Cl)c1[H])N2[H]


 23 26  0  0  0  0  0  0  0  0999 V2000
   35.4946   13.5059  -13.6074 C   0  0  0  0  0  0  0  0  0  0  0  0
   36.0613   14.8761  -13.4694 C   0  0  0  0  0  0  0  0  0  0  0  0
   35.5525   15.5795  -12.2651 C   0  0  0  0  0  0  0  0  0  0  0  0
   34.1809   15.3276  -11.9555 N   0  0  0  0  0  0  0  0  0  0  0  0
   33.3922   15.8775  -11.0552 N   0  0  0  0  0  0  0  0  0  0  0  0
   32.1662   15.3417  -11.1048 C   0  0  0  0  0  0  0  0  0  0  0  0
   32.2226   14.4234  -12.0850 N   0  0  0  0  0  0  0  0  0  0  0  0
   33.4484   14.3905  -12.6280 C   0  0  0  0  0  0  0  0  0  0  0  0
   34.0516   13.6312  -13.6679 N   0  0  0  0  0  0  0  0  0  0  0  0
   33.4342   13.2236  -14.3889 H   0  0  0  0  0  0  0  0  0  0  0  0
   37.8479   10.4716  -18.2121 Cl  0  0  0  0  0  0  0  0  0  0  0  0
   37.1450   11.3501  -16.8749 C   0  0  0  0  0  0  0  0  0  0  0  0
   35.7840   11.3196  -16.6795 C   0  0  0  0  0  0  0  0  0  0  0  0
   35.2486   12.0331  -15.5995 C   0  0  0  0  0  0  0  0  0  0  0  0
   36.0400   12.7507  -14.7456 C   0  0  0  0  0  0  0  0  0  0  0  0
   37.4000   12.7664  -14.9613 C   0  0  0  0  0  0  0  0  0  0  0  0
   37.9694   12.0639  -16.0318 C   0  0  0  0  0  0  0  0  0  0  0  0
   39.6961   12.0746  -16.3185 Cl  0  0  0  0  0  0  0  0  0  0  0  0
   36.3837   15.2923  -11.0372 C   0  0  0  0  0  0  0  0  0  0  0  0
   35.9495   14.8229   -9.8305 C   0  0  0  0  0  0  0  0  0  0  0  0
   36.8631   14.6397   -8.8705 C   0  0  0  0  0  0  0  0  0  0  0  0
   38.1653   14.9394   -9.1785 C   0  0  0  0  0  0  0  0  0  0  0  0
   38.0640   15.4655  -10.7965 S   0  0  0  0  0  0  0  0  0  0  0  0
 11 12  1  0  0  0
 12 13  2  0  0  0
 13 14  1  0  0  0
 14 15  2  0  0  0
 15  1  1  0  0  0
  1  2  1  0  0  0
  2  3  1  0  0  0
  3 19  1  0  0  0
 19 20  2  0  0  0
 20 21  1  0  0  0
 21 22  2  0  0  0
 22 23  1  0  0  0
  3  4  1  0  0  0
  4  5  1  0  0  0
  5  6  2  0  0  0
  6  7  1  0  0  0
  7  8  2  0  0  0
  8  9  1  0  0  0
 15 16  1  0  0  0
 16 17  2  0  0  0
 17 18  1  0  0  0
 17 12  1  0  0  0
  9  1  1  0  0  0
 23 19  1  0  0  0
  8  4  1  0  0  0
  9 10  1  0  0  0
M  END
> <minimizedAffinity>
-7.47632

> <CNNscore>
0.2197696120

> <CNNaffinity>
6.1297812462

> <CNN_VS>
1.3471395969

> <CNNaffinity_variance>
0.3040616214

$$$$
[H]c1nc2n(n1)C([H])(c1sc([H])c([H])c1[H])C([H])([H])C([H])(c1c([H])c([H])c(Cl)c(Cl)c1[H])N2[H]


 23 26  0  0  0  0  0  0  0  0999 V2000
   38.2255   13.7423  -14.1365 C   0  0  0  0  0  0  0  0  0  0  0  0
   37.6043   12.8355  -13.1317 C   0  0  0  0  0  0  0  0  0  0  0  0
   37.0280   13.5764  -11.9816 C   0  0  0  0  0  0  0  0  0  0  0  0
   37.7800   14.7164  -11.5625 N   0  0  0  0  0  0  0  0  0  0  0  0
   37.6295   15.5030  -10.5167 N   0  0  0  0  0  0  0  0  0  0  0  0
   38.5646   16.4613  -10.5028 C   0  0  0  0  0  0  0  0  0  0  0  0
   39.3141   16.2378  -11.5962 N   0  0  0  0  0  0  0  0  0  0  0  0
   38.8572   15.1716  -12.2692 C   0  0  0  0  0  0  0  0  0  0  0  0
   39.2558   14.5065  -13.4611 N   0  0  0  0  0  0  0  0  0  0  0  0
   40.2376   14.6080  -13.7655 H   0  0  0  0  0  0  0  0  0  0  0  0
   40.1750   10.8381  -19.0061 Cl  0  0  0  0  0  0  0  0  0  0  0  0
   39.6232   11.6934  -17.5857 C   0  0  0  0  0  0  0  0  0  0  0  0
   40.4634   12.5811  -16.9552 C   0  0  0  0  0  0  0  0  0  0  0  0
   39.9941   13.2523  -15.8188 C   0  0  0  0  0  0  0  0  0  0  0  0
   38.7340   13.0466  -15.3285 C   0  0  0  0  0  0  0  0  0  0  0  0
   37.9107   12.1531  -15.9765 C   0  0  0  0  0  0  0  0  0  0  0  0
   38.3477   11.4643  -17.1161 C   0  0  0  0  0  0  0  0  0  0  0  0
   37.3126   10.3256  -17.9502 Cl  0  0  0  0  0  0  0  0  0  0  0  0
   35.6016   14.0056  -12.2304 C   0  0  0  0  0  0  0  0  0  0  0  0
   34.6892   13.4182  -13.0596 C   0  0  0  0  0  0  0  0  0  0  0  0
   33.4717   13.9680  -13.1319 C   0  0  0  0  0  0  0  0  0  0  0  0
   33.2393   15.0804  -12.3645 C   0  0  0  0  0  0  0  0  0  0  0  0
   34.7295   15.3158  -11.5715 S   0  0  0  0  0  0  0  0  0  0  0  0
 11 12  1  0  0  0
 12 13  2  0  0  0
 13 14  1  0  0  0
 14 15  2  0  0  0
 15  1  1  0  0  0
  1  2  1  0  0  0
  2  3  1  0  0  0
  3 19  1  0  0  0
 19 20  2  0  0  0
 20 21  1  0  0  0
 21 22  2  0  0  0
 22 23  1  0  0  0
  3  4  1  0  0  0
  4  5  1  0  0  0
  5  6  2  0  0  0
  6  7  1  0  0  0
  7  8  2  0  0  0
  8  9  1  0  0  0
 15 16  1  0  0  0
 16 17  2  0  0  0
 17 18  1  0  0  0
 17 12  1  0  0  0
  9  1  1  0  0  0
 23 19  1  0  0  0
  8  4  1  0  0  0
  9 10  1  0  0  0
M  END
> <minimizedAffinity>
-8.50841

> <CNNscore>
0.1833209246

> <CNNaffinity>
6.0873026848

> <CNN_VS>
1.1159299612

> <CNNaffinity_variance>
0.2221327722

$$$$
[H]c1nc([H])c2c(c1[H])c1c([H])nc(N([H])c3nnc(N([H])C([H])([H])C4([H])C([H])([H])N([H])C4([H])[H])c([H])c3[H])nc1n2C1([H])C([H])([H])C([H])([H])C([H])([H])C1([H])[H]


 34 39  0  0  0  0  0  0  0  0999 V2000
   33.8818   10.6714  -16.6169 C   0  0  0  0  0  0  0  0  0  0  0  0
   35.1492   10.6183  -17.1688 C   0  0  0  0  0  0  0  0  0  0  0  0
   36.1810   11.3150  -16.5780 C   0  0  0  0  0  0  0  0  0  0  0  0
   37.5009   11.4300  -16.9135 C   0  0  0  0  0  0  0  0  0  0  0  0
   38.3052   10.9217  -17.9309 C   0  0  0  0  0  0  0  0  0  0  0  0
   39.6058   11.2515  -17.9572 N   0  0  0  0  0  0  0  0  0  0  0  0
   40.1917   12.0568  -17.0457 C   0  0  0  0  0  0  0  0  0  0  0  0
   39.4387   12.5597  -16.0549 N   0  0  0  0  0  0  0  0  0  0  0  0
   38.1217   12.2488  -15.9960 C   0  0  0  0  0  0  0  0  0  0  0  0
   37.1610   12.6267  -15.1030 N   0  0  0  0  0  0  0  0  0  0  0  0
   35.9926   12.0719  -15.4430 C   0  0  0  0  0  0  0  0  0  0  0  0
   34.7162   12.1024  -14.9192 C   0  0  0  0  0  0  0  0  0  0  0  0
   33.7293   11.4226  -15.5032 N   0  0  0  0  0  0  0  0  0  0  0  0
   37.3584   13.4913  -13.9618 C   0  0  0  0  0  0  0  0  0  0  0  0
   36.9668   12.8439  -12.6585 C   0  0  0  0  0  0  0  0  0  0  0  0
   36.3655   13.9209  -11.8008 C   0  0  0  0  0  0  0  0  0  0  0  0
   36.1419   15.1256  -12.6594 C   0  0  0  0  0  0  0  0  0  0  0  0
   36.6138   14.7852  -14.0534 C   0  0  0  0  0  0  0  0  0  0  0  0
   41.5945   12.3593  -17.1488 N   0  0  0  0  0  0  0  0  0  0  0  0
   42.0708   12.2086  -18.0641 H   0  0  0  0  0  0  0  0  0  0  0  0
   42.3331   12.8514  -16.0472 C   0  0  0  0  0  0  0  0  0  0  0  0
   43.7039   12.7714  -15.9571 C   0  0  0  0  0  0  0  0  0  0  0  0
   44.3977   13.2643  -14.8620 C   0  0  0  0  0  0  0  0  0  0  0  0
   43.7003   13.8533  -13.8288 C   0  0  0  0  0  0  0  0  0  0  0  0
   42.3522   13.9095  -13.9620 N   0  0  0  0  0  0  0  0  0  0  0  0
   41.7065   13.4344  -15.0134 N   0  0  0  0  0  0  0  0  0  0  0  0
   44.3470   14.3796  -12.6767 N   0  0  0  0  0  0  0  0  0  0  0  0
   44.0611   14.0646  -11.7394 H   0  0  0  0  0  0  0  0  0  0  0  0
   45.4041   15.3549  -12.8201 C   0  0  0  0  0  0  0  0  0  0  0  0
   44.9971   16.4916  -13.7324 C   0  0  0  0  0  0  0  0  0  0  0  0
   44.8679   17.7994  -12.9836 C   0  0  0  0  0  0  0  0  0  0  0  0
   45.5687   18.4779  -14.0716 N   0  0  0  0  0  0  0  0  0  0  0  0
   46.1489   17.1805  -14.4200 C   0  0  0  0  0  0  0  0  0  0  0  0
   46.3301   19.0978  -13.6916 H   0  0  0  0  0  0  0  0  0  0  0  0
  1  2  2  0  0  0
  2  3  1  0  0  0
  3  4  1  0  0  0
  4  5  2  0  0  0
  5  6  1  0  0  0
  6  7  2  0  0  0
  7 19  1  0  0  0
 19 21  1  0  0  0
 21 22  2  0  0  0
 22 23  1  0  0  0
 23 24  2  0  0  0
 24 27  1  0  0  0
 27 29  1  0  0  0
 29 30  1  0  0  0
 30 31  1  0  0  0
 31 32  1  0  0  0
 32 33  1  0  0  0
 24 25  1  0  0  0
 25 26  2  0  0  0
  7  8  1  0  0  0
  8  9  2  0  0  0
  9 10  1  0  0  0
 10 14  1  0  0  0
 14 15  1  0  0  0
 15 16  1  0  0  0
 16 17  1  0  0  0
 17 18  1  0  0  0
 10 11  1  0  0  0
 11 12  1  0  0  0
 12 13  2  0  0  0
 13  1  1  0  0  0
 11  3  2  0  0  0
  9  4  1  0  0  0
 18 14  1  0  0  0
 26 21  1  0  0  0
 33 30  1  0  0  0
 19 20  1  0  0  0
 27 28  1  0  0  0
 32 34  1  0  0  0
M  END
> <minimizedAffinity>
-9.51431

> <CNNscore>
0.9101164937

> <CNNaffinity>
7.7974600792

> <CNN_VS>
7.0965971947

> <CNNaffinity_variance>
0.3484071195

$$$$
[H]c1nc([H])c2c(c1[H])c1c([H])nc(N([H])c3nnc(N([H])C([H])([H])C4([H])C([H])([H])N([H])C4([H])[H])c([H])c3[H])nc1n2C1([H])C([H])([H])C([H])([H])C([H])([H])C1([H])[H]


 34 39  0  0  0  0  0  0  0  0999 V2000
   33.6775   10.8334  -16.5326 C   0  0  0  0  0  0  0  0  0  0  0  0
   34.9405   10.7653  -17.0927 C   0  0  0  0  0  0  0  0  0  0  0  0
   35.9938   11.4112  -16.4823 C   0  0  0  0  0  0  0  0  0  0  0  0
   37.3150   11.5017  -16.8203 C   0  0  0  0  0  0  0  0  0  0  0  0
   38.1006   11.0087  -17.8596 C   0  0  0  0  0  0  0  0  0  0  0  0
   39.4098   11.3030  -17.8807 N   0  0  0  0  0  0  0  0  0  0  0  0
   40.0216   12.0581  -16.9436 C   0  0  0  0  0  0  0  0  0  0  0  0
   39.2871   12.5454  -15.9314 N   0  0  0  0  0  0  0  0  0  0  0  0
   37.9622   12.2691  -15.8769 C   0  0  0  0  0  0  0  0  0  0  0  0
   37.0161   12.6408  -14.9659 N   0  0  0  0  0  0  0  0  0  0  0  0
   35.8313   12.1313  -15.3197 C   0  0  0  0  0  0  0  0  0  0  0  0
   34.5585   12.1781  -14.7886 C   0  0  0  0  0  0  0  0  0  0  0  0
   33.5506   11.5476  -15.3917 N   0  0  0  0  0  0  0  0  0  0  0  0
   37.2423   13.4575  -13.7951 C   0  0  0  0  0  0  0  0  0  0  0  0
   36.6700   12.8551  -12.5380 C   0  0  0  0  0  0  0  0  0  0  0  0
   36.1571   13.9943  -11.7036 C   0  0  0  0  0  0  0  0  0  0  0  0
   36.1635   15.2278  -12.5503 C   0  0  0  0  0  0  0  0  0  0  0  0
   36.6885   14.8419  -13.9132 C   0  0  0  0  0  0  0  0  0  0  0  0
   41.4319   12.3252  -17.0429 N   0  0  0  0  0  0  0  0  0  0  0  0
   41.9206   12.0969  -17.9353 H   0  0  0  0  0  0  0  0  0  0  0  0
   42.1614   12.8848  -15.9679 C   0  0  0  0  0  0  0  0  0  0  0  0
   43.5338   12.9840  -15.9533 C   0  0  0  0  0  0  0  0  0  0  0  0
   44.2185   13.5385  -14.8822 C   0  0  0  0  0  0  0  0  0  0  0  0
   43.5101   14.0066  -13.7959 C   0  0  0  0  0  0  0  0  0  0  0  0
   42.1608   13.8876  -13.8554 N   0  0  0  0  0  0  0  0  0  0  0  0
   41.5238   13.3560  -14.8849 N   0  0  0  0  0  0  0  0  0  0  0  0
   44.1470   14.5867  -12.6644 N   0  0  0  0  0  0  0  0  0  0  0  0
   45.0503   15.0675  -12.7750 H   0  0  0  0  0  0  0  0  0  0  0  0
   43.5280   14.5022  -11.3610 C   0  0  0  0  0  0  0  0  0  0  0  0
   42.9582   15.8344  -10.9244 C   0  0  0  0  0  0  0  0  0  0  0  0
   41.4470   15.8119  -10.8673 C   0  0  0  0  0  0  0  0  0  0  0  0
   41.4962   16.5253   -9.5931 N   0  0  0  0  0  0  0  0  0  0  0  0
   42.8551   16.0073   -9.4300 C   0  0  0  0  0  0  0  0  0  0  0  0
   40.8702   16.0615   -8.8848 H   0  0  0  0  0  0  0  0  0  0  0  0
  1  2  2  0  0  0
  2  3  1  0  0  0
  3  4  1  0  0  0
  4  5  2  0  0  0
  5  6  1  0  0  0
  6  7  2  0  0  0
  7 19  1  0  0  0
 19 21  1  0  0  0
 21 22  2  0  0  0
 22 23  1  0  0  0
 23 24  2  0  0  0
 24 27  1  0  0  0
 27 29  1  0  0  0
 29 30  1  0  0  0
 30 31  1  0  0  0
 31 32  1  0  0  0
 32 33  1  0  0  0
 24 25  1  0  0  0
 25 26  2  0  0  0
  7  8  1  0  0  0
  8  9  2  0  0  0
  9 10  1  0  0  0
 10 14  1  0  0  0
 14 15  1  0  0  0
 15 16  1  0  0  0
 16 17  1  0  0  0
 17 18  1  0  0  0
 10 11  1  0  0  0
 11 12  1  0  0  0
 12 13  2  0  0  0
 13  1  1  0  0  0
 11  3  2  0  0  0
  9  4  1  0  0  0
 18 14  1  0  0  0
 26 21  1  0  0  0
 33 30  1  0  0  0
 19 20  1  0  0  0
 27 28  1  0  0  0
 32 34  1  0  0  0
M  END
> <minimizedAffinity>
-9.27344

> <CNNscore>
0.8717628121

> <CNNaffinity>
7.7147722244

> <CNN_VS>
6.7254514694

> <CNNaffinity_variance>
0.1917453706

$$$$
[H]c1nc([H])c2c(c1[H])c1c([H])nc(N([H])c3nnc(N([H])C([H])([H])C4([H])C([H])([H])N([H])C4([H])[H])c([H])c3[H])nc1n2C1([H])C([H])([H])C([H])([H])C([H])([H])C1([H])[H]


 34 39  0  0  0  0  0  0  0  0999 V2000
   34.3226   10.7552  -16.7552 C   0  0  0  0  0  0  0  0  0  0  0  0
   35.6154   10.7076  -17.2452 C   0  0  0  0  0  0  0  0  0  0  0  0
   36.6158   11.4031  -16.6013 C   0  0  0  0  0  0  0  0  0  0  0  0
   37.9501   11.5225  -16.8717 C   0  0  0  0  0  0  0  0  0  0  0  0
   38.8040   11.0214  -17.8516 C   0  0  0  0  0  0  0  0  0  0  0  0
   40.1036   11.3538  -17.8130 N   0  0  0  0  0  0  0  0  0  0  0  0
   40.6427   12.1553  -16.8698 C   0  0  0  0  0  0  0  0  0  0  0  0
   39.8414   12.6514  -15.9141 N   0  0  0  0  0  0  0  0  0  0  0  0
   38.5239   12.3375  -15.9208 C   0  0  0  0  0  0  0  0  0  0  0  0
   37.5201   12.7087  -15.0735 N   0  0  0  0  0  0  0  0  0  0  0  0
   36.3709   12.1534  -15.4728 C   0  0  0  0  0  0  0  0  0  0  0  0
   35.0705   12.1786  -15.0114 C   0  0  0  0  0  0  0  0  0  0  0  0
   34.1146   11.5001  -15.6462 N   0  0  0  0  0  0  0  0  0  0  0  0
   37.6600   13.5674  -13.9194 C   0  0  0  0  0  0  0  0  0  0  0  0
   37.1460   12.9367  -12.6510 C   0  0  0  0  0  0  0  0  0  0  0  0
   36.5196   14.0360  -11.8409 C   0  0  0  0  0  0  0  0  0  0  0  0
   36.4063   15.2466  -12.7128 C   0  0  0  0  0  0  0  0  0  0  0  0
   36.9718   14.8872  -14.0667 C   0  0  0  0  0  0  0  0  0  0  0  0
   42.0482   12.4612  -16.9031 N   0  0  0  0  0  0  0  0  0  0  0  0
   42.6107   12.1318  -17.7170 H   0  0  0  0  0  0  0  0  0  0  0  0
   42.6763   13.1911  -15.8668 C   0  0  0  0  0  0  0  0  0  0  0  0
   42.2018   13.2360  -14.5759 C   0  0  0  0  0  0  0  0  0  0  0  0
   42.8424   13.9621  -13.5831 C   0  0  0  0  0  0  0  0  0  0  0  0
   43.9894   14.6626  -13.8907 C   0  0  0  0  0  0  0  0  0  0  0  0
   44.4188   14.5886  -15.1746 N   0  0  0  0  0  0  0  0  0  0  0  0
   43.7955   13.8912  -16.1091 N   0  0  0  0  0  0  0  0  0  0  0  0
   44.6969   15.4275  -12.9228 N   0  0  0  0  0  0  0  0  0  0  0  0
   44.5777   15.2233  -11.9210 H   0  0  0  0  0  0  0  0  0  0  0  0
   45.5822   16.4898  -13.3435 C   0  0  0  0  0  0  0  0  0  0  0  0
   45.3025   17.7785  -12.6014 C   0  0  0  0  0  0  0  0  0  0  0  0
   46.4520   18.7553  -12.7108 C   0  0  0  0  0  0  0  0  0  0  0  0
   45.4967   19.8343  -12.9524 N   0  0  0  0  0  0  0  0  0  0  0  0
   44.5549   18.8109  -13.4072 C   0  0  0  0  0  0  0  0  0  0  0  0
   45.7935   20.4128  -13.7805 H   0  0  0  0  0  0  0  0  0  0  0  0
  1  2  2  0  0  0
  2  3  1  0  0  0
  3  4  1  0  0  0
  4  5  2  0  0  0
  5  6  1  0  0  0
  6  7  2  0  0  0
  7 19  1  0  0  0
 19 21  1  0  0  0
 21 22  2  0  0  0
 22 23  1  0  0  0
 23 24  2  0  0  0
 24 27  1  0  0  0
 27 29  1  0  0  0
 29 30  1  0  0  0
 30 31  1  0  0  0
 31 32  1  0  0  0
 32 33  1  0  0  0
 24 25  1  0  0  0
 25 26  2  0  0  0
  7  8  1  0  0  0
  8  9  2  0  0  0
  9 10  1  0  0  0
 10 14  1  0  0  0
 14 15  1  0  0  0
 15 16  1  0  0  0
 16 17  1  0  0  0
 17 18  1  0  0  0
 10 11  1  0  0  0
 11 12  1  0  0  0
 12 13  2  0  0  0
 13  1  1  0  0  0
 11  3  2  0  0  0
  9  4  1  0  0  0
 18 14  1  0  0  0
 26 21  1  0  0  0
 33 30  1  0  0  0
 19 20  1  0  0  0
 27 28  1  0  0  0
 32 34  1  0  0  0
M  END
> <minimizedAffinity>
-9.71998

> <CNNscore>
0.8609315157

> <CNNaffinity>
7.6695084572

> <CNN_VS>
6.6029214859

> <CNNaffinity_variance>
0.2179687321

$$$$
[H]c1nc([H])c2c(c1[H])c1c([H])nc(N([H])c3nnc(N([H])C([H])([H])C4([H])C([H])([H])N([H])C4([H])[H])c([H])c3[H])nc1n2C1([H])C([H])([H])C([H])([H])C([H])([H])C1([H])[H]


 34 39  0  0  0  0  0  0  0  0999 V2000
   34.5702   10.5876  -16.8101 C   0  0  0  0  0  0  0  0  0  0  0  0
   35.8765   10.6450  -17.2616 C   0  0  0  0  0  0  0  0  0  0  0  0
   36.7947   11.4291  -16.5972 C   0  0  0  0  0  0  0  0  0  0  0  0
   38.1217   11.6586  -16.8300 C   0  0  0  0  0  0  0  0  0  0  0  0
   39.0440   11.2223  -17.7783 C   0  0  0  0  0  0  0  0  0  0  0  0
   40.3092   11.6641  -17.7058 N   0  0  0  0  0  0  0  0  0  0  0  0
   40.7499   12.5176  -16.7571 C   0  0  0  0  0  0  0  0  0  0  0  0
   39.8811   12.9531  -15.8313 N   0  0  0  0  0  0  0  0  0  0  0  0
   38.5956   12.5286  -15.8727 C   0  0  0  0  0  0  0  0  0  0  0  0
   37.5389   12.8214  -15.0597 N   0  0  0  0  0  0  0  0  0  0  0  0
   36.4533   12.1668  -15.4856 C   0  0  0  0  0  0  0  0  0  0  0  0
   35.1421   12.0861  -15.0628 C   0  0  0  0  0  0  0  0  0  0  0  0
   34.2666   11.3228  -15.7169 N   0  0  0  0  0  0  0  0  0  0  0  0
   37.5709   13.7001  -13.9126 C   0  0  0  0  0  0  0  0  0  0  0  0
   37.1833   13.0087  -12.6310 C   0  0  0  0  0  0  0  0  0  0  0  0
   36.4148   14.0072  -11.8128 C   0  0  0  0  0  0  0  0  0  0  0  0
   36.1030   15.1804  -12.6874 C   0  0  0  0  0  0  0  0  0  0  0  0
   36.6889   14.9001  -14.0513 C   0  0  0  0  0  0  0  0  0  0  0  0
   42.1249   12.9412  -16.7530 N   0  0  0  0  0  0  0  0  0  0  0  0
   42.5879   13.1397  -17.6660 H   0  0  0  0  0  0  0  0  0  0  0  0
   42.8540   13.0925  -15.5502 C   0  0  0  0  0  0  0  0  0  0  0  0
   42.2708   13.4102  -14.3450 C   0  0  0  0  0  0  0  0  0  0  0  0
   43.0155   13.5513  -13.1836 C   0  0  0  0  0  0  0  0  0  0  0  0
   44.3814   13.3695  -13.2297 C   0  0  0  0  0  0  0  0  0  0  0  0
   44.9109   13.0579  -14.4383 N   0  0  0  0  0  0  0  0  0  0  0  0
   44.1859   12.9272  -15.5362 N   0  0  0  0  0  0  0  0  0  0  0  0
   45.2058   13.4985  -12.0780 N   0  0  0  0  0  0  0  0  0  0  0  0
   44.8501   13.9874  -11.2450 H   0  0  0  0  0  0  0  0  0  0  0  0
   46.5407   12.9442  -12.0758 C   0  0  0  0  0  0  0  0  0  0  0  0
   46.6846   11.8349  -11.0566 C   0  0  0  0  0  0  0  0  0  0  0  0
   45.4534   11.7012  -10.1885 C   0  0  0  0  0  0  0  0  0  0  0  0
   45.5264   10.2486  -10.3291 N   0  0  0  0  0  0  0  0  0  0  0  0
   46.2846   10.4712  -11.5608 C   0  0  0  0  0  0  0  0  0  0  0  0
   44.5833    9.8531  -10.5793 H   0  0  0  0  0  0  0  0  0  0  0  0
  1  2  2  0  0  0
  2  3  1  0  0  0
  3  4  1  0  0  0
  4  5  2  0  0  0
  5  6  1  0  0  0
  6  7  2  0  0  0
  7 19  1  0  0  0
 19 21  1  0  0  0
 21 22  2  0  0  0
 22 23  1  0  0  0
 23 24  2  0  0  0
 24 27  1  0  0  0
 27 29  1  0  0  0
 29 30  1  0  0  0
 30 31  1  0  0  0
 31 32  1  0  0  0
 32 33  1  0  0  0
 24 25  1  0  0  0
 25 26  2  0  0  0
  7  8  1  0  0  0
  8  9  2  0  0  0
  9 10  1  0  0  0
 10 14  1  0  0  0
 14 15  1  0  0  0
 15 16  1  0  0  0
 16 17  1  0  0  0
 17 18  1  0  0  0
 10 11  1  0  0  0
 11 12  1  0  0  0
 12 13  2  0  0  0
 13  1  1  0  0  0
 11  3  2  0  0  0
  9  4  1  0  0  0
 18 14  1  0  0  0
 26 21  1  0  0  0
 33 30  1  0  0  0
 19 20  1  0  0  0
 27 28  1  0  0  0
 32 34  1  0  0  0
M  END
> <minimizedAffinity>
-9.03656

> <CNNscore>
0.7476354241

> <CNNaffinity>
7.5593047142

> <CNN_VS>
5.6516041756

> <CNNaffinity_variance>
0.2492344677

$$$$
[H]c1nc([H])c2c(c1[H])c1c([H])nc(N([H])c3nnc(N([H])C([H])([H])C4([H])C([H])([H])N([H])C4([H])[H])c([H])c3[H])nc1n2C1([H])C([H])([H])C([H])([H])C([H])([H])C1([H])[H]


 34 39  0  0  0  0  0  0  0  0999 V2000
   33.6568   10.6268  -17.0128 C   0  0  0  0  0  0  0  0  0  0  0  0
   35.0148   10.6668  -17.2734 C   0  0  0  0  0  0  0  0  0  0  0  0
   35.8459   11.4004  -16.4546 C   0  0  0  0  0  0  0  0  0  0  0  0
   37.1970   11.6035  -16.4888 C   0  0  0  0  0  0  0  0  0  0  0  0
   38.2349   11.1794  -17.3154 C   0  0  0  0  0  0  0  0  0  0  0  0
   39.4860   11.5845  -17.0475 N   0  0  0  0  0  0  0  0  0  0  0  0
   39.8057   12.3892  -16.0117 C   0  0  0  0  0  0  0  0  0  0  0  0
   38.8239   12.8119  -15.1999 N   0  0  0  0  0  0  0  0  0  0  0  0
   37.5487   12.4235  -15.4392 C   0  0  0  0  0  0  0  0  0  0  0  0
   36.3939   12.7129  -14.7713 N   0  0  0  0  0  0  0  0  0  0  0  0
   35.3661   12.1040  -15.3723 C   0  0  0  0  0  0  0  0  0  0  0  0
   34.0069   12.0419  -15.1417 C   0  0  0  0  0  0  0  0  0  0  0  0
   33.2170   11.3276  -15.9435 N   0  0  0  0  0  0  0  0  0  0  0  0
   36.2815   13.5460  -13.5956 C   0  0  0  0  0  0  0  0  0  0  0  0
   36.7152   14.9686  -13.8390 C   0  0  0  0  0  0  0  0  0  0  0  0
   37.3932   15.4380  -12.5832 C   0  0  0  0  0  0  0  0  0  0  0  0
   37.6140   14.2479  -11.7038 C   0  0  0  0  0  0  0  0  0  0  0  0
   37.0630   13.0402  -12.4249 C   0  0  0  0  0  0  0  0  0  0  0  0
   41.1748   12.7758  -15.7968 N   0  0  0  0  0  0  0  0  0  0  0  0
   41.8973   12.4480  -16.4735 H   0  0  0  0  0  0  0  0  0  0  0  0
   41.5575   13.5822  -14.6993 C   0  0  0  0  0  0  0  0  0  0  0  0
   40.7448   14.5451  -14.1462 C   0  0  0  0  0  0  0  0  0  0  0  0
   41.1513   15.3191  -13.0696 C   0  0  0  0  0  0  0  0  0  0  0  0
   42.4058   15.1240  -12.5319 C   0  0  0  0  0  0  0  0  0  0  0  0
   43.1704   14.1649  -13.1096 N   0  0  0  0  0  0  0  0  0  0  0  0
   42.7669   13.4358  -14.1361 N   0  0  0  0  0  0  0  0  0  0  0  0
   42.8872   15.8813  -11.4286 N   0  0  0  0  0  0  0  0  0  0  0  0
   42.4210   15.8077  -10.5138 H   0  0  0  0  0  0  0  0  0  0  0  0
   44.0290   16.7528  -11.5899 C   0  0  0  0  0  0  0  0  0  0  0  0
   44.1964   17.1959  -13.0271 C   0  0  0  0  0  0  0  0  0  0  0  0
   44.5508   18.6626  -13.1293 C   0  0  0  0  0  0  0  0  0  0  0  0
   45.5535   18.3378  -14.1414 N   0  0  0  0  0  0  0  0  0  0  0  0
   45.5809   16.9841  -13.5862 C   0  0  0  0  0  0  0  0  0  0  0  0
   46.4677   18.8118  -13.9222 H   0  0  0  0  0  0  0  0  0  0  0  0
  1  2  2  0  0  0
  2  3  1  0  0  0
  3  4  1  0  0  0
  4  5  2  0  0  0
  5  6  1  0  0  0
  6  7  2  0  0  0
  7 19  1  0  0  0
 19 21  1  0  0  0
 21 22  2  0  0  0
 22 23  1  0  0  0
 23 24  2  0  0  0
 24 27  1  0  0  0
 27 29  1  0  0  0
 29 30  1  0  0  0
 30 31  1  0  0  0
 31 32  1  0  0  0
 32 33  1  0  0  0
 24 25  1  0  0  0
 25 26  2  0  0  0
  7  8  1  0  0  0
  8  9  2  0  0  0
  9 10  1  0  0  0
 10 14  1  0  0  0
 14 15  1  0  0  0
 15 16  1  0  0  0
 16 17  1  0  0  0
 17 18  1  0  0  0
 10 11  1  0  0  0
 11 12  1  0  0  0
 12 13  2  0  0  0
 13  1  1  0  0  0
 11  3  2  0  0  0
  9  4  1  0  0  0
 18 14  1  0  0  0
 26 21  1  0  0  0
 33 30  1  0  0  0
 19 20  1  0  0  0
 27 28  1  0  0  0
 32 34  1  0  0  0
M  END
> <minimizedAffinity>
-8.49984

> <CNNscore>
0.3753639162

> <CNNaffinity>
7.1840944290

> <CNN_VS>
2.6966497898

> <CNNaffinity_variance>
0.4387504458

$$$$
[H]c1nc([H])c2c(c1[H])c1c([H])nc(N([H])c3nnc(N([H])C([H])([H])C4([H])C([H])([H])N([H])C4([H])[H])c([H])c3[H])nc1n2C1([H])C([H])([H])C([H])([H])C([H])([H])C1([H])[H]


 34 39  0  0  0  0  0  0  0  0999 V2000
   40.8058   11.7283  -17.9912 C   0  0  0  0  0  0  0  0  0  0  0  0
   40.9615   12.6735  -16.9931 C   0  0  0  0  0  0  0  0  0  0  0  0
   39.9561   12.8634  -16.0699 C   0  0  0  0  0  0  0  0  0  0  0  0
   39.8577   13.7145  -15.0050 C   0  0  0  0  0  0  0  0  0  0  0  0
   40.6824   14.6860  -14.4427 C   0  0  0  0  0  0  0  0  0  0  0  0
   40.2543   15.3551  -13.3610 N   0  0  0  0  0  0  0  0  0  0  0  0
   39.0566   15.1420  -12.7754 C   0  0  0  0  0  0  0  0  0  0  0  0
   38.2430   14.2111  -13.2979 N   0  0  0  0  0  0  0  0  0  0  0  0
   38.6413   13.5156  -14.3897 C   0  0  0  0  0  0  0  0  0  0  0  0
   38.0069   12.5347  -15.0958 N   0  0  0  0  0  0  0  0  0  0  0  0
   38.7872   12.1363  -16.1062 C   0  0  0  0  0  0  0  0  0  0  0  0
   38.6655   11.2022  -17.1148 C   0  0  0  0  0  0  0  0  0  0  0  0
   39.6476   11.0310  -17.9998 N   0  0  0  0  0  0  0  0  0  0  0  0
   36.6957   11.9982  -14.8097 C   0  0  0  0  0  0  0  0  0  0  0  0
   35.6133   12.6015  -15.6670 C   0  0  0  0  0  0  0  0  0  0  0  0
   34.3882   12.7163  -14.8049 C   0  0  0  0  0  0  0  0  0  0  0  0
   34.7923   12.4513  -13.3889 C   0  0  0  0  0  0  0  0  0  0  0  0
   36.2760   12.1678  -13.3841 C   0  0  0  0  0  0  0  0  0  0  0  0
   38.6761   15.9053  -11.6167 N   0  0  0  0  0  0  0  0  0  0  0  0
   39.3704   16.5655  -11.2050 H   0  0  0  0  0  0  0  0  0  0  0  0
   37.3946   15.7807  -11.0307 C   0  0  0  0  0  0  0  0  0  0  0  0
   37.1721   15.1726   -9.8165 C   0  0  0  0  0  0  0  0  0  0  0  0
   35.9018   15.0672   -9.2701 C   0  0  0  0  0  0  0  0  0  0  0  0
   34.8247   15.5845   -9.9578 C   0  0  0  0  0  0  0  0  0  0  0  0
   35.0926   16.1740  -11.1490 N   0  0  0  0  0  0  0  0  0  0  0  0
   36.3104   16.2659  -11.6555 N   0  0  0  0  0  0  0  0  0  0  0  0
   33.4956   15.5117   -9.4569 N   0  0  0  0  0  0  0  0  0  0  0  0
   33.3280   15.1959   -8.4917 H   0  0  0  0  0  0  0  0  0  0  0  0
   32.3813   15.8804  -10.3005 C   0  0  0  0  0  0  0  0  0  0  0  0
   31.6031   14.6673  -10.7619 C   0  0  0  0  0  0  0  0  0  0  0  0
   30.1761   15.0145  -11.1233 C   0  0  0  0  0  0  0  0  0  0  0  0
   30.2872   14.1782  -12.3164 N   0  0  0  0  0  0  0  0  0  0  0  0
   31.7361   14.3656  -12.2334 C   0  0  0  0  0  0  0  0  0  0  0  0
   29.9277   14.6911  -13.1627 H   0  0  0  0  0  0  0  0  0  0  0  0
  1  2  2  0  0  0
  2  3  1  0  0  0
  3  4  1  0  0  0
  4  5  2  0  0  0
  5  6  1  0  0  0
  6  7  2  0  0  0
  7 19  1  0  0  0
 19 21  1  0  0  0
 21 22  2  0  0  0
 22 23  1  0  0  0
 23 24  2  0  0  0
 24 27  1  0  0  0
 27 29  1  0  0  0
 29 30  1  0  0  0
 30 31  1  0  0  0
 31 32  1  0  0  0
 32 33  1  0  0  0
 24 25  1  0  0  0
 25 26  2  0  0  0
  7  8  1  0  0  0
  8  9  2  0  0  0
  9 10  1  0  0  0
 10 14  1  0  0  0
 14 15  1  0  0  0
 15 16  1  0  0  0
 16 17  1  0  0  0
 17 18  1  0  0  0
 10 11  1  0  0  0
 11 12  1  0  0  0
 12 13  2  0  0  0
 13  1  1  0  0  0
 11  3  2  0  0  0
  9  4  1  0  0  0
 18 14  1  0  0  0
 26 21  1  0  0  0
 33 30  1  0  0  0
 19 20  1  0  0  0
 27 28  1  0  0  0
 32 34  1  0  0  0
M  END
> <minimizedAffinity>
-9.31822

> <CNNscore>
0.2230626047

> <CNNaffinity>
6.9345130920

> <CNN_VS>
1.5468305349

> <CNNaffinity_variance>
0.1732937396

$$$$
[H]c1nc([H])c2c(c1[H])c1c([H])nc(N([H])c3nnc(N([H])C([H])([H])C4([H])C([H])([H])N([H])C4([H])[H])c([H])c3[H])nc1n2C1([H])C([H])([H])C([H])([H])C([H])([H])C1([H])[H]


 34 39  0  0  0  0  0  0  0  0999 V2000
   38.7822   10.6323  -19.1483 C   0  0  0  0  0  0  0  0  0  0  0  0
   39.6702   11.3343  -18.3532 C   0  0  0  0  0  0  0  0  0  0  0  0
   39.2500   11.8390  -17.1416 C   0  0  0  0  0  0  0  0  0  0  0  0
   39.9118   12.5548  -16.1837 C   0  0  0  0  0  0  0  0  0  0  0  0
   41.2085   13.0432  -16.0410 C   0  0  0  0  0  0  0  0  0  0  0  0
   41.5262   13.7290  -14.9320 N   0  0  0  0  0  0  0  0  0  0  0  0
   40.6546   13.9785  -13.9316 C   0  0  0  0  0  0  0  0  0  0  0  0
   39.3987   13.5187  -14.0445 N   0  0  0  0  0  0  0  0  0  0  0  0
   39.0415   12.8222  -15.1499 C   0  0  0  0  0  0  0  0  0  0  0  0
   37.8467   12.2596  -15.4953 N   0  0  0  0  0  0  0  0  0  0  0  0
   37.9609   11.6670  -16.6887 C   0  0  0  0  0  0  0  0  0  0  0  0
   37.1019   10.9620  -17.5070 C   0  0  0  0  0  0  0  0  0  0  0  0
   37.5245   10.4804  -18.6760 N   0  0  0  0  0  0  0  0  0  0  0  0
   36.6365   12.2900  -14.7058 C   0  0  0  0  0  0  0  0  0  0  0  0
   35.9069   13.6053  -14.7980 C   0  0  0  0  0  0  0  0  0  0  0  0
   35.3181   13.8725  -13.4418 C   0  0  0  0  0  0  0  0  0  0  0  0
   35.9065   12.8893  -12.4798 C   0  0  0  0  0  0  0  0  0  0  0  0
   36.8603   12.0098  -13.2537 C   0  0  0  0  0  0  0  0  0  0  0  0
   41.0794   14.7229  -12.7761 N   0  0  0  0  0  0  0  0  0  0  0  0
   40.3998   14.8665  -11.9983 H   0  0  0  0  0  0  0  0  0  0  0  0
   42.3848   15.2583  -12.6735 C   0  0  0  0  0  0  0  0  0  0  0  0
   42.6560   16.6069  -12.7078 C   0  0  0  0  0  0  0  0  0  0  0  0
   43.9487   17.0987  -12.6047 C   0  0  0  0  0  0  0  0  0  0  0  0
   44.9987   16.2165  -12.4633 C   0  0  0  0  0  0  0  0  0  0  0  0
   44.6830   14.8982  -12.4347 N   0  0  0  0  0  0  0  0  0  0  0  0
   43.4444   14.4463  -12.5345 N   0  0  0  0  0  0  0  0  0  0  0  0
   46.3482   16.6510  -12.3520 N   0  0  0  0  0  0  0  0  0  0  0  0
   46.6320   17.5524  -12.7599 H   0  0  0  0  0  0  0  0  0  0  0  0
   47.3207   15.8294  -11.6674 C   0  0  0  0  0  0  0  0  0  0  0  0
   48.1113   16.6261  -10.6524 C   0  0  0  0  0  0  0  0  0  0  0  0
   48.9856   17.6705  -11.3098 C   0  0  0  0  0  0  0  0  0  0  0  0
   48.5765   18.6364  -10.2925 N   0  0  0  0  0  0  0  0  0  0  0  0
   47.3794   17.8192  -10.0912 C   0  0  0  0  0  0  0  0  0  0  0  0
   48.2933   19.5468  -10.7391 H   0  0  0  0  0  0  0  0  0  0  0  0
  1  2  2  0  0  0
  2  3  1  0  0  0
  3  4  1  0  0  0
  4  5  2  0  0  0
  5  6  1  0  0  0
  6  7  2  0  0  0
  7 19  1  0  0  0
 19 21  1  0  0  0
 21 22  2  0  0  0
 22 23  1  0  0  0
 23 24  2  0  0  0
 24 27  1  0  0  0
 27 29  1  0  0  0
 29 30  1  0  0  0
 30 31  1  0  0  0
 31 32  1  0  0  0
 32 33  1  0  0  0
 24 25  1  0  0  0
 25 26  2  0  0  0
  7  8  1  0  0  0
  8  9  2  0  0  0
  9 10  1  0  0  0
 10 14  1  0  0  0
 14 15  1  0  0  0
 15 16  1  0  0  0
 16 17  1  0  0  0
 17 18  1  0  0  0
 10 11  1  0  0  0
 11 12  1  0  0  0
 12 13  2  0  0  0
 13  1  1  0  0  0
 11  3  2  0  0  0
  9  4  1  0  0  0
 18 14  1  0  0  0
 26 21  1  0  0  0
 33 30  1  0  0  0
 19 20  1  0  0  0
 27 28  1  0  0  0
 32 34  1  0  0  0
M  END
> <minimizedAffinity>
-7.81539

> <CNNscore>
0.2008326054

> <CNNaffinity>
6.7906785011

> <CNN_VS>
1.3637896776

> <CNNaffinity_variance>
0.4823192954

$$$$
[H]c1nc([H])c2c(c1[H])c1c([H])nc(N([H])c3nnc(N([H])C([H])([H])C4([H])C([H])([H])N([H])C4([H])[H])c([H])c3[H])nc1n2C1([H])C([H])([H])C([H])([H])C([H])([H])C1([H])[H]


 34 39  0  0  0  0  0  0  0  0999 V2000
   37.8178   10.6114  -18.2472 C   0  0  0  0  0  0  0  0  0  0  0  0
   39.0467   11.1146  -17.8593 C   0  0  0  0  0  0  0  0  0  0  0  0
   39.1454   11.8606  -16.7047 C   0  0  0  0  0  0  0  0  0  0  0  0
   40.2176   12.4621  -16.1077 C   0  0  0  0  0  0  0  0  0  0  0  0
   41.5758   12.5658  -16.3995 C   0  0  0  0  0  0  0  0  0  0  0  0
   42.3686   13.2568  -15.5658 N   0  0  0  0  0  0  0  0  0  0  0  0
   41.9253   13.8665  -14.4458 C   0  0  0  0  0  0  0  0  0  0  0  0
   40.6207   13.7817  -14.1419 N   0  0  0  0  0  0  0  0  0  0  0  0
   39.7899   13.0924  -14.9599 C   0  0  0  0  0  0  0  0  0  0  0  0
   38.4470   12.8644  -14.8713 N   0  0  0  0  0  0  0  0  0  0  0  0
   38.0500   12.1261  -15.9134 C   0  0  0  0  0  0  0  0  0  0  0  0
   36.8403   11.6089  -16.3300 C   0  0  0  0  0  0  0  0  0  0  0  0
   36.7622   10.8893  -17.4495 N   0  0  0  0  0  0  0  0  0  0  0  0
   37.5747   13.3394  -13.8215 C   0  0  0  0  0  0  0  0  0  0  0  0
   36.8745   12.2241  -13.0888 C   0  0  0  0  0  0  0  0  0  0  0  0
   35.4975   12.7217  -12.7517 C   0  0  0  0  0  0  0  0  0  0  0  0
   35.2697   13.9965  -13.5011 C   0  0  0  0  0  0  0  0  0  0  0  0
   36.5188   14.2844  -14.3003 C   0  0  0  0  0  0  0  0  0  0  0  0
   42.8452   14.5877  -13.6070 N   0  0  0  0  0  0  0  0  0  0  0  0
   43.2550   15.4768  -13.9661 H   0  0  0  0  0  0  0  0  0  0  0  0
   43.2016   14.1217  -12.3197 C   0  0  0  0  0  0  0  0  0  0  0  0
   42.9495   14.8229  -11.1629 C   0  0  0  0  0  0  0  0  0  0  0  0
   43.3126   14.3368   -9.9158 C   0  0  0  0  0  0  0  0  0  0  0  0
   43.9453   13.1153   -9.8240 C   0  0  0  0  0  0  0  0  0  0  0  0
   44.1724   12.4613  -10.9898 N   0  0  0  0  0  0  0  0  0  0  0  0
   43.8194   12.9395  -12.1708 N   0  0  0  0  0  0  0  0  0  0  0  0
   44.3451   12.5567   -8.5787 N   0  0  0  0  0  0  0  0  0  0  0  0
   45.0563   11.8130   -8.5551 H   0  0  0  0  0  0  0  0  0  0  0  0
   43.7549   13.0318   -7.3478 C   0  0  0  0  0  0  0  0  0  0  0  0
   44.8095   13.4028   -6.3279 C   0  0  0  0  0  0  0  0  0  0  0  0
   44.4608   12.8996   -4.9449 C   0  0  0  0  0  0  0  0  0  0  0  0
   45.8443   12.4641   -4.7673 N   0  0  0  0  0  0  0  0  0  0  0  0
   45.9494   12.4208   -6.2263 C   0  0  0  0  0  0  0  0  0  0  0  0
   45.8775   11.4793   -4.3964 H   0  0  0  0  0  0  0  0  0  0  0  0
  1  2  2  0  0  0
  2  3  1  0  0  0
  3  4  1  0  0  0
  4  5  2  0  0  0
  5  6  1  0  0  0
  6  7  2  0  0  0
  7 19  1  0  0  0
 19 21  1  0  0  0
 21 22  2  0  0  0
 22 23  1  0  0  0
 23 24  2  0  0  0
 24 27  1  0  0  0
 27 29  1  0  0  0
 29 30  1  0  0  0
 30 31  1  0  0  0
 31 32  1  0  0  0
 32 33  1  0  0  0
 24 25  1  0  0  0
 25 26  2  0  0  0
  7  8  1  0  0  0
  8  9  2  0  0  0
  9 10  1  0  0  0
 10 14  1  0  0  0
 14 15  1  0  0  0
 15 16  1  0  0  0
 16 17  1  0  0  0
 17 18  1  0  0  0
 10 11  1  0  0  0
 11 12  1  0  0  0
 12 13  2  0  0  0
 13  1  1  0  0  0
 11  3  2  0  0  0
  9  4  1  0  0  0
 18 14  1  0  0  0
 26 21  1  0  0  0
 33 30  1  0  0  0
 19 20  1  0  0  0
 27 28  1  0  0  0
 32 34  1  0  0  0
M  END
> <minimizedAffinity>
-7.91152

> <CNNscore>
0.1635683775

> <CNNaffinity>
6.7061295509

> <CNN_VS>
1.0969107151

> <CNNaffinity_variance>
0.3676371872

$$$$
[H]c1nc([H])c2c(c1[H])c1c([H])nc(N([H])c3nnc(N([H])C([H])([H])C4([H])C([H])([H])N([H])C4([H])[H])c([H])c3[H])nc1n2C1([H])C([H])([H])C([H])([H])C([H])([H])C1([H])[H]


 34 39  0  0  0  0  0  0  0  0999 V2000
   39.2003   10.9816  -18.0932 C   0  0  0  0  0  0  0  0  0  0  0  0
   38.5182   11.6265  -17.0771 C   0  0  0  0  0  0  0  0  0  0  0  0
   39.2061   12.4373  -16.2004 C   0  0  0  0  0  0  0  0  0  0  0  0
   38.7819   13.1747  -15.1307 C   0  0  0  0  0  0  0  0  0  0  0  0
   37.5517   13.4007  -14.5175 C   0  0  0  0  0  0  0  0  0  0  0  0
   37.4973   14.2109  -13.4490 N   0  0  0  0  0  0  0  0  0  0  0  0
   38.5763   14.8295  -12.9239 C   0  0  0  0  0  0  0  0  0  0  0  0
   39.7736   14.6284  -13.4963 N   0  0  0  0  0  0  0  0  0  0  0  0
   39.8673   13.8169  -14.5766 C   0  0  0  0  0  0  0  0  0  0  0  0
   40.9516   13.4584  -15.3244 N   0  0  0  0  0  0  0  0  0  0  0  0
   40.5659   12.6307  -16.3015 C   0  0  0  0  0  0  0  0  0  0  0  0
   41.2144   11.9723  -17.3264 C   0  0  0  0  0  0  0  0  0  0  0  0
   40.5339   11.1917  -18.1658 N   0  0  0  0  0  0  0  0  0  0  0  0
   42.3119   13.8960  -15.1079 C   0  0  0  0  0  0  0  0  0  0  0  0
   43.2920   13.2646  -16.0627 C   0  0  0  0  0  0  0  0  0  0  0  0
   44.5612   13.0319  -15.2932 C   0  0  0  0  0  0  0  0  0  0  0  0
   44.2710   13.2567  -13.8427 C   0  0  0  0  0  0  0  0  0  0  0  0
   42.8131   13.6342  -13.7232 C   0  0  0  0  0  0  0  0  0  0  0  0
   38.4283   15.6828  -11.7750 N   0  0  0  0  0  0  0  0  0  0  0  0
   39.1726   16.3859  -11.5774 H   0  0  0  0  0  0  0  0  0  0  0  0
   37.3072   15.5893  -10.9174 C   0  0  0  0  0  0  0  0  0  0  0  0
   36.2531   16.4733  -10.9485 C   0  0  0  0  0  0  0  0  0  0  0  0
   35.1684   16.3529  -10.0927 C   0  0  0  0  0  0  0  0  0  0  0  0
   35.1380   15.3193   -9.1807 C   0  0  0  0  0  0  0  0  0  0  0  0
   36.1980   14.4740   -9.1870 N   0  0  0  0  0  0  0  0  0  0  0  0
   37.2245   14.6035  -10.0103 N   0  0  0  0  0  0  0  0  0  0  0  0
   34.0579   15.1359   -8.2739 N   0  0  0  0  0  0  0  0  0  0  0  0
   34.0928   14.3744   -7.5823 H   0  0  0  0  0  0  0  0  0  0  0  0
   32.9127   16.0165   -8.3222 C   0  0  0  0  0  0  0  0  0  0  0  0
   31.6124   15.2430   -8.3501 C   0  0  0  0  0  0  0  0  0  0  0  0
   30.4449   16.0820   -7.8806 C   0  0  0  0  0  0  0  0  0  0  0  0
   29.6416   15.5607   -8.9843 N   0  0  0  0  0  0  0  0  0  0  0  0
   30.8981   15.2746   -9.6778 C   0  0  0  0  0  0  0  0  0  0  0  0
   29.1492   16.3444   -9.4861 H   0  0  0  0  0  0  0  0  0  0  0  0
  1  2  2  0  0  0
  2  3  1  0  0  0
  3  4  1  0  0  0
  4  5  2  0  0  0
  5  6  1  0  0  0
  6  7  2  0  0  0
  7 19  1  0  0  0
 19 21  1  0  0  0
 21 22  2  0  0  0
 22 23  1  0  0  0
 23 24  2  0  0  0
 24 27  1  0  0  0
 27 29  1  0  0  0
 29 30  1  0  0  0
 30 31  1  0  0  0
 31 32  1  0  0  0
 32 33  1  0  0  0
 24 25  1  0  0  0
 25 26  2  0  0  0
  7  8  1  0  0  0
  8  9  2  0  0  0
  9 10  1  0  0  0
 10 14  1  0  0  0
 14 15  1  0  0  0
 15 16  1  0  0  0
 16 17  1  0  0  0
 17 18  1  0  0  0
 10 11  1  0  0  0
 11 12  1  0  0  0
 12 13  2  0  0  0
 13  1  1  0  0  0
 11  3  2  0  0  0
  9  4  1  0  0  0
 18 14  1  0  0  0
 26 21  1  0  0  0
 33 30  1  0  0  0
 19 20  1  0  0  0
 27 28  1  0  0  0
 32 34  1  0  0  0
M  END
> <minimizedAffinity>
-8.45336

> <CNNscore>
0.1590829194

> <CNNaffinity>
6.5336670876

> <CNN_VS>
1.0393948555

> <CNNaffinity_variance>
0.4513783455

$$$$
[H]Oc1c([H])c([H])c(C([H])([H])[C@@]2([H])C(=O)N(C([H])([H])c3c([H])c([H])c([H])c4c(C(=O)N([H])c5c([H])nc(N6C([H])([H])C([H])([H])C([H])(N7C([H])([H])C([H])([H])C7([H])[H])C([H])([H])C6([H])[H])c([H])c5[H])c([H])n(C([H])([H])[H])c34)C([H])([H])[C@]3([H])N(C(=O)N([H])C([H])([H])c4c([H])c([H])c([H])c([H])c4[H])N(C([H])([H])C([H])=C([H])[H])C([H])([H])C(=O)N23)c([H])c1[H]


 66 74  0  0  0  0  0  0  0  0999 V2000
   42.4658   15.2287   -7.0477 N   0  0  0  0  0  0  0  0  0  0  0  0
   42.9081   16.4238   -7.7435 C   0  0  0  0  0  0  0  0  0  0  0  0
   43.8207   17.0740   -6.7173 C   0  0  0  0  0  0  0  0  0  0  0  0
   43.6085   18.2713   -6.4531 O   0  0  0  0  0  0  0  0  0  0  0  0
   44.8365   16.3171   -6.1338 N   0  0  0  0  0  0  0  0  0  0  0  0
   46.0138   16.9498   -5.6110 C   0  0  0  0  0  0  0  0  0  0  0  0
   47.0543   16.6072   -6.6512 C   0  0  0  0  0  0  0  0  0  0  0  0
   47.8585   17.4385   -7.0367 O   0  0  0  0  0  0  0  0  0  0  0  0
   47.0530   15.2900   -7.1509 N   0  0  0  0  0  0  0  0  0  0  0  0
   46.0268   14.2958   -6.7528 C   0  0  0  0  0  0  0  0  0  0  0  0
   44.8020   14.8785   -6.1300 C   0  0  0  0  0  0  0  0  0  0  0  0
   43.5275   14.4029   -6.6170 N   0  0  0  0  0  0  0  0  0  0  0  0
   43.2358   13.0046   -6.6714 C   0  0  0  0  0  0  0  0  0  0  0  0
   42.1089   12.6733   -7.1725 O   0  0  0  0  0  0  0  0  0  0  0  0
   44.0449   11.9489   -6.2335 N   0  0  0  0  0  0  0  0  0  0  0  0
   44.9584   12.1204   -5.8127 H   0  0  0  0  0  0  0  0  0  0  0  0
   41.6741   15.7396   -5.9387 C   0  0  0  0  0  0  0  0  0  0  0  0
   39.6375   14.6697   -5.1644 C   0  0  0  0  0  0  0  0  0  0  0  0
   40.2635   15.4430   -6.0103 C   0  0  0  0  0  0  0  0  0  0  0  0
   46.4718   16.6043   -4.2576 C   0  0  0  0  0  0  0  0  0  0  0  0
   47.6784   17.2361   -3.7180 C   0  0  0  0  0  0  0  0  0  0  0  0
   48.7742   16.4589   -3.3381 C   0  0  0  0  0  0  0  0  0  0  0  0
   49.8869   17.0396   -2.7683 C   0  0  0  0  0  0  0  0  0  0  0  0
   49.9832   18.3979   -2.5409 C   0  0  0  0  0  0  0  0  0  0  0  0
   51.1287   18.9169   -1.9679 O   0  0  0  0  0  0  0  0  0  0  0  0
   48.9120   19.1627   -2.9100 C   0  0  0  0  0  0  0  0  0  0  0  0
   47.7792   18.5897   -3.4878 C   0  0  0  0  0  0  0  0  0  0  0  0
   51.9183   18.3395   -1.7002 H   0  0  0  0  0  0  0  0  0  0  0  0
   48.0232   14.7837   -8.1234 C   0  0  0  0  0  0  0  0  0  0  0  0
   47.5016   14.9898   -9.4781 C   0  0  0  0  0  0  0  0  0  0  0  0
   46.5812   15.9664   -9.7556 C   0  0  0  0  0  0  0  0  0  0  0  0
   46.0411   16.1312  -11.0195 C   0  0  0  0  0  0  0  0  0  0  0  0
   46.4307   15.2945  -12.0493 C   0  0  0  0  0  0  0  0  0  0  0  0
   47.3724   14.2939  -11.7774 C   0  0  0  0  0  0  0  0  0  0  0  0
   47.9492   13.3601  -12.5714 C   0  0  0  0  0  0  0  0  0  0  0  0
   48.8194   12.6591  -11.7866 C   0  0  0  0  0  0  0  0  0  0  0  0
   48.8083   13.1182  -10.5228 N   0  0  0  0  0  0  0  0  0  0  0  0
   49.5972   12.6220   -9.4228 C   0  0  0  0  0  0  0  0  0  0  0  0
   47.9052   14.1398  -10.5033 C   0  0  0  0  0  0  0  0  0  0  0  0
   47.7126   13.0605  -14.0254 C   0  0  0  0  0  0  0  0  0  0  0  0
   48.6920   12.8520  -14.7729 O   0  0  0  0  0  0  0  0  0  0  0  0
   46.3680   13.0291  -14.4385 N   0  0  0  0  0  0  0  0  0  0  0  0
   46.8060   12.4552  -15.6151 H   0  0  0  0  0  0  0  0  0  0  0  0
   45.1271   12.9956  -14.8393 C   0  0  0  0  0  0  0  0  0  0  0  0
   44.0937   13.4150  -13.9761 C   0  0  0  0  0  0  0  0  0  0  0  0
   42.7887   13.4072  -14.3025 C   0  0  0  0  0  0  0  0  0  0  0  0
   42.4268   12.9586  -15.5521 C   0  0  0  0  0  0  0  0  0  0  0  0
   43.3596   12.5386  -16.4367 N   0  0  0  0  0  0  0  0  0  0  0  0
   44.6702   12.5565  -16.1008 C   0  0  0  0  0  0  0  0  0  0  0  0
   41.0538   12.8727  -15.9452 N   0  0  0  0  0  0  0  0  0  0  0  0
   40.7320   12.2815  -17.2206 C   0  0  0  0  0  0  0  0  0  0  0  0
   39.5040   11.4491  -17.2626 C   0  0  0  0  0  0  0  0  0  0  0  0
   38.6306   11.5221  -16.0601 C   0  0  0  0  0  0  0  0  0  0  0  0
   38.6708   12.8838  -15.3742 C   0  0  0  0  0  0  0  0  0  0  0  0
   40.0272   13.3969  -15.0886 C   0  0  0  0  0  0  0  0  0  0  0  0
   37.2612   11.2102  -16.2683 N   0  0  0  0  0  0  0  0  0  0  0  0
   36.8744   10.7896  -17.5765 C   0  0  0  0  0  0  0  0  0  0  0  0
   35.5015   11.3628  -17.2879 C   0  0  0  0  0  0  0  0  0  0  0  0
   36.2577   12.2070  -16.2641 C   0  0  0  0  0  0  0  0  0  0  0  0
   43.6096   10.5598   -6.3492 C   0  0  0  0  0  0  0  0  0  0  0  0
   43.2068   10.0206   -4.9985 C   0  0  0  0  0  0  0  0  0  0  0  0
   43.9912    9.1086   -4.3735 C   0  0  0  0  0  0  0  0  0  0  0  0
   43.5782    8.5810   -3.1243 C   0  0  0  0  0  0  0  0  0  0  0  0
   42.3759    9.0056   -2.5600 C   0  0  0  0  0  0  0  0  0  0  0  0
   41.6421    9.9544   -3.3000 C   0  0  0  0  0  0  0  0  0  0  0  0
   42.0205   10.4580   -4.4679 C   0  0  0  0  0  0  0  0  0  0  0  0
 18 19  2  0  0  0
 19 17  1  0  0  0
 17  1  1  0  0  0
  1  2  1  0  0  0
  2  3  1  0  0  0
  3  4  2  0  0  0
  3  5  1  0  0  0
  5  6  1  0  0  0
  6 20  1  0  0  0
 20 21  1  0  0  0
 21 22  2  0  0  0
 22 23  1  0  0  0
 23 24  2  0  0  0
 24 25  1  0  0  0
 24 26  1  0  0  0
 26 27  2  0  0  0
  6  7  1  0  0  0
  7  8  2  0  0  0
  7  9  1  0  0  0
  9 29  1  0  0  0
 29 30  1  0  0  0
 30 31  2  0  0  0
 31 32  1  0  0  0
 32 33  2  0  0  0
 33 34  1  0  0  0
 34 35  1  0  0  0
 35 40  1  0  0  0
 40 41  2  0  0  0
 40 42  1  0  0  0
 42 44  1  0  0  0
 44 45  2  0  0  0
 45 46  1  0  0  0
 46 47  2  0  0  0
 47 50  1  0  0  0
 50 51  1  0  0  0
 51 52  1  0  0  0
 52 53  1  0  0  0
 53 56  1  0  0  0
 56 57  1  0  0  0
 57 58  1  0  0  0
 58 59  1  0  0  0
 53 54  1  0  0  0
 54 55  1  0  0  0
 47 48  1  0  0  0
 48 49  2  0  0  0
 35 36  2  0  0  0
 36 37  1  0  0  0
 37 38  1  0  0  0
 37 39  1  0  0  0
  9 10  1  0  0  0
 10 11  1  0  0  0
 11 12  1  0  0  0
 12 13  1  0  0  0
 13 14  2  0  0  0
 13 15  1  0  0  0
 15 60  1  0  0  0
 60 61  1  0  0  0
 61 62  2  0  0  0
 62 63  1  0  0  0
 63 64  2  0  0  0
 64 65  1  0  0  0
 65 66  2  0  0  0
 12  1  1  0  0  0
 66 61  1  0  0  0
 11  5  1  0  0  0
 27 21  1  0  0  0
 39 30  1  0  0  0
 39 34  2  0  0  0
 49 44  1  0  0  0
 55 50  1  0  0  0
 59 56  1  0  0  0
 25 28  1  0  0  0
 42 43  1  0  0  0
 15 16  1  0  0  0
M  END
> <minimizedAffinity>
-8.49951

> <CNNscore>
0.1084488854

> <CNNaffinity>
7.0690679550

> <CNN_VS>
0.7666325569

> <CNNaffinity_variance>
0.3710799813

$$$$
[H]Oc1c([H])c([H])c(C([H])([H])[C@@]2([H])C(=O)N(C([H])([H])c3c([H])c([H])c([H])c4c(C(=O)N([H])c5c([H])nc(N6C([H])([H])C([H])([H])C([H])(N7C([H])([H])C([H])([H])C7([H])[H])C([H])([H])C6([H])[H])c([H])c5[H])c([H])n(C([H])([H])[H])c34)C([H])([H])[C@]3([H])N(C(=O)N([H])C([H])([H])c4c([H])c([H])c([H])c([H])c4[H])N(C([H])([H])C([H])=C([H])[H])C([H])([H])C(=O)N23)c([H])c1[H]


 66 74  0  0  0  0  0  0  0  0999 V2000
   30.3084   16.1294   -8.9081 N   0  0  0  0  0  0  0  0  0  0  0  0
   30.2629   17.1022   -7.8313 C   0  0  0  0  0  0  0  0  0  0  0  0
   30.9641   16.3654   -6.7026 C   0  0  0  0  0  0  0  0  0  0  0  0
   30.3713   16.3135   -5.6098 O   0  0  0  0  0  0  0  0  0  0  0  0
   32.2162   15.7968   -6.9358 N   0  0  0  0  0  0  0  0  0  0  0  0
   33.1365   15.5829   -5.8556 C   0  0  0  0  0  0  0  0  0  0  0  0
   34.1570   16.6742   -6.0790 C   0  0  0  0  0  0  0  0  0  0  0  0
   34.5970   17.3266   -5.1479 O   0  0  0  0  0  0  0  0  0  0  0  0
   34.5751   16.9004   -7.4052 N   0  0  0  0  0  0  0  0  0  0  0  0
   33.9842   16.1718   -8.5542 C   0  0  0  0  0  0  0  0  0  0  0  0
   32.6797   15.5061   -8.2667 C   0  0  0  0  0  0  0  0  0  0  0  0
   31.6167   15.7022   -9.2255 N   0  0  0  0  0  0  0  0  0  0  0  0
   31.8216   15.4387  -10.6154 C   0  0  0  0  0  0  0  0  0  0  0  0
   30.8460   15.6980  -11.3977 O   0  0  0  0  0  0  0  0  0  0  0  0
   32.9729   14.9232  -11.2232 N   0  0  0  0  0  0  0  0  0  0  0  0
   33.7981   14.6799  -10.6748 H   0  0  0  0  0  0  0  0  0  0  0  0
   29.4678   15.0402   -8.4344 C   0  0  0  0  0  0  0  0  0  0  0  0
   27.1493   14.6262   -9.0224 C   0  0  0  0  0  0  0  0  0  0  0  0
   28.0548   15.3324   -8.4004 C   0  0  0  0  0  0  0  0  0  0  0  0
   33.7777   14.2682   -5.7104 C   0  0  0  0  0  0  0  0  0  0  0  0
   35.2267   14.1871   -5.5100 C   0  0  0  0  0  0  0  0  0  0  0  0
   36.0602   13.7522   -6.5421 C   0  0  0  0  0  0  0  0  0  0  0  0
   37.4164   13.6100   -6.3408 C   0  0  0  0  0  0  0  0  0  0  0  0
   38.0212   13.8815   -5.1297 C   0  0  0  0  0  0  0  0  0  0  0  0
   39.3872   13.7207   -4.9951 O   0  0  0  0  0  0  0  0  0  0  0  0
   37.2087   14.3062   -4.1158 C   0  0  0  0  0  0  0  0  0  0  0  0
   35.8347   14.4550   -4.3043 C   0  0  0  0  0  0  0  0  0  0  0  0
   39.9803   13.4070   -5.7556 H   0  0  0  0  0  0  0  0  0  0  0  0
   35.5907   17.8837   -7.7857 C   0  0  0  0  0  0  0  0  0  0  0  0
   36.8543   17.1920   -8.0587 C   0  0  0  0  0  0  0  0  0  0  0  0
   37.0015   16.3575   -9.1357 C   0  0  0  0  0  0  0  0  0  0  0  0
   38.1722   15.6565   -9.3692 C   0  0  0  0  0  0  0  0  0  0  0  0
   39.2395   15.7896   -8.5002 C   0  0  0  0  0  0  0  0  0  0  0  0
   39.1008   16.6413   -7.3969 C   0  0  0  0  0  0  0  0  0  0  0  0
   39.9620   16.9826   -6.4084 C   0  0  0  0  0  0  0  0  0  0  0  0
   39.3087   17.8751   -5.6076 C   0  0  0  0  0  0  0  0  0  0  0  0
   38.0625   18.1057   -6.0569 N   0  0  0  0  0  0  0  0  0  0  0  0
   37.0875   18.9889   -5.4669 C   0  0  0  0  0  0  0  0  0  0  0  0
   37.9191   17.3380   -7.1748 C   0  0  0  0  0  0  0  0  0  0  0  0
   41.3610   16.4983   -6.1471 C   0  0  0  0  0  0  0  0  0  0  0  0
   41.5971   15.2716   -6.1731 O   0  0  0  0  0  0  0  0  0  0  0  0
   42.3223   17.4944   -5.8955 N   0  0  0  0  0  0  0  0  0  0  0  0
   43.2862   16.5192   -6.0549 H   0  0  0  0  0  0  0  0  0  0  0  0
   43.2270   18.4043   -5.6605 C   0  0  0  0  0  0  0  0  0  0  0  0
   42.8427   19.6824   -5.2048 C   0  0  0  0  0  0  0  0  0  0  0  0
   43.7055   20.6813   -4.9450 C   0  0  0  0  0  0  0  0  0  0  0  0
   45.0492   20.4555   -5.1378 C   0  0  0  0  0  0  0  0  0  0  0  0
   45.4967   19.2562   -5.5741 N   0  0  0  0  0  0  0  0  0  0  0  0
   44.6211   18.2560   -5.8264 C   0  0  0  0  0  0  0  0  0  0  0  0
   46.0164   21.4897   -4.9329 N   0  0  0  0  0  0  0  0  0  0  0  0
   46.6468   22.0890   -6.0831 C   0  0  0  0  0  0  0  0  0  0  0  0
   46.9029   23.5485   -6.0002 C   0  0  0  0  0  0  0  0  0  0  0  0
   46.7036   24.1661   -4.6612 C   0  0  0  0  0  0  0  0  0  0  0  0
   47.0203   23.2150   -3.5116 C   0  0  0  0  0  0  0  0  0  0  0  0
   46.3656   21.8928   -3.5995 C   0  0  0  0  0  0  0  0  0  0  0  0
   47.4304   25.3606   -4.4146 N   0  0  0  0  0  0  0  0  0  0  0  0
   48.5793   25.6100   -5.2245 C   0  0  0  0  0  0  0  0  0  0  0  0
   49.1521   26.3955   -4.0619 C   0  0  0  0  0  0  0  0  0  0  0  0
   48.1897   25.5447   -3.2356 C   0  0  0  0  0  0  0  0  0  0  0  0
   33.0359   14.7005  -12.6650 C   0  0  0  0  0  0  0  0  0  0  0  0
   34.4139   14.2332  -13.0653 C   0  0  0  0  0  0  0  0  0  0  0  0
   34.6181   13.7093  -14.2988 C   0  0  0  0  0  0  0  0  0  0  0  0
   35.9091   13.2370  -14.6448 C   0  0  0  0  0  0  0  0  0  0  0  0
   36.9449   13.3172  -13.7148 C   0  0  0  0  0  0  0  0  0  0  0  0
   36.6162   13.8776  -12.4642 C   0  0  0  0  0  0  0  0  0  0  0  0
   35.4127   14.3264  -12.1305 C   0  0  0  0  0  0  0  0  0  0  0  0
 18 19  2  0  0  0
 19 17  1  0  0  0
 17  1  1  0  0  0
  1  2  1  0  0  0
  2  3  1  0  0  0
  3  4  2  0  0  0
  3  5  1  0  0  0
  5  6  1  0  0  0
  6 20  1  0  0  0
 20 21  1  0  0  0
 21 22  2  0  0  0
 22 23  1  0  0  0
 23 24  2  0  0  0
 24 25  1  0  0  0
 24 26  1  0  0  0
 26 27  2  0  0  0
  6  7  1  0  0  0
  7  8  2  0  0  0
  7  9  1  0  0  0
  9 29  1  0  0  0
 29 30  1  0  0  0
 30 31  2  0  0  0
 31 32  1  0  0  0
 32 33  2  0  0  0
 33 34  1  0  0  0
 34 35  1  0  0  0
 35 40  1  0  0  0
 40 41  2  0  0  0
 40 42  1  0  0  0
 42 44  1  0  0  0
 44 45  2  0  0  0
 45 46  1  0  0  0
 46 47  2  0  0  0
 47 50  1  0  0  0
 50 51  1  0  0  0
 51 52  1  0  0  0
 52 53  1  0  0  0
 53 56  1  0  0  0
 56 57  1  0  0  0
 57 58  1  0  0  0
 58 59  1  0  0  0
 53 54  1  0  0  0
 54 55  1  0  0  0
 47 48  1  0  0  0
 48 49  2  0  0  0
 35 36  2  0  0  0
 36 37  1  0  0  0
 37 38  1  0  0  0
 37 39  1  0  0  0
  9 10  1  0  0  0
 10 11  1  0  0  0
 11 12  1  0  0  0
 12 13  1  0  0  0
 13 14  2  0  0  0
 13 15  1  0  0  0
 15 60  1  0  0  0
 60 61  1  0  0  0
 61 62  2  0  0  0
 62 63  1  0  0  0
 63 64  2  0  0  0
 64 65  1  0  0  0
 65 66  2  0  0  0
 12  1  1  0  0  0
 66 61  1  0  0  0
 11  5  1  0  0  0
 27 21  1  0  0  0
 39 30  1  0  0  0
 39 34  2  0  0  0
 49 44  1  0  0  0
 55 50  1  0  0  0
 59 56  1  0  0  0
 25 28  1  0  0  0
 42 43  1  0  0  0
 15 16  1  0  0  0
M  END
> <minimizedAffinity>
-8.57550

> <CNNscore>
0.0608345345

> <CNNaffinity>
6.7168798447

> <CNN_VS>
0.4086182714

> <CNNaffinity_variance>
0.2722428441

$$$$
[H]Oc1c([H])c([H])c(C([H])([H])[C@@]2([H])C(=O)N(C([H])([H])c3c([H])c([H])c([H])c4c(C(=O)N([H])c5c([H])nc(N6C([H])([H])C([H])([H])C([H])(N7C([H])([H])C([H])([H])C7([H])[H])C([H])([H])C6([H])[H])c([H])c5[H])c([H])n(C([H])([H])[H])c34)C([H])([H])[C@]3([H])N(C(=O)N([H])C([H])([H])c4c([H])c([H])c([H])c([H])c4[H])N(C([H])([H])C([H])=C([H])[H])C([H])([H])C(=O)N23)c([H])c1[H]


 66 74  0  0  0  0  0  0  0  0999 V2000
   46.2239   15.9092   -4.9346 N   0  0  0  0  0  0  0  0  0  0  0  0
   47.3121   15.2289   -4.2555 C   0  0  0  0  0  0  0  0  0  0  0  0
   46.8169   13.7931   -4.2132 C   0  0  0  0  0  0  0  0  0  0  0  0
   46.8306   13.2248   -3.1063 O   0  0  0  0  0  0  0  0  0  0  0  0
   46.3831   13.1880   -5.3927 N   0  0  0  0  0  0  0  0  0  0  0  0
   46.4235   11.7613   -5.5421 C   0  0  0  0  0  0  0  0  0  0  0  0
   47.5959   11.5667   -6.4748 C   0  0  0  0  0  0  0  0  0  0  0  0
   48.4105   10.6792   -6.2875 O   0  0  0  0  0  0  0  0  0  0  0  0
   47.7024   12.4523   -7.5654 N   0  0  0  0  0  0  0  0  0  0  0  0
   46.7666   13.5874   -7.7546 C   0  0  0  0  0  0  0  0  0  0  0  0
   45.9859   13.9619   -6.5389 C   0  0  0  0  0  0  0  0  0  0  0  0
   45.9256   15.3661   -6.2037 N   0  0  0  0  0  0  0  0  0  0  0  0
   45.5158   16.3364   -7.1701 C   0  0  0  0  0  0  0  0  0  0  0  0
   45.5508   17.5595   -6.8045 O   0  0  0  0  0  0  0  0  0  0  0  0
   45.0743   16.1010   -8.4779 N   0  0  0  0  0  0  0  0  0  0  0  0
   45.0066   15.1543   -8.8522 H   0  0  0  0  0  0  0  0  0  0  0  0
   45.1077   15.8008   -4.0074 C   0  0  0  0  0  0  0  0  0  0  0  0
   44.6211   18.0758   -3.3147 C   0  0  0  0  0  0  0  0  0  0  0  0
   45.0185   16.8637   -3.0351 C   0  0  0  0  0  0  0  0  0  0  0  0
   45.2276   11.0575   -6.0270 C   0  0  0  0  0  0  0  0  0  0  0  0
   44.4339   10.2516   -5.0959 C   0  0  0  0  0  0  0  0  0  0  0  0
   43.0407   10.3403   -5.0939 C   0  0  0  0  0  0  0  0  0  0  0  0
   42.2906    9.6355   -4.1769 C   0  0  0  0  0  0  0  0  0  0  0  0
   42.8600    8.8169   -3.2221 C   0  0  0  0  0  0  0  0  0  0  0  0
   42.0503    8.1355   -2.3332 O   0  0  0  0  0  0  0  0  0  0  0  0
   44.2240    8.7282   -3.2194 C   0  0  0  0  0  0  0  0  0  0  0  0
   44.9965    9.4350   -4.1409 C   0  0  0  0  0  0  0  0  0  0  0  0
   41.0387    8.2076   -2.3464 H   0  0  0  0  0  0  0  0  0  0  0  0
   48.7480   12.3693   -8.5866 C   0  0  0  0  0  0  0  0  0  0  0  0
   48.1718   11.8374   -9.8255 C   0  0  0  0  0  0  0  0  0  0  0  0
   47.5059   10.6401   -9.8553 C   0  0  0  0  0  0  0  0  0  0  0  0
   47.0084   10.1034  -11.0304 C   0  0  0  0  0  0  0  0  0  0  0  0
   47.1775   10.7823  -12.2232 C   0  0  0  0  0  0  0  0  0  0  0  0
   47.8551   12.0080  -12.2043 C   0  0  0  0  0  0  0  0  0  0  0  0
   48.1469   12.8912  -13.1891 C   0  0  0  0  0  0  0  0  0  0  0  0
   48.8027   13.9345  -12.6009 C   0  0  0  0  0  0  0  0  0  0  0  0
   48.9366   13.7370  -11.2776 N   0  0  0  0  0  0  0  0  0  0  0  0
   49.5728   14.6260  -10.3375 C   0  0  0  0  0  0  0  0  0  0  0  0
   48.3498   12.5339  -11.0170 C   0  0  0  0  0  0  0  0  0  0  0  0
   47.8744   12.8050  -14.6650 C   0  0  0  0  0  0  0  0  0  0  0  0
   48.8359   12.7643  -15.4620 O   0  0  0  0  0  0  0  0  0  0  0  0
   46.5192   12.7670  -15.0414 N   0  0  0  0  0  0  0  0  0  0  0  0
   46.9426   12.4029  -16.3038 H   0  0  0  0  0  0  0  0  0  0  0  0
   45.2680   12.7305  -15.4088 C   0  0  0  0  0  0  0  0  0  0  0  0
   44.2893   13.4091  -14.6536 C   0  0  0  0  0  0  0  0  0  0  0  0
   42.9780   13.4192  -14.9538 C   0  0  0  0  0  0  0  0  0  0  0  0
   42.5523   12.7224  -16.0615 C   0  0  0  0  0  0  0  0  0  0  0  0
   43.4301   12.0453  -16.8362 N   0  0  0  0  0  0  0  0  0  0  0  0
   44.7479   12.0469  -16.5291 C   0  0  0  0  0  0  0  0  0  0  0  0
   41.1662   12.6461  -16.4077 N   0  0  0  0  0  0  0  0  0  0  0  0
   40.7897   11.9633  -17.6208 C   0  0  0  0  0  0  0  0  0  0  0  0
   39.5385   11.1675  -17.5601 C   0  0  0  0  0  0  0  0  0  0  0  0
   38.7042   11.3640  -16.3437 C   0  0  0  0  0  0  0  0  0  0  0  0
   38.8028   12.7751  -15.7732 C   0  0  0  0  0  0  0  0  0  0  0  0
   40.1810   13.2687  -15.5687 C   0  0  0  0  0  0  0  0  0  0  0  0
   37.3211   11.0775  -16.4873 N   0  0  0  0  0  0  0  0  0  0  0  0
   36.8440   10.7811  -17.7998 C   0  0  0  0  0  0  0  0  0  0  0  0
   35.4989   11.3299  -17.3681 C   0  0  0  0  0  0  0  0  0  0  0  0
   36.3298   12.0732  -16.3240 C   0  0  0  0  0  0  0  0  0  0  0  0
   44.6803   17.1994   -9.3558 C   0  0  0  0  0  0  0  0  0  0  0  0
   43.7406   16.7046  -10.4280 C   0  0  0  0  0  0  0  0  0  0  0  0
   44.0698   16.8500  -11.7350 C   0  0  0  0  0  0  0  0  0  0  0  0
   43.1579   16.4175  -12.7304 C   0  0  0  0  0  0  0  0  0  0  0  0
   41.9407   15.8523  -12.3518 C   0  0  0  0  0  0  0  0  0  0  0  0
   41.7047   15.7539  -10.9659 C   0  0  0  0  0  0  0  0  0  0  0  0
   42.5522   16.1516  -10.0253 C   0  0  0  0  0  0  0  0  0  0  0  0
 18 19  2  0  0  0
 19 17  1  0  0  0
 17  1  1  0  0  0
  1  2  1  0  0  0
  2  3  1  0  0  0
  3  4  2  0  0  0
  3  5  1  0  0  0
  5  6  1  0  0  0
  6 20  1  0  0  0
 20 21  1  0  0  0
 21 22  2  0  0  0
 22 23  1  0  0  0
 23 24  2  0  0  0
 24 25  1  0  0  0
 24 26  1  0  0  0
 26 27  2  0  0  0
  6  7  1  0  0  0
  7  8  2  0  0  0
  7  9  1  0  0  0
  9 29  1  0  0  0
 29 30  1  0  0  0
 30 31  2  0  0  0
 31 32  1  0  0  0
 32 33  2  0  0  0
 33 34  1  0  0  0
 34 35  1  0  0  0
 35 40  1  0  0  0
 40 41  2  0  0  0
 40 42  1  0  0  0
 42 44  1  0  0  0
 44 45  2  0  0  0
 45 46  1  0  0  0
 46 47  2  0  0  0
 47 50  1  0  0  0
 50 51  1  0  0  0
 51 52  1  0  0  0
 52 53  1  0  0  0
 53 56  1  0  0  0
 56 57  1  0  0  0
 57 58  1  0  0  0
 58 59  1  0  0  0
 53 54  1  0  0  0
 54 55  1  0  0  0
 47 48  1  0  0  0
 48 49  2  0  0  0
 35 36  2  0  0  0
 36 37  1  0  0  0
 37 38  1  0  0  0
 37 39  1  0  0  0
  9 10  1  0  0  0
 10 11  1  0  0  0
 11 12  1  0  0  0
 12 13  1  0  0  0
 13 14  2  0  0  0
 13 15  1  0  0  0
 15 60  1  0  0  0
 60 61  1  0  0  0
 61 62  2  0  0  0
 62 63  1  0  0  0
 63 64  2  0  0  0
 64 65  1  0  0  0
 65 66  2  0  0  0
 12  1  1  0  0  0
 66 61  1  0  0  0
 11  5  1  0  0  0
 27 21  1  0  0  0
 39 30  1  0  0  0
 39 34  2  0  0  0
 49 44  1  0  0  0
 55 50  1  0  0  0
 59 56  1  0  0  0
 25 28  1  0  0  0
 42 43  1  0  0  0
 15 16  1  0  0  0
M  END
> <minimizedAffinity>
-9.57924

> <CNNscore>
0.0582831018

> <CNNaffinity>
6.8630218506

> <CNN_VS>
0.3999981880

> <CNNaffinity_variance>
1.0431201458

$$$$
[H]Oc1c([H])c([H])c(C([H])([H])[C@@]2([H])C(=O)N(C([H])([H])c3c([H])c([H])c([H])c4c(C(=O)N([H])c5c([H])nc(N6C([H])([H])C([H])([H])C([H])(N7C([H])([H])C([H])([H])C7([H])[H])C([H])([H])C6([H])[H])c([H])c5[H])c([H])n(C([H])([H])[H])c34)C([H])([H])[C@]3([H])N(C(=O)N([H])C([H])([H])c4c([H])c([H])c([H])c([H])c4[H])N(C([H])([H])C([H])=C([H])[H])C([H])([H])C(=O)N23)c([H])c1[H]


 66 74  0  0  0  0  0  0  0  0999 V2000
   37.9592   14.3096   -5.5732 N   0  0  0  0  0  0  0  0  0  0  0  0
   37.5639   13.8566   -4.2517 C   0  0  0  0  0  0  0  0  0  0  0  0
   37.9970   15.0168   -3.3713 C   0  0  0  0  0  0  0  0  0  0  0  0
   38.7006   14.7418   -2.3826 O   0  0  0  0  0  0  0  0  0  0  0  0
   37.5909   16.3098   -3.7013 N   0  0  0  0  0  0  0  0  0  0  0  0
   37.4888   17.3256   -2.6927 C   0  0  0  0  0  0  0  0  0  0  0  0
   35.9944   17.4514   -2.5104 C   0  0  0  0  0  0  0  0  0  0  0  0
   35.5005   17.5508   -1.4002 O   0  0  0  0  0  0  0  0  0  0  0  0
   35.2031   17.4500   -3.6760 N   0  0  0  0  0  0  0  0  0  0  0  0
   35.7851   17.2440   -5.0247 C   0  0  0  0  0  0  0  0  0  0  0  0
   37.1545   16.6505   -5.0294 C   0  0  0  0  0  0  0  0  0  0  0  0
   37.3906   15.5505   -5.9362 N   0  0  0  0  0  0  0  0  0  0  0  0
   37.0751   15.6617   -7.3259 C   0  0  0  0  0  0  0  0  0  0  0  0
   37.2601   14.6197   -8.0407 O   0  0  0  0  0  0  0  0  0  0  0  0
   36.5871   16.7876   -8.0003 N   0  0  0  0  0  0  0  0  0  0  0  0
   36.4170   17.6664   -7.5106 H   0  0  0  0  0  0  0  0  0  0  0  0
   39.4120   14.3621   -5.5076 C   0  0  0  0  0  0  0  0  0  0  0  0
   40.4391   13.6142   -7.5759 C   0  0  0  0  0  0  0  0  0  0  0  0
   40.0712   14.5766   -6.7735 C   0  0  0  0  0  0  0  0  0  0  0  0
   38.1142   18.6347   -2.9285 C   0  0  0  0  0  0  0  0  0  0  0  0
   39.5746   18.7501   -2.9303 C   0  0  0  0  0  0  0  0  0  0  0  0
   40.3030   18.4924   -4.0931 C   0  0  0  0  0  0  0  0  0  0  0  0
   41.6808   18.5341   -4.0858 C   0  0  0  0  0  0  0  0  0  0  0  0
   42.4103   18.8254   -2.9505 C   0  0  0  0  0  0  0  0  0  0  0  0
   43.7907   18.8536   -3.0118 O   0  0  0  0  0  0  0  0  0  0  0  0
   41.7013   19.0769   -1.8092 C   0  0  0  0  0  0  0  0  0  0  0  0
   40.3070   19.0386   -1.8008 C   0  0  0  0  0  0  0  0  0  0  0  0
   44.3058   18.6674   -3.8654 H   0  0  0  0  0  0  0  0  0  0  0  0
   33.7482   17.6127   -3.6766 C   0  0  0  0  0  0  0  0  0  0  0  0
   33.1457   16.5671   -4.5091 C   0  0  0  0  0  0  0  0  0  0  0  0
   33.3565   15.2361   -4.2601 C   0  0  0  0  0  0  0  0  0  0  0  0
   32.8383   14.2437   -5.0743 C   0  0  0  0  0  0  0  0  0  0  0  0
   32.0797   14.5855   -6.1788 C   0  0  0  0  0  0  0  0  0  0  0  0
   31.8562   15.9429   -6.4420 C   0  0  0  0  0  0  0  0  0  0  0  0
   31.1506   16.5676   -7.4151 C   0  0  0  0  0  0  0  0  0  0  0  0
   31.2488   17.9081   -7.1741 C   0  0  0  0  0  0  0  0  0  0  0  0
   31.9956   18.1496   -6.0823 N   0  0  0  0  0  0  0  0  0  0  0  0
   32.3123   19.4425   -5.5283 C   0  0  0  0  0  0  0  0  0  0  0  0
   32.3838   16.9282   -5.6161 C   0  0  0  0  0  0  0  0  0  0  0  0
   30.4081   15.9842   -8.5849 C   0  0  0  0  0  0  0  0  0  0  0  0
   29.1660   15.8643   -8.5212 O   0  0  0  0  0  0  0  0  0  0  0  0
   31.1930   15.6171   -9.6935 N   0  0  0  0  0  0  0  0  0  0  0  0
   30.0183   15.4958  -10.4084 H   0  0  0  0  0  0  0  0  0  0  0  0
   31.9047   15.2713  -10.7306 C   0  0  0  0  0  0  0  0  0  0  0  0
   31.3471   14.4429  -11.7263 C   0  0  0  0  0  0  0  0  0  0  0  0
   32.0090   14.0316  -12.8229 C   0  0  0  0  0  0  0  0  0  0  0  0
   33.3144   14.4333  -12.9914 C   0  0  0  0  0  0  0  0  0  0  0  0
   33.9203   15.2275  -12.0797 N   0  0  0  0  0  0  0  0  0  0  0  0
   33.2436   15.6408  -10.9834 C   0  0  0  0  0  0  0  0  0  0  0  0
   34.0936   13.9891  -14.1061 N   0  0  0  0  0  0  0  0  0  0  0  0
   35.0162   14.9116  -14.7204 C   0  0  0  0  0  0  0  0  0  0  0  0
   36.3037   14.3359  -15.1826 C   0  0  0  0  0  0  0  0  0  0  0  0
   36.3878   12.8503  -15.1780 C   0  0  0  0  0  0  0  0  0  0  0  0
   35.0473   12.1753  -15.4497 C   0  0  0  0  0  0  0  0  0  0  0  0
   33.9277   12.6556  -14.6127 C   0  0  0  0  0  0  0  0  0  0  0  0
   37.3228   12.2791  -16.0810 N   0  0  0  0  0  0  0  0  0  0  0  0
   36.9081   11.1272  -16.8153 C   0  0  0  0  0  0  0  0  0  0  0  0
   38.3638   10.7079  -16.8604 C   0  0  0  0  0  0  0  0  0  0  0  0
   38.4828   11.6064  -15.6309 C   0  0  0  0  0  0  0  0  0  0  0  0
   36.3134   16.7547   -9.4343 C   0  0  0  0  0  0  0  0  0  0  0  0
   37.5842   16.4970  -10.2065 C   0  0  0  0  0  0  0  0  0  0  0  0
   37.5729   15.6467  -11.2622 C   0  0  0  0  0  0  0  0  0  0  0  0
   38.7833   15.3835  -11.9515 C   0  0  0  0  0  0  0  0  0  0  0  0
   39.9625   15.9997  -11.5344 C   0  0  0  0  0  0  0  0  0  0  0  0
   39.8552   16.8616  -10.4245 C   0  0  0  0  0  0  0  0  0  0  0  0
   38.7274   17.1186   -9.7741 C   0  0  0  0  0  0  0  0  0  0  0  0
 18 19  2  0  0  0
 19 17  1  0  0  0
 17  1  1  0  0  0
  1  2  1  0  0  0
  2  3  1  0  0  0
  3  4  2  0  0  0
  3  5  1  0  0  0
  5  6  1  0  0  0
  6 20  1  0  0  0
 20 21  1  0  0  0
 21 22  2  0  0  0
 22 23  1  0  0  0
 23 24  2  0  0  0
 24 25  1  0  0  0
 24 26  1  0  0  0
 26 27  2  0  0  0
  6  7  1  0  0  0
  7  8  2  0  0  0
  7  9  1  0  0  0
  9 29  1  0  0  0
 29 30  1  0  0  0
 30 31  2  0  0  0
 31 32  1  0  0  0
 32 33  2  0  0  0
 33 34  1  0  0  0
 34 35  1  0  0  0
 35 40  1  0  0  0
 40 41  2  0  0  0
 40 42  1  0  0  0
 42 44  1  0  0  0
 44 45  2  0  0  0
 45 46  1  0  0  0
 46 47  2  0  0  0
 47 50  1  0  0  0
 50 51  1  0  0  0
 51 52  1  0  0  0
 52 53  1  0  0  0
 53 56  1  0  0  0
 56 57  1  0  0  0
 57 58  1  0  0  0
 58 59  1  0  0  0
 53 54  1  0  0  0
 54 55  1  0  0  0
 47 48  1  0  0  0
 48 49  2  0  0  0
 35 36  2  0  0  0
 36 37  1  0  0  0
 37 38  1  0  0  0
 37 39  1  0  0  0
  9 10  1  0  0  0
 10 11  1  0  0  0
 11 12  1  0  0  0
 12 13  1  0  0  0
 13 14  2  0  0  0
 13 15  1  0  0  0
 15 60  1  0  0  0
 60 61  1  0  0  0
 61 62  2  0  0  0
 62 63  1  0  0  0
 63 64  2  0  0  0
 64 65  1  0  0  0
 65 66  2  0  0  0
 12  1  1  0  0  0
 66 61  1  0  0  0
 11  5  1  0  0  0
 27 21  1  0  0  0
 39 30  1  0  0  0
 39 34  2  0  0  0
 49 44  1  0  0  0
 55 50  1  0  0  0
 59 56  1  0  0  0
 25 28  1  0  0  0
 42 43  1  0  0  0
 15 16  1  0  0  0
M  END
> <minimizedAffinity>
-8.10666

> <CNNscore>
0.0569508411

> <CNNaffinity>
7.2999863625

> <CNN_VS>
0.4157403708

> <CNNaffinity_variance>
0.5644418597

$$$$
[H]Oc1c([H])c([H])c(C([H])([H])[C@@]2([H])C(=O)N(C([H])([H])c3c([H])c([H])c([H])c4c(C(=O)N([H])c5c([H])nc(N6C([H])([H])C([H])([H])C([H])(N7C([H])([H])C([H])([H])C7([H])[H])C([H])([H])C6([H])[H])c([H])c5[H])c([H])n(C([H])([H])[H])c34)C([H])([H])[C@]3([H])N(C(=O)N([H])C([H])([H])c4c([H])c([H])c([H])c([H])c4[H])N(C([H])([H])C([H])=C([H])[H])C([H])([H])C(=O)N23)c([H])c1[H]


 66 74  0  0  0  0  0  0  0  0999 V2000
   41.8244   14.3582   -6.7703 N   0  0  0  0  0  0  0  0  0  0  0  0
   41.5545   15.5967   -7.4782 C   0  0  0  0  0  0  0  0  0  0  0  0
   41.8699   16.6447   -6.4243 C   0  0  0  0  0  0  0  0  0  0  0  0
   41.0000   17.5084   -6.2105 O   0  0  0  0  0  0  0  0  0  0  0  0
   43.0962   16.5954   -5.7614 N   0  0  0  0  0  0  0  0  0  0  0  0
   43.6709   17.7819   -5.1946 C   0  0  0  0  0  0  0  0  0  0  0  0
   44.7860   18.0963   -6.1641 C   0  0  0  0  0  0  0  0  0  0  0  0
   44.9997   19.2392   -6.5307 O   0  0  0  0  0  0  0  0  0  0  0  0
   45.5637   17.0139   -6.6209 N   0  0  0  0  0  0  0  0  0  0  0  0
   45.2591   15.6108   -6.2489 C   0  0  0  0  0  0  0  0  0  0  0  0
   43.8832   15.3917   -5.7138 C   0  0  0  0  0  0  0  0  0  0  0  0
   43.1372   14.2790   -6.2554 N   0  0  0  0  0  0  0  0  0  0  0  0
   43.6939   12.9627   -6.2812 C   0  0  0  0  0  0  0  0  0  0  0  0
   42.9881   12.0527   -6.8333 O   0  0  0  0  0  0  0  0  0  0  0  0
   44.9290   12.5509   -5.7658 N   0  0  0  0  0  0  0  0  0  0  0  0
   45.5551   13.2085   -5.3007 H   0  0  0  0  0  0  0  0  0  0  0  0
   40.8139   14.3233   -5.7238 C   0  0  0  0  0  0  0  0  0  0  0  0
   38.4612   13.8634   -6.1051 C   0  0  0  0  0  0  0  0  0  0  0  0
   39.6946   13.4510   -5.9872 C   0  0  0  0  0  0  0  0  0  0  0  0
   44.1567   17.7505   -3.8076 C   0  0  0  0  0  0  0  0  0  0  0  0
   44.7161   18.9647   -3.2084 C   0  0  0  0  0  0  0  0  0  0  0  0
   43.9255   20.1045   -3.0507 C   0  0  0  0  0  0  0  0  0  0  0  0
   44.4621   21.2709   -2.5490 C   0  0  0  0  0  0  0  0  0  0  0  0
   45.7882   21.3819   -2.1812 C   0  0  0  0  0  0  0  0  0  0  0  0
   46.2626   22.5802   -1.6823 O   0  0  0  0  0  0  0  0  0  0  0  0
   46.5664   20.2687   -2.3353 C   0  0  0  0  0  0  0  0  0  0  0  0
   46.0379   19.0812   -2.8414 C   0  0  0  0  0  0  0  0  0  0  0  0
   45.6747   23.3990   -1.5704 H   0  0  0  0  0  0  0  0  0  0  0  0
   46.7094   17.1532   -7.5215 C   0  0  0  0  0  0  0  0  0  0  0  0
   46.2759   16.8951   -8.8981 C   0  0  0  0  0  0  0  0  0  0  0  0
   45.2464   17.5935   -9.4729 C   0  0  0  0  0  0  0  0  0  0  0  0
   44.7933   17.3176  -10.7515 C   0  0  0  0  0  0  0  0  0  0  0  0
   45.3861   16.3096  -11.4897 C   0  0  0  0  0  0  0  0  0  0  0  0
   46.4405   15.5904  -10.9127 C   0  0  0  0  0  0  0  0  0  0  0  0
   47.2129   14.5852  -11.3904 C   0  0  0  0  0  0  0  0  0  0  0  0
   48.1103   14.2773  -10.4084 C   0  0  0  0  0  0  0  0  0  0  0  0
   47.9274   15.0535   -9.3256 N   0  0  0  0  0  0  0  0  0  0  0  0
   48.6885   15.0119   -8.1018 C   0  0  0  0  0  0  0  0  0  0  0  0
   46.8840   15.8780   -9.6275 C   0  0  0  0  0  0  0  0  0  0  0  0
   47.1435   13.8677  -12.7096 C   0  0  0  0  0  0  0  0  0  0  0  0
   48.1945   13.4239  -13.2191 O   0  0  0  0  0  0  0  0  0  0  0  0
   45.8623   13.7420  -13.2774 N   0  0  0  0  0  0  0  0  0  0  0  0
   46.4089   12.8321  -14.1600 H   0  0  0  0  0  0  0  0  0  0  0  0
   44.6820   13.6157  -13.8186 C   0  0  0  0  0  0  0  0  0  0  0  0
   43.5287   13.9770  -13.0918 C   0  0  0  0  0  0  0  0  0  0  0  0
   42.2745   13.8732  -13.5672 C   0  0  0  0  0  0  0  0  0  0  0  0
   42.0928   13.3794  -14.8389 C   0  0  0  0  0  0  0  0  0  0  0  0
   43.1491   13.0102  -15.5985 N   0  0  0  0  0  0  0  0  0  0  0  0
   44.4070   13.1247  -15.1132 C   0  0  0  0  0  0  0  0  0  0  0  0
   40.7844   13.1918  -15.3864 N   0  0  0  0  0  0  0  0  0  0  0  0
   40.6590   12.8103  -16.7714 C   0  0  0  0  0  0  0  0  0  0  0  0
   39.5733   11.8492  -17.0876 C   0  0  0  0  0  0  0  0  0  0  0  0
   38.6020   11.5856  -15.9916 C   0  0  0  0  0  0  0  0  0  0  0  0
   38.3862   12.7908  -15.0819 C   0  0  0  0  0  0  0  0  0  0  0  0
   39.6249   13.4123  -14.5681 C   0  0  0  0  0  0  0  0  0  0  0  0
   37.3147   11.1442  -16.3964 N   0  0  0  0  0  0  0  0  0  0  0  0
   37.1418   10.7934  -17.7695 C   0  0  0  0  0  0  0  0  0  0  0  0
   35.6857   11.1872  -17.6229 C   0  0  0  0  0  0  0  0  0  0  0  0
   36.2067   12.0215  -16.4544 C   0  0  0  0  0  0  0  0  0  0  0  0
   45.3664   11.1609   -5.8612 C   0  0  0  0  0  0  0  0  0  0  0  0
   46.3055   10.9840   -7.0292 C   0  0  0  0  0  0  0  0  0  0  0  0
   45.8322   10.5245   -8.2134 C   0  0  0  0  0  0  0  0  0  0  0  0
   46.7344   10.3246   -9.2884 C   0  0  0  0  0  0  0  0  0  0  0  0
   48.0895   10.6016   -9.1120 C   0  0  0  0  0  0  0  0  0  0  0  0
   48.4678   11.0717   -7.8384 C   0  0  0  0  0  0  0  0  0  0  0  0
   47.6319   11.2662   -6.8262 C   0  0  0  0  0  0  0  0  0  0  0  0
 18 19  2  0  0  0
 19 17  1  0  0  0
 17  1  1  0  0  0
  1  2  1  0  0  0
  2  3  1  0  0  0
  3  4  2  0  0  0
  3  5  1  0  0  0
  5  6  1  0  0  0
  6 20  1  0  0  0
 20 21  1  0  0  0
 21 22  2  0  0  0
 22 23  1  0  0  0
 23 24  2  0  0  0
 24 25  1  0  0  0
 24 26  1  0  0  0
 26 27  2  0  0  0
  6  7  1  0  0  0
  7  8  2  0  0  0
  7  9  1  0  0  0
  9 29  1  0  0  0
 29 30  1  0  0  0
 30 31  2  0  0  0
 31 32  1  0  0  0
 32 33  2  0  0  0
 33 34  1  0  0  0
 34 35  1  0  0  0
 35 40  1  0  0  0
 40 41  2  0  0  0
 40 42  1  0  0  0
 42 44  1  0  0  0
 44 45  2  0  0  0
 45 46  1  0  0  0
 46 47  2  0  0  0
 47 50  1  0  0  0
 50 51  1  0  0  0
 51 52  1  0  0  0
 52 53  1  0  0  0
 53 56  1  0  0  0
 56 57  1  0  0  0
 57 58  1  0  0  0
 58 59  1  0  0  0
 53 54  1  0  0  0
 54 55  1  0  0  0
 47 48  1  0  0  0
 48 49  2  0  0  0
 35 36  2  0  0  0
 36 37  1  0  0  0
 37 38  1  0  0  0
 37 39  1  0  0  0
  9 10  1  0  0  0
 10 11  1  0  0  0
 11 12  1  0  0  0
 12 13  1  0  0  0
 13 14  2  0  0  0
 13 15  1  0  0  0
 15 60  1  0  0  0
 60 61  1  0  0  0
 61 62  2  0  0  0
 62 63  1  0  0  0
 63 64  2  0  0  0
 64 65  1  0  0  0
 65 66  2  0  0  0
 12  1  1  0  0  0
 66 61  1  0  0  0
 11  5  1  0  0  0
 27 21  1  0  0  0
 39 30  1  0  0  0
 39 34  2  0  0  0
 49 44  1  0  0  0
 55 50  1  0  0  0
 59 56  1  0  0  0
 25 28  1  0  0  0
 42 43  1  0  0  0
 15 16  1  0  0  0
M  END
> <minimizedAffinity>
-7.71634

> <CNNscore>
0.0474277101

> <CNNaffinity>
6.8178186417

> <CNN_VS>
0.3233535290

> <CNNaffinity_variance>
0.5070911646

$$$$
[H]Oc1c([H])c([H])c(C([H])([H])[C@@]2([H])C(=O)N(C([H])([H])c3c([H])c([H])c([H])c4c(C(=O)N([H])c5c([H])nc(N6C([H])([H])C([H])([H])C([H])(N7C([H])([H])C([H])([H])C7([H])[H])C([H])([H])C6([H])[H])c([H])c5[H])c([H])n(C([H])([H])[H])c34)C([H])([H])[C@]3([H])N(C(=O)N([H])C([H])([H])c4c([H])c([H])c([H])c([H])c4[H])N(C([H])([H])C([H])=C([H])[H])C([H])([H])C(=O)N23)c([H])c1[H]


 66 74  0  0  0  0  0  0  0  0999 V2000
   40.6147   15.0750   -6.8768 N   0  0  0  0  0  0  0  0  0  0  0  0
   40.8000   16.4327   -7.3569 C   0  0  0  0  0  0  0  0  0  0  0  0
   41.2069   17.1684   -6.0913 C   0  0  0  0  0  0  0  0  0  0  0  0
   40.5738   18.2027   -5.8126 O   0  0  0  0  0  0  0  0  0  0  0  0
   42.2528   16.6647   -5.3180 N   0  0  0  0  0  0  0  0  0  0  0  0
   43.0216   17.5317   -4.4714 C   0  0  0  0  0  0  0  0  0  0  0  0
   44.3215   17.6563   -5.2311 C   0  0  0  0  0  0  0  0  0  0  0  0
   44.8862   18.7310   -5.3430 O   0  0  0  0  0  0  0  0  0  0  0  0
   44.8483   16.4797   -5.7993 N   0  0  0  0  0  0  0  0  0  0  0  0
   44.1275   15.1846   -5.7426 C   0  0  0  0  0  0  0  0  0  0  0  0
   42.6749   15.2926   -5.4171 C   0  0  0  0  0  0  0  0  0  0  0  0
   41.7587   14.5410   -6.2438 N   0  0  0  0  0  0  0  0  0  0  0  0
   41.9440   13.1406   -6.4620 C   0  0  0  0  0  0  0  0  0  0  0  0
   41.1214   12.5704   -7.2552 O   0  0  0  0  0  0  0  0  0  0  0  0
   42.9261   12.3146   -5.9017 N   0  0  0  0  0  0  0  0  0  0  0  0
   43.6203   12.6829   -5.2511 H   0  0  0  0  0  0  0  0  0  0  0  0
   39.4758   15.1723   -5.9763 C   0  0  0  0  0  0  0  0  0  0  0  0
   37.1880   15.7037   -6.5897 C   0  0  0  0  0  0  0  0  0  0  0  0
   38.1976   14.8753   -6.5772 C   0  0  0  0  0  0  0  0  0  0  0  0
   43.2513   17.1469   -3.0715 C   0  0  0  0  0  0  0  0  0  0  0  0
   44.3666   17.7413   -2.3305 C   0  0  0  0  0  0  0  0  0  0  0  0
   44.2882   19.0567   -1.8694 C   0  0  0  0  0  0  0  0  0  0  0  0
   45.3584   19.6446   -1.2296 C   0  0  0  0  0  0  0  0  0  0  0  0
   46.5502   18.9825   -1.0119 C   0  0  0  0  0  0  0  0  0  0  0  0
   47.5840   19.6292   -0.3614 O   0  0  0  0  0  0  0  0  0  0  0  0
   46.6319   17.6948   -1.4631 C   0  0  0  0  0  0  0  0  0  0  0  0
   45.5576   17.0863   -2.1120 C   0  0  0  0  0  0  0  0  0  0  0  0
   47.5106   20.5845   -0.0290 H   0  0  0  0  0  0  0  0  0  0  0  0
   46.1199   16.4194   -6.5222 C   0  0  0  0  0  0  0  0  0  0  0  0
   45.8597   16.4874   -7.9635 C   0  0  0  0  0  0  0  0  0  0  0  0
   45.0006   17.4114   -8.4984 C   0  0  0  0  0  0  0  0  0  0  0  0
   44.7055   17.4462   -9.8505 C   0  0  0  0  0  0  0  0  0  0  0  0
   45.2869   16.5283  -10.7060 C   0  0  0  0  0  0  0  0  0  0  0  0
   46.1681   15.5804  -10.1704 C   0  0  0  0  0  0  0  0  0  0  0  0
   46.8899   14.5921  -10.7513 C   0  0  0  0  0  0  0  0  0  0  0  0
   47.6028   13.9877   -9.7557 C   0  0  0  0  0  0  0  0  0  0  0  0
   47.3520   14.5606   -8.5653 N   0  0  0  0  0  0  0  0  0  0  0  0
   47.9245   14.1870   -7.2958 C   0  0  0  0  0  0  0  0  0  0  0  0
   46.4540   15.5571   -8.8107 C   0  0  0  0  0  0  0  0  0  0  0  0
   46.9319   14.1545  -12.1889 C   0  0  0  0  0  0  0  0  0  0  0  0
   48.0383   13.9560  -12.7345 O   0  0  0  0  0  0  0  0  0  0  0  0
   45.6855   13.9903  -12.8208 N   0  0  0  0  0  0  0  0  0  0  0  0
   46.3569   13.3529  -13.8448 H   0  0  0  0  0  0  0  0  0  0  0  0
   44.5390   13.8326  -13.4229 C   0  0  0  0  0  0  0  0  0  0  0  0
   43.3432   14.2063  -12.7754 C   0  0  0  0  0  0  0  0  0  0  0  0
   42.1190   14.0725  -13.3167 C   0  0  0  0  0  0  0  0  0  0  0  0
   42.0140   13.5331  -14.5784 C   0  0  0  0  0  0  0  0  0  0  0  0
   43.1148   13.1492  -15.2638 N   0  0  0  0  0  0  0  0  0  0  0  0
   44.3421   13.2940  -14.7129 C   0  0  0  0  0  0  0  0  0  0  0  0
   40.7404   13.3125  -15.1918 N   0  0  0  0  0  0  0  0  0  0  0  0
   40.6956   12.7233  -16.5072 C   0  0  0  0  0  0  0  0  0  0  0  0
   39.5883   11.7670  -16.7564 C   0  0  0  0  0  0  0  0  0  0  0  0
   38.5289   11.7165  -15.7128 C   0  0  0  0  0  0  0  0  0  0  0  0
   38.3094   13.0570  -15.0190 C   0  0  0  0  0  0  0  0  0  0  0  0
   39.5378   13.7033  -14.5110 C   0  0  0  0  0  0  0  0  0  0  0  0
   37.2533   11.2670  -16.1450 N   0  0  0  0  0  0  0  0  0  0  0  0
   37.1153   10.9031  -17.5185 C   0  0  0  0  0  0  0  0  0  0  0  0
   35.6548   11.2932  -17.4114 C   0  0  0  0  0  0  0  0  0  0  0  0
   36.1444   12.1400  -16.2383 C   0  0  0  0  0  0  0  0  0  0  0  0
   42.9898   10.8898   -6.2152 C   0  0  0  0  0  0  0  0  0  0  0  0
   42.9004   10.0688   -4.9521 C   0  0  0  0  0  0  0  0  0  0  0  0
   43.7233    9.0058   -4.7773 C   0  0  0  0  0  0  0  0  0  0  0  0
   43.5987    8.2201   -3.6040 C   0  0  0  0  0  0  0  0  0  0  0  0
   42.6351    8.5504   -2.6519 C   0  0  0  0  0  0  0  0  0  0  0  0
   41.8345    9.6737   -2.9407 C   0  0  0  0  0  0  0  0  0  0  0  0
   41.9446   10.4188   -4.0334 C   0  0  0  0  0  0  0  0  0  0  0  0
 18 19  2  0  0  0
 19 17  1  0  0  0
 17  1  1  0  0  0
  1  2  1  0  0  0
  2  3  1  0  0  0
  3  4  2  0  0  0
  3  5  1  0  0  0
  5  6  1  0  0  0
  6 20  1  0  0  0
 20 21  1  0  0  0
 21 22  2  0  0  0
 22 23  1  0  0  0
 23 24  2  0  0  0
 24 25  1  0  0  0
 24 26  1  0  0  0
 26 27  2  0  0  0
  6  7  1  0  0  0
  7  8  2  0  0  0
  7  9  1  0  0  0
  9 29  1  0  0  0
 29 30  1  0  0  0
 30 31  2  0  0  0
 31 32  1  0  0  0
 32 33  2  0  0  0
 33 34  1  0  0  0
 34 35  1  0  0  0
 35 40  1  0  0  0
 40 41  2  0  0  0
 40 42  1  0  0  0
 42 44  1  0  0  0
 44 45  2  0  0  0
 45 46  1  0  0  0
 46 47  2  0  0  0
 47 50  1  0  0  0
 50 51  1  0  0  0
 51 52  1  0  0  0
 52 53  1  0  0  0
 53 56  1  0  0  0
 56 57  1  0  0  0
 57 58  1  0  0  0
 58 59  1  0  0  0
 53 54  1  0  0  0
 54 55  1  0  0  0
 47 48  1  0  0  0
 48 49  2  0  0  0
 35 36  2  0  0  0
 36 37  1  0  0  0
 37 38  1  0  0  0
 37 39  1  0  0  0
  9 10  1  0  0  0
 10 11  1  0  0  0
 11 12  1  0  0  0
 12 13  1  0  0  0
 13 14  2  0  0  0
 13 15  1  0  0  0
 15 60  1  0  0  0
 60 61  1  0  0  0
 61 62  2  0  0  0
 62 63  1  0  0  0
 63 64  2  0  0  0
 64 65  1  0  0  0
 65 66  2  0  0  0
 12  1  1  0  0  0
 66 61  1  0  0  0
 11  5  1  0  0  0
 27 21  1  0  0  0
 39 30  1  0  0  0
 39 34  2  0  0  0
 49 44  1  0  0  0
 55 50  1  0  0  0
 59 56  1  0  0  0
 25 28  1  0  0  0
 42 43  1  0  0  0
 15 16  1  0  0  0
M  END
> <minimizedAffinity>
-8.20326

> <CNNscore>
0.0448590554

> <CNNaffinity>
6.9634919167

> <CNN_VS>
0.3123756647

> <CNNaffinity_variance>
0.3294220567

$$$$
[H]Oc1c([H])c([H])c(C([H])([H])[C@@]2([H])C(=O)N(C([H])([H])c3c([H])c([H])c([H])c4c(C(=O)N([H])c5c([H])nc(N6C([H])([H])C([H])([H])C([H])(N7C([H])([H])C([H])([H])C7([H])[H])C([H])([H])C6([H])[H])c([H])c5[H])c([H])n(C([H])([H])[H])c34)C([H])([H])[C@]3([H])N(C(=O)N([H])C([H])([H])c4c([H])c([H])c([H])c([H])c4[H])N(C([H])([H])C([H])=C([H])[H])C([H])([H])C(=O)N23)c([H])c1[H]


 66 74  0  0  0  0  0  0  0  0999 V2000
   43.3898   15.5389   -7.3754 N   0  0  0  0  0  0  0  0  0  0  0  0
   43.5488   16.8112   -8.0565 C   0  0  0  0  0  0  0  0  0  0  0  0
   44.5788   17.5140   -7.1883 C   0  0  0  0  0  0  0  0  0  0  0  0
   44.2991   18.6629   -6.8006 O   0  0  0  0  0  0  0  0  0  0  0  0
   45.7681   16.8558   -6.8758 N   0  0  0  0  0  0  0  0  0  0  0  0
   46.9534   17.5978   -6.5535 C   0  0  0  0  0  0  0  0  0  0  0  0
   47.7873   17.4339   -7.8025 C   0  0  0  0  0  0  0  0  0  0  0  0
   48.4011   18.3733   -8.2790 O   0  0  0  0  0  0  0  0  0  0  0  0
   47.8236   16.1523   -8.3866 N   0  0  0  0  0  0  0  0  0  0  0  0
   47.0137   15.0242   -7.8653 C   0  0  0  0  0  0  0  0  0  0  0  0
   45.8889   15.4250   -6.9700 C   0  0  0  0  0  0  0  0  0  0  0  0
   44.5995   14.8253   -7.2265 N   0  0  0  0  0  0  0  0  0  0  0  0
   44.4539   13.4067   -7.3233 C   0  0  0  0  0  0  0  0  0  0  0  0
   43.2897   12.9684   -7.6124 O   0  0  0  0  0  0  0  0  0  0  0  0
   45.4439   12.4347   -7.1336 N   0  0  0  0  0  0  0  0  0  0  0  0
   46.4009   12.6930   -6.8921 H   0  0  0  0  0  0  0  0  0  0  0  0
   42.7942   15.8960   -6.0967 C   0  0  0  0  0  0  0  0  0  0  0  0
   40.6019   14.9645   -6.5643 C   0  0  0  0  0  0  0  0  0  0  0  0
   41.3511   15.9196   -6.0827 C   0  0  0  0  0  0  0  0  0  0  0  0
   47.7152   17.2429   -5.3475 C   0  0  0  0  0  0  0  0  0  0  0  0
   47.0382   17.2025   -4.0489 C   0  0  0  0  0  0  0  0  0  0  0  0
   47.3456   16.2049   -3.1219 C   0  0  0  0  0  0  0  0  0  0  0  0
   46.6664   16.1209   -1.9253 C   0  0  0  0  0  0  0  0  0  0  0  0
   45.6593   16.9991   -1.5783 C   0  0  0  0  0  0  0  0  0  0  0  0
   45.0194   16.8610   -0.3611 O   0  0  0  0  0  0  0  0  0  0  0  0
   45.3539   17.9766   -2.4837 C   0  0  0  0  0  0  0  0  0  0  0  0
   46.0323   18.0746   -3.6985 C   0  0  0  0  0  0  0  0  0  0  0  0
   45.2564   16.1328    0.3038 H   0  0  0  0  0  0  0  0  0  0  0  0
   48.6205   15.8143   -9.5672 C   0  0  0  0  0  0  0  0  0  0  0  0
   47.7652   15.8623  -10.7571 C   0  0  0  0  0  0  0  0  0  0  0  0
   46.9291   16.9201  -11.0020 C   0  0  0  0  0  0  0  0  0  0  0  0
   46.0770   16.9478  -12.0925 C   0  0  0  0  0  0  0  0  0  0  0  0
   46.0544   15.8841  -12.9759 C   0  0  0  0  0  0  0  0  0  0  0  0
   46.9061   14.7983  -12.7364 C   0  0  0  0  0  0  0  0  0  0  0  0
   47.1168   13.6499  -13.4235 C   0  0  0  0  0  0  0  0  0  0  0  0
   48.0822   12.9589  -12.7490 C   0  0  0  0  0  0  0  0  0  0  0  0
   48.4855   13.6324  -11.6573 N   0  0  0  0  0  0  0  0  0  0  0  0
   49.4879   13.2106  -10.7106 C   0  0  0  0  0  0  0  0  0  0  0  0
   47.7556   14.7841  -11.6367 C   0  0  0  0  0  0  0  0  0  0  0  0
   46.4432   13.1403  -14.6671 C   0  0  0  0  0  0  0  0  0  0  0  0
   47.1426   12.6871  -15.5981 O   0  0  0  0  0  0  0  0  0  0  0  0
   45.0379   13.2082  -14.6801 N   0  0  0  0  0  0  0  0  0  0  0  0
   45.0692   12.3930  -15.7936 H   0  0  0  0  0  0  0  0  0  0  0  0
   43.7349   13.2632  -14.7097 C   0  0  0  0  0  0  0  0  0  0  0  0
   43.0342   12.8186  -15.8500 C   0  0  0  0  0  0  0  0  0  0  0  0
   41.6946   12.8456  -15.9699 C   0  0  0  0  0  0  0  0  0  0  0  0
   40.9511   13.3412  -14.9233 C   0  0  0  0  0  0  0  0  0  0  0  0
   41.5499   13.7878  -13.7958 N   0  0  0  0  0  0  0  0  0  0  0  0
   42.8977   13.7503  -13.6827 C   0  0  0  0  0  0  0  0  0  0  0  0
   39.5268   13.4490  -15.0052 N   0  0  0  0  0  0  0  0  0  0  0  0
   38.8116   12.5533  -15.8802 C   0  0  0  0  0  0  0  0  0  0  0  0
   37.5005   12.0655  -15.3843 C   0  0  0  0  0  0  0  0  0  0  0  0
   36.9760   12.7419  -14.1671 C   0  0  0  0  0  0  0  0  0  0  0  0
   37.3916   14.2063  -14.0714 C   0  0  0  0  0  0  0  0  0  0  0  0
   38.8379   14.4555  -14.2471 C   0  0  0  0  0  0  0  0  0  0  0  0
   35.5671   12.7054  -13.9957 N   0  0  0  0  0  0  0  0  0  0  0  0
   34.7941   12.1022  -15.0333 C   0  0  0  0  0  0  0  0  0  0  0  0
   33.6544   13.0169  -14.6316 C   0  0  0  0  0  0  0  0  0  0  0  0
   34.7759   13.8765  -14.0518 C   0  0  0  0  0  0  0  0  0  0  0  0
   45.1450   11.0111   -7.2611 C   0  0  0  0  0  0  0  0  0  0  0  0
   44.7120   10.4434   -5.9315 C   0  0  0  0  0  0  0  0  0  0  0  0
   45.4771   10.6421   -4.8303 C   0  0  0  0  0  0  0  0  0  0  0  0
   45.0777   10.0675   -3.5975 C   0  0  0  0  0  0  0  0  0  0  0  0
   43.9093    9.3089   -3.5366 C   0  0  0  0  0  0  0  0  0  0  0  0
   43.1959    9.1673   -4.7437 C   0  0  0  0  0  0  0  0  0  0  0  0
   43.5578    9.7036   -5.9023 C   0  0  0  0  0  0  0  0  0  0  0  0
 18 19  2  0  0  0
 19 17  1  0  0  0
 17  1  1  0  0  0
  1  2  1  0  0  0
  2  3  1  0  0  0
  3  4  2  0  0  0
  3  5  1  0  0  0
  5  6  1  0  0  0
  6 20  1  0  0  0
 20 21  1  0  0  0
 21 22  2  0  0  0
 22 23  1  0  0  0
 23 24  2  0  0  0
 24 25  1  0  0  0
 24 26  1  0  0  0
 26 27  2  0  0  0
  6  7  1  0  0  0
  7  8  2  0  0  0
  7  9  1  0  0  0
  9 29  1  0  0  0
 29 30  1  0  0  0
 30 31  2  0  0  0
 31 32  1  0  0  0
 32 33  2  0  0  0
 33 34  1  0  0  0
 34 35  1  0  0  0
 35 40  1  0  0  0
 40 41  2  0  0  0
 40 42  1  0  0  0
 42 44  1  0  0  0
 44 45  2  0  0  0
 45 46  1  0  0  0
 46 47  2  0  0  0
 47 50  1  0  0  0
 50 51  1  0  0  0
 51 52  1  0  0  0
 52 53  1  0  0  0
 53 56  1  0  0  0
 56 57  1  0  0  0
 57 58  1  0  0  0
 58 59  1  0  0  0
 53 54  1  0  0  0
 54 55  1  0  0  0
 47 48  1  0  0  0
 48 49  2  0  0  0
 35 36  2  0  0  0
 36 37  1  0  0  0
 37 38  1  0  0  0
 37 39  1  0  0  0
  9 10  1  0  0  0
 10 11  1  0  0  0
 11 12  1  0  0  0
 12 13  1  0  0  0
 13 14  2  0  0  0
 13 15  1  0  0  0
 15 60  1  0  0  0
 60 61  1  0  0  0
 61 62  2  0  0  0
 62 63  1  0  0  0
 63 64  2  0  0  0
 64 65  1  0  0  0
 65 66  2  0  0  0
 12  1  1  0  0  0
 66 61  1  0  0  0
 11  5  1  0  0  0
 27 21  1  0  0  0
 39 30  1  0  0  0
 39 34  2  0  0  0
 49 44  1  0  0  0
 55 50  1  0  0  0
 59 56  1  0  0  0
 25 28  1  0  0  0
 42 43  1  0  0  0
 15 16  1  0  0  0
M  END
> <minimizedAffinity>
-8.38424

> <CNNscore>
0.0359905176

> <CNNaffinity>
6.6906728745

> <CNN_VS>
0.2408007830

> <CNNaffinity_variance>
0.7492822409

$$$$
[H]Oc1c([H])c([H])c(C([H])([H])[C@@]2([H])C(=O)N(C([H])([H])c3c([H])c([H])c([H])c4c(C(=O)N([H])c5c([H])nc(N6C([H])([H])C([H])([H])C([H])(N7C([H])([H])C([H])([H])C7([H])[H])C([H])([H])C6([H])[H])c([H])c5[H])c([H])n(C([H])([H])[H])c34)C([H])([H])[C@]3([H])N(C(=O)N([H])C([H])([H])c4c([H])c([H])c([H])c([H])c4[H])N(C([H])([H])C([H])=C([H])[H])C([H])([H])C(=O)N23)c([H])c1[H]


 66 74  0  0  0  0  0  0  0  0999 V2000
   47.7602   12.0847  -13.5927 N   0  0  0  0  0  0  0  0  0  0  0  0
   48.2482   11.5375  -12.3395 C   0  0  0  0  0  0  0  0  0  0  0  0
   48.4447   12.7872  -11.4979 C   0  0  0  0  0  0  0  0  0  0  0  0
   49.5519   12.9275  -10.9476 O   0  0  0  0  0  0  0  0  0  0  0  0
   47.3960   13.6990  -11.3787 N   0  0  0  0  0  0  0  0  0  0  0  0
   47.3022   14.5626  -10.2363 C   0  0  0  0  0  0  0  0  0  0  0  0
   46.1728   13.9386   -9.4508 C   0  0  0  0  0  0  0  0  0  0  0  0
   46.2392   13.8158   -8.2397 O   0  0  0  0  0  0  0  0  0  0  0  0
   45.0453   13.5093  -10.1784 N   0  0  0  0  0  0  0  0  0  0  0  0
   44.9895   13.5755  -11.6591 C   0  0  0  0  0  0  0  0  0  0  0  0
   46.3144   13.7371  -12.3269 C   0  0  0  0  0  0  0  0  0  0  0  0
   46.5951   12.8698  -13.4480 N   0  0  0  0  0  0  0  0  0  0  0  0
   45.6841   12.7665  -14.5446 C   0  0  0  0  0  0  0  0  0  0  0  0
   45.9841   11.9303  -15.4621 O   0  0  0  0  0  0  0  0  0  0  0  0
   44.4952   13.4818  -14.7336 N   0  0  0  0  0  0  0  0  0  0  0  0
   44.1811   14.1764  -14.0556 H   0  0  0  0  0  0  0  0  0  0  0  0
   48.8865   12.8508  -14.1047 C   0  0  0  0  0  0  0  0  0  0  0  0
   50.6526   11.6140  -15.2199 C   0  0  0  0  0  0  0  0  0  0  0  0
   49.5319   12.2831  -15.2641 C   0  0  0  0  0  0  0  0  0  0  0  0
   47.0839   16.0016  -10.4421 C   0  0  0  0  0  0  0  0  0  0  0  0
   46.7066   16.8467   -9.3064 C   0  0  0  0  0  0  0  0  0  0  0  0
   47.6695   17.2674   -8.3873 C   0  0  0  0  0  0  0  0  0  0  0  0
   47.3120   18.0071   -7.2804 C   0  0  0  0  0  0  0  0  0  0  0  0
   46.0057   18.3682   -7.0171 C   0  0  0  0  0  0  0  0  0  0  0  0
   45.7150   19.1134   -5.8901 O   0  0  0  0  0  0  0  0  0  0  0  0
   45.0593   17.9571   -7.9137 C   0  0  0  0  0  0  0  0  0  0  0  0
   45.4056   17.2083   -9.0384 C   0  0  0  0  0  0  0  0  0  0  0  0
   46.4265   19.4146   -5.2331 H   0  0  0  0  0  0  0  0  0  0  0  0
   43.8483   12.9311   -9.5652 C   0  0  0  0  0  0  0  0  0  0  0  0
   43.0098   14.0094   -9.0322 C   0  0  0  0  0  0  0  0  0  0  0  0
   42.5508   15.0263   -9.8279 C   0  0  0  0  0  0  0  0  0  0  0  0
   41.8065   16.0782   -9.3221 C   0  0  0  0  0  0  0  0  0  0  0  0
   41.5046   16.1221   -7.9733 C   0  0  0  0  0  0  0  0  0  0  0  0
   41.9670   15.0869   -7.1509 C   0  0  0  0  0  0  0  0  0  0  0  0
   41.8134   14.8524   -5.8256 C   0  0  0  0  0  0  0  0  0  0  0  0
   42.4545   13.6771   -5.5567 C   0  0  0  0  0  0  0  0  0  0  0  0
   43.0099   13.1640   -6.6686 N   0  0  0  0  0  0  0  0  0  0  0  0
   43.7618   11.9374   -6.7645 C   0  0  0  0  0  0  0  0  0  0  0  0
   42.7141   14.0378   -7.6728 C   0  0  0  0  0  0  0  0  0  0  0  0
   41.1232   15.6826   -4.7794 C   0  0  0  0  0  0  0  0  0  0  0  0
   41.8095   16.3857   -4.0075 O   0  0  0  0  0  0  0  0  0  0  0  0
   39.7185   15.6060   -4.7582 N   0  0  0  0  0  0  0  0  0  0  0  0
   39.7319   16.7007   -3.9174 H   0  0  0  0  0  0  0  0  0  0  0  0
   38.4157   15.5477   -4.7241 C   0  0  0  0  0  0  0  0  0  0  0  0
   37.7574   14.3182   -4.9332 C   0  0  0  0  0  0  0  0  0  0  0  0
   36.4206   14.1672   -4.9231 C   0  0  0  0  0  0  0  0  0  0  0  0
   35.6360   15.2759   -4.7015 C   0  0  0  0  0  0  0  0  0  0  0  0
   36.1927   16.4908   -4.4935 N   0  0  0  0  0  0  0  0  0  0  0  0
   37.5385   16.6307   -4.4994 C   0  0  0  0  0  0  0  0  0  0  0  0
   34.2078   15.1971   -4.7312 N   0  0  0  0  0  0  0  0  0  0  0  0
   33.4428   16.1730   -3.9951 C   0  0  0  0  0  0  0  0  0  0  0  0
   32.1883   16.6381   -4.6374 C   0  0  0  0  0  0  0  0  0  0  0  0
   31.7512   15.8715   -5.8355 C   0  0  0  0  0  0  0  0  0  0  0  0
   32.1406   14.3980   -5.7766 C   0  0  0  0  0  0  0  0  0  0  0  0
   33.5616   14.1420   -5.4603 C   0  0  0  0  0  0  0  0  0  0  0  0
   30.3624   15.9152   -6.1272 N   0  0  0  0  0  0  0  0  0  0  0  0
   29.9732   15.7786   -7.4939 C   0  0  0  0  0  0  0  0  0  0  0  0
   28.7483   16.6077   -7.1639 C   0  0  0  0  0  0  0  0  0  0  0  0
   29.6093   17.1063   -6.0051 C   0  0  0  0  0  0  0  0  0  0  0  0
   43.6624   13.2726  -15.9147 C   0  0  0  0  0  0  0  0  0  0  0  0
   42.2031   13.2451  -15.5312 C   0  0  0  0  0  0  0  0  0  0  0  0
   41.2925   12.7012  -16.3754 C   0  0  0  0  0  0  0  0  0  0  0  0
   39.9207   12.7203  -16.0189 C   0  0  0  0  0  0  0  0  0  0  0  0
   39.5300   13.2966  -14.8108 C   0  0  0  0  0  0  0  0  0  0  0  0
   40.5620   13.8332  -14.0151 C   0  0  0  0  0  0  0  0  0  0  0  0
   41.8494   13.8176  -14.3365 C   0  0  0  0  0  0  0  0  0  0  0  0
 18 19  2  0  0  0
 19 17  1  0  0  0
 17  1  1  0  0  0
  1  2  1  0  0  0
  2  3  1  0  0  0
  3  4  2  0  0  0
  3  5  1  0  0  0
  5  6  1  0  0  0
  6 20  1  0  0  0
 20 21  1  0  0  0
 21 22  2  0  0  0
 22 23  1  0  0  0
 23 24  2  0  0  0
 24 25  1  0  0  0
 24 26  1  0  0  0
 26 27  2  0  0  0
  6  7  1  0  0  0
  7  8  2  0  0  0
  7  9  1  0  0  0
  9 29  1  0  0  0
 29 30  1  0  0  0
 30 31  2  0  0  0
 31 32  1  0  0  0
 32 33  2  0  0  0
 33 34  1  0  0  0
 34 35  1  0  0  0
 35 40  1  0  0  0
 40 41  2  0  0  0
 40 42  1  0  0  0
 42 44  1  0  0  0
 44 45  2  0  0  0
 45 46  1  0  0  0
 46 47  2  0  0  0
 47 50  1  0  0  0
 50 51  1  0  0  0
 51 52  1  0  0  0
 52 53  1  0  0  0
 53 56  1  0  0  0
 56 57  1  0  0  0
 57 58  1  0  0  0
 58 59  1  0  0  0
 53 54  1  0  0  0
 54 55  1  0  0  0
 47 48  1  0  0  0
 48 49  2  0  0  0
 35 36  2  0  0  0
 36 37  1  0  0  0
 37 38  1  0  0  0
 37 39  1  0  0  0
  9 10  1  0  0  0
 10 11  1  0  0  0
 11 12  1  0  0  0
 12 13  1  0  0  0
 13 14  2  0  0  0
 13 15  1  0  0  0
 15 60  1  0  0  0
 60 61  1  0  0  0
 61 62  2  0  0  0
 62 63  1  0  0  0
 63 64  2  0  0  0
 64 65  1  0  0  0
 65 66  2  0  0  0
 12  1  1  0  0  0
 66 61  1  0  0  0
 11  5  1  0  0  0
 27 21  1  0  0  0
 39 30  1  0  0  0
 39 34  2  0  0  0
 49 44  1  0  0  0
 55 50  1  0  0  0
 59 56  1  0  0  0
 25 28  1  0  0  0
 42 43  1  0  0  0
 15 16  1  0  0  0
M  END
> <minimizedAffinity>
-8.59334

> <CNNscore>
0.0358806066

> <CNNaffinity>
6.4690599442

> <CNN_VS>
0.2321137935

> <CNNaffinity_variance>
0.4301059246

$$$$
[H]Oc1c([H])c([H])c(C([H])([H])[C@@]2([H])C(=O)N(C([H])([H])c3c([H])c([H])c([H])c4c(C(=O)N([H])c5c([H])nc(N6C([H])([H])C([H])([H])C([H])(N7C([H])([H])C([H])([H])C7([H])[H])C([H])([H])C6([H])[H])c([H])c5[H])c([H])n(C([H])([H])[H])c34)C([H])([H])[C@]3([H])N(C(=O)N([H])C([H])([H])c4c([H])c([H])c([H])c([H])c4[H])N(C([H])([H])C([H])=C([H])[H])C([H])([H])C(=O)N23)c([H])c1[H]


 66 74  0  0  0  0  0  0  0  0999 V2000
   43.5875   15.1286   -7.8609 N   0  0  0  0  0  0  0  0  0  0  0  0
   43.4287   16.5131   -8.2683 C   0  0  0  0  0  0  0  0  0  0  0  0
   44.3857   17.2347   -7.3344 C   0  0  0  0  0  0  0  0  0  0  0  0
   43.9300   18.2025   -6.6986 O   0  0  0  0  0  0  0  0  0  0  0  0
   45.7049   16.7924   -7.2375 N   0  0  0  0  0  0  0  0  0  0  0  0
   46.7511   17.6896   -6.8374 C   0  0  0  0  0  0  0  0  0  0  0  0
   47.4711   17.9485   -8.1400 C   0  0  0  0  0  0  0  0  0  0  0  0
   47.8411   19.0695   -8.4444 O   0  0  0  0  0  0  0  0  0  0  0  0
   47.6951   16.8405   -8.9809 N   0  0  0  0  0  0  0  0  0  0  0  0
   47.1747   15.4889   -8.6608 C   0  0  0  0  0  0  0  0  0  0  0  0
   46.0895   15.4645   -7.6366 C   0  0  0  0  0  0  0  0  0  0  0  0
   44.9209   14.6692   -7.9365 N   0  0  0  0  0  0  0  0  0  0  0  0
   45.0428   13.2976   -8.3198 C   0  0  0  0  0  0  0  0  0  0  0  0
   43.9620   12.6896   -8.6251 O   0  0  0  0  0  0  0  0  0  0  0  0
   46.2157   12.5366   -8.3970 N   0  0  0  0  0  0  0  0  0  0  0  0
   47.1242   12.9379   -8.1636 H   0  0  0  0  0  0  0  0  0  0  0  0
   43.0658   15.0991   -6.5028 C   0  0  0  0  0  0  0  0  0  0  0  0
   41.9884   13.0795   -5.6949 C   0  0  0  0  0  0  0  0  0  0  0  0
   41.9288   14.2320   -6.3062 C   0  0  0  0  0  0  0  0  0  0  0  0
   47.6843   17.2759   -5.7798 C   0  0  0  0  0  0  0  0  0  0  0  0
   48.3179   18.2912   -4.9349 C   0  0  0  0  0  0  0  0  0  0  0  0
   47.6280   19.4547   -4.5894 C   0  0  0  0  0  0  0  0  0  0  0  0
   48.2401   20.4443   -3.8503 C   0  0  0  0  0  0  0  0  0  0  0  0
   49.5475   20.3483   -3.4170 C   0  0  0  0  0  0  0  0  0  0  0  0
   50.1009   21.3758   -2.6769 O   0  0  0  0  0  0  0  0  0  0  0  0
   50.2273   19.2113   -3.7543 C   0  0  0  0  0  0  0  0  0  0  0  0
   49.6215   18.2013   -4.5015 C   0  0  0  0  0  0  0  0  0  0  0  0
   49.5855   22.2139   -2.4308 H   0  0  0  0  0  0  0  0  0  0  0  0
   48.4195   16.9115  -10.2511 C   0  0  0  0  0  0  0  0  0  0  0  0
   47.4894   16.6463  -11.3530 C   0  0  0  0  0  0  0  0  0  0  0  0
   46.4220   17.4667  -11.6089 C   0  0  0  0  0  0  0  0  0  0  0  0
   45.5068   17.1931  -12.6108 C   0  0  0  0  0  0  0  0  0  0  0  0
   45.6574   16.0610  -13.3906 C   0  0  0  0  0  0  0  0  0  0  0  0
   46.7459   15.2162  -13.1391 C   0  0  0  0  0  0  0  0  0  0  0  0
   47.1566   14.0733  -13.7391 C   0  0  0  0  0  0  0  0  0  0  0  0
   48.2996   13.6827  -13.1021 C   0  0  0  0  0  0  0  0  0  0  0  0
   48.6217   14.5405  -12.1178 N   0  0  0  0  0  0  0  0  0  0  0  0
   49.7604   14.4484  -11.2382 C   0  0  0  0  0  0  0  0  0  0  0  0
   47.6561   15.5034  -12.1290 C   0  0  0  0  0  0  0  0  0  0  0  0
   46.5239   13.3002  -14.8625 C   0  0  0  0  0  0  0  0  0  0  0  0
   47.2542   12.6727  -15.6588 O   0  0  0  0  0  0  0  0  0  0  0  0
   45.1188   13.3390  -14.9240 N   0  0  0  0  0  0  0  0  0  0  0  0
   45.1907   12.3072  -15.8382 H   0  0  0  0  0  0  0  0  0  0  0  0
   43.8165   13.3634  -14.9964 C   0  0  0  0  0  0  0  0  0  0  0  0
   43.0539   13.7676  -13.8810 C   0  0  0  0  0  0  0  0  0  0  0  0
   41.7096   13.8157  -13.8641 C   0  0  0  0  0  0  0  0  0  0  0  0
   41.0246   13.4440  -14.9984 C   0  0  0  0  0  0  0  0  0  0  0  0
   41.6847   13.0433  -16.1087 N   0  0  0  0  0  0  0  0  0  0  0  0
   43.0372   13.0047  -16.1174 C   0  0  0  0  0  0  0  0  0  0  0  0
   39.5945   13.4196  -15.0319 N   0  0  0  0  0  0  0  0  0  0  0  0
   38.9360   12.4721  -15.8969 C   0  0  0  0  0  0  0  0  0  0  0  0
   37.6936   11.8581  -15.3660 C   0  0  0  0  0  0  0  0  0  0  0  0
   37.1503   12.4673  -14.1218 C   0  0  0  0  0  0  0  0  0  0  0  0
   37.4313   13.9628  -14.0170 C   0  0  0  0  0  0  0  0  0  0  0  0
   38.8414   14.3479  -14.2360 C   0  0  0  0  0  0  0  0  0  0  0  0
   35.7575   12.2974  -13.9049 N   0  0  0  0  0  0  0  0  0  0  0  0
   34.9088   12.2973  -15.0528 C   0  0  0  0  0  0  0  0  0  0  0  0
   33.8047   12.8277  -14.1603 C   0  0  0  0  0  0  0  0  0  0  0  0
   34.9686   13.2974  -13.2898 C   0  0  0  0  0  0  0  0  0  0  0  0
   46.1859   11.1340   -8.8022 C   0  0  0  0  0  0  0  0  0  0  0  0
   47.5686   10.6683   -9.1879 C   0  0  0  0  0  0  0  0  0  0  0  0
   48.2858   11.3653  -10.1030 C   0  0  0  0  0  0  0  0  0  0  0  0
   49.5662   10.8919  -10.4850 C   0  0  0  0  0  0  0  0  0  0  0  0
   50.0662    9.7208   -9.9168 C   0  0  0  0  0  0  0  0  0  0  0  0
   49.2324    9.0790   -8.9793 C   0  0  0  0  0  0  0  0  0  0  0  0
   48.0342    9.5147   -8.6112 C   0  0  0  0  0  0  0  0  0  0  0  0
 18 19  2  0  0  0
 19 17  1  0  0  0
 17  1  1  0  0  0
  1  2  1  0  0  0
  2  3  1  0  0  0
  3  4  2  0  0  0
  3  5  1  0  0  0
  5  6  1  0  0  0
  6 20  1  0  0  0
 20 21  1  0  0  0
 21 22  2  0  0  0
 22 23  1  0  0  0
 23 24  2  0  0  0
 24 25  1  0  0  0
 24 26  1  0  0  0
 26 27  2  0  0  0
  6  7  1  0  0  0
  7  8  2  0  0  0
  7  9  1  0  0  0
  9 29  1  0  0  0
 29 30  1  0  0  0
 30 31  2  0  0  0
 31 32  1  0  0  0
 32 33  2  0  0  0
 33 34  1  0  0  0
 34 35  1  0  0  0
 35 40  1  0  0  0
 40 41  2  0  0  0
 40 42  1  0  0  0
 42 44  1  0  0  0
 44 45  2  0  0  0
 45 46  1  0  0  0
 46 47  2  0  0  0
 47 50  1  0  0  0
 50 51  1  0  0  0
 51 52  1  0  0  0
 52 53  1  0  0  0
 53 56  1  0  0  0
 56 57  1  0  0  0
 57 58  1  0  0  0
 58 59  1  0  0  0
 53 54  1  0  0  0
 54 55  1  0  0  0
 47 48  1  0  0  0
 48 49  2  0  0  0
 35 36  2  0  0  0
 36 37  1  0  0  0
 37 38  1  0  0  0
 37 39  1  0  0  0
  9 10  1  0  0  0
 10 11  1  0  0  0
 11 12  1  0  0  0
 12 13  1  0  0  0
 13 14  2  0  0  0
 13 15  1  0  0  0
 15 60  1  0  0  0
 60 61  1  0  0  0
 61 62  2  0  0  0
 62 63  1  0  0  0
 63 64  2  0  0  0
 64 65  1  0  0  0
 65 66  2  0  0  0
 12  1  1  0  0  0
 66 61  1  0  0  0
 11  5  1  0  0  0
 27 21  1  0  0  0
 39 30  1  0  0  0
 39 34  2  0  0  0
 49 44  1  0  0  0
 55 50  1  0  0  0
 59 56  1  0  0  0
 25 28  1  0  0  0
 42 43  1  0  0  0
 15 16  1  0  0  0
M  END
> <minimizedAffinity>
-7.46040

> <CNNscore>
0.0344667211

> <CNNaffinity>
6.9627814293

> <CNN_VS>
0.2399842441

> <CNNaffinity_variance>
0.5311805010

$$$$
[H]c1nc(Oc2c([H])c([H])c(C(=O)N([H])C([H])([H])C([H])([H])N3C([H])([H])C([H])([H])C([H])([H])C3([H])[H])c([H])c2[H])c(N([H])S(=O)(=O)c2c([H])c([H])c(Cl)c(Cl)c2[H])c([H])c1Cl


 38 41  0  0  0  0  0  0  0  0999 V2000
   41.2873   13.8413  -14.8077 C   0  0  0  0  0  0  0  0  0  0  0  0
   42.1681   13.8577  -13.7911 N   0  0  0  0  0  0  0  0  0  0  0  0
   43.4228   13.4247  -13.9445 C   0  0  0  0  0  0  0  0  0  0  0  0
   43.8144   12.9571  -15.1608 C   0  0  0  0  0  0  0  0  0  0  0  0
   45.4645   12.3903  -15.3518 Cl  0  0  0  0  0  0  0  0  0  0  0  0
   42.9121   12.9313  -16.2350 C   0  0  0  0  0  0  0  0  0  0  0  0
   41.6265   13.3801  -16.0567 C   0  0  0  0  0  0  0  0  0  0  0  0
   40.6549   13.4149  -17.0831 N   0  0  0  0  0  0  0  0  0  0  0  0
   40.3444   14.3392  -17.5050 H   0  0  0  0  0  0  0  0  0  0  0  0
   39.9667   11.9532  -17.6576 S   0  0  0  0  0  0  0  0  0  0  0  0
   40.0407   11.9517  -19.1791 O   0  0  0  0  0  0  0  0  0  0  0  0
   40.8274   10.8090  -17.1270 O   0  0  0  0  0  0  0  0  0  0  0  0
   38.3341   11.6702  -17.1828 C   0  0  0  0  0  0  0  0  0  0  0  0
   37.5176   10.7911  -17.9026 C   0  0  0  0  0  0  0  0  0  0  0  0
   36.2307   10.6036  -17.4873 C   0  0  0  0  0  0  0  0  0  0  0  0
   35.7345   11.2659  -16.3770 C   0  0  0  0  0  0  0  0  0  0  0  0
   34.0873   11.0167  -15.8600 Cl  0  0  0  0  0  0  0  0  0  0  0  0
   36.5415   12.1395  -15.6598 C   0  0  0  0  0  0  0  0  0  0  0  0
   35.8769   12.9530  -14.2678 Cl  0  0  0  0  0  0  0  0  0  0  0  0
   37.8510   12.3315  -16.0805 C   0  0  0  0  0  0  0  0  0  0  0  0
   39.9922   14.3120  -14.5669 O   0  0  0  0  0  0  0  0  0  0  0  0
   38.9151   16.0602  -10.9080 C   0  0  0  0  0  0  0  0  0  0  0  0
   40.1659   16.3209  -11.4877 C   0  0  0  0  0  0  0  0  0  0  0  0
   40.5113   15.7386  -12.6943 C   0  0  0  0  0  0  0  0  0  0  0  0
   39.6529   14.8959  -13.3592 C   0  0  0  0  0  0  0  0  0  0  0  0
   38.4355   14.6565  -12.7711 C   0  0  0  0  0  0  0  0  0  0  0  0
   38.0656   15.2263  -11.5647 C   0  0  0  0  0  0  0  0  0  0  0  0
   39.4072   16.6707   -8.6745 O   0  0  0  0  0  0  0  0  0  0  0  0
   38.5662   16.6931   -9.6455 C   0  0  0  0  0  0  0  0  0  0  0  0
   37.3333   17.3406   -9.4285 N   0  0  0  0  0  0  0  0  0  0  0  0
   36.6627   17.3442  -10.2359 H   0  0  0  0  0  0  0  0  0  0  0  0
   36.9077   17.9866   -8.2197 C   0  0  0  0  0  0  0  0  0  0  0  0
   35.4544   17.6858   -7.9758 C   0  0  0  0  0  0  0  0  0  0  0  0
   35.1727   16.3135   -8.2844 N   0  0  0  0  0  0  0  0  0  0  0  0
   34.0173   16.0823   -9.0817 C   0  0  0  0  0  0  0  0  0  0  0  0
   32.9480   15.5001   -8.1723 C   0  0  0  0  0  0  0  0  0  0  0  0
   33.7623   14.8406   -7.0961 C   0  0  0  0  0  0  0  0  0  0  0  0
   35.1466   15.4309   -7.1617 C   0  0  0  0  0  0  0  0  0  0  0  0
 28 29  2  0  0  0
 29 30  1  0  0  0
 30 32  1  0  0  0
 32 33  1  0  0  0
 33 34  1  0  0  0
 34 35  1  0  0  0
 35 36  1  0  0  0
 36 37  1  0  0  0
 37 38  1  0  0  0
 29 22  1  0  0  0
 22 23  2  0  0  0
 23 24  1  0  0  0
 24 25  2  0  0  0
 25 21  1  0  0  0
 21  1  1  0  0  0
  1  2  2  0  0  0
  2  3  1  0  0  0
  3  4  2  0  0  0
  4  5  1  0  0  0
  4  6  1  0  0  0
  6  7  2  0  0  0
  7  8  1  0  0  0
  8 10  1  0  0  0
 10 11  2  0  0  0
 10 12  2  0  0  0
 10 13  1  0  0  0
 13 14  2  0  0  0
 14 15  1  0  0  0
 15 16  2  0  0  0
 16 17  1  0  0  0
 16 18  1  0  0  0
 18 19  1  0  0  0
 18 20  2  0  0  0
 25 26  1  0  0  0
 26 27  2  0  0  0
 38 34  1  0  0  0
 27 22  1  0  0  0
  7  1  1  0  0  0
 20 13  1  0  0  0
 30 31  1  0  0  0
  8  9  1  0  0  0
M  END
> <minimizedAffinity>
-8.24803

> <CNNscore>
0.5642673373

> <CNNaffinity>
7.4605531693

> <CNN_VS>
4.2097463608

> <CNNaffinity_variance>
0.0709444433

$$$$
[H]c1nc(Oc2c([H])c([H])c(C(=O)N([H])C([H])([H])C([H])([H])N3C([H])([H])C([H])([H])C([H])([H])C3([H])[H])c([H])c2[H])c(N([H])S(=O)(=O)c2c([H])c([H])c(Cl)c(Cl)c2[H])c([H])c1Cl


 38 41  0  0  0  0  0  0  0  0999 V2000
   41.0058   13.7231  -14.8512 C   0  0  0  0  0  0  0  0  0  0  0  0
   41.9957   13.7923  -13.9429 N   0  0  0  0  0  0  0  0  0  0  0  0
   43.2302   13.3617  -14.2184 C   0  0  0  0  0  0  0  0  0  0  0  0
   43.4874   12.8418  -15.4491 C   0  0  0  0  0  0  0  0  0  0  0  0
   45.1122   12.2786  -15.8007 Cl  0  0  0  0  0  0  0  0  0  0  0  0
   42.4698   12.7604  -16.4117 C   0  0  0  0  0  0  0  0  0  0  0  0
   41.2073   13.2077  -16.1088 C   0  0  0  0  0  0  0  0  0  0  0  0
   40.1254   13.1885  -17.0188 N   0  0  0  0  0  0  0  0  0  0  0  0
   39.7791   14.0865  -17.4686 H   0  0  0  0  0  0  0  0  0  0  0  0
   39.3603   11.7033  -17.4048 S   0  0  0  0  0  0  0  0  0  0  0  0
   39.4150   11.5119  -18.9151 O   0  0  0  0  0  0  0  0  0  0  0  0
   40.1714   10.5915  -16.7433 O   0  0  0  0  0  0  0  0  0  0  0  0
   37.7221   11.5616  -16.8882 C   0  0  0  0  0  0  0  0  0  0  0  0
   36.8161   10.7527  -17.5826 C   0  0  0  0  0  0  0  0  0  0  0  0
   35.5288   10.6766  -17.1345 C   0  0  0  0  0  0  0  0  0  0  0  0
   35.1186   11.3824  -16.0159 C   0  0  0  0  0  0  0  0  0  0  0  0
   33.4697   11.2758  -15.4569 Cl  0  0  0  0  0  0  0  0  0  0  0  0
   36.0146   12.1867  -15.3238 C   0  0  0  0  0  0  0  0  0  0  0  0
   35.4567   13.0584  -13.9202 Cl  0  0  0  0  0  0  0  0  0  0  0  0
   37.3247   12.2653  -15.7778 C   0  0  0  0  0  0  0  0  0  0  0  0
   39.7406   14.1950  -14.4862 O   0  0  0  0  0  0  0  0  0  0  0  0
   39.1018   16.2885  -10.9067 C   0  0  0  0  0  0  0  0  0  0  0  0
   40.3167   16.4038  -11.5988 C   0  0  0  0  0  0  0  0  0  0  0  0
   40.5172   15.7085  -12.7780 C   0  0  0  0  0  0  0  0  0  0  0  0
   39.5464   14.8915  -13.3065 C   0  0  0  0  0  0  0  0  0  0  0  0
   38.3669   14.7954  -12.6102 C   0  0  0  0  0  0  0  0  0  0  0  0
   38.1411   15.4802  -11.4283 C   0  0  0  0  0  0  0  0  0  0  0  0
   39.2735   16.5233   -8.5574 O   0  0  0  0  0  0  0  0  0  0  0  0
   38.9062   17.0385   -9.6757 C   0  0  0  0  0  0  0  0  0  0  0  0
   38.3252   18.3223   -9.6451 N   0  0  0  0  0  0  0  0  0  0  0  0
   38.0320   18.7209  -10.5708 H   0  0  0  0  0  0  0  0  0  0  0  0
   38.0940   19.1290   -8.4809 C   0  0  0  0  0  0  0  0  0  0  0  0
   36.6342   19.0837   -8.1219 C   0  0  0  0  0  0  0  0  0  0  0  0
   36.3072   20.1625   -7.2349 N   0  0  0  0  0  0  0  0  0  0  0  0
   34.9248   20.4829   -7.1321 C   0  0  0  0  0  0  0  0  0  0  0  0
   34.7055   21.7889   -7.8775 C   0  0  0  0  0  0  0  0  0  0  0  0
   36.0547   22.4430   -7.7882 C   0  0  0  0  0  0  0  0  0  0  0  0
   37.0487   21.3656   -7.4415 C   0  0  0  0  0  0  0  0  0  0  0  0
 28 29  2  0  0  0
 29 30  1  0  0  0
 30 32  1  0  0  0
 32 33  1  0  0  0
 33 34  1  0  0  0
 34 35  1  0  0  0
 35 36  1  0  0  0
 36 37  1  0  0  0
 37 38  1  0  0  0
 29 22  1  0  0  0
 22 23  2  0  0  0
 23 24  1  0  0  0
 24 25  2  0  0  0
 25 21  1  0  0  0
 21  1  1  0  0  0
  1  2  2  0  0  0
  2  3  1  0  0  0
  3  4  2  0  0  0
  4  5  1  0  0  0
  4  6  1  0  0  0
  6  7  2  0  0  0
  7  8  1  0  0  0
  8 10  1  0  0  0
 10 11  2  0  0  0
 10 12  2  0  0  0
 10 13  1  0  0  0
 13 14  2  0  0  0
 14 15  1  0  0  0
 15 16  2  0  0  0
 16 17  1  0  0  0
 16 18  1  0  0  0
 18 19  1  0  0  0
 18 20  2  0  0  0
 25 26  1  0  0  0
 26 27  2  0  0  0
 38 34  1  0  0  0
 27 22  1  0  0  0
  7  1  1  0  0  0
 20 13  1  0  0  0
 30 31  1  0  0  0
  8  9  1  0  0  0
M  END
> <minimizedAffinity>
-8.31854

> <CNNscore>
0.5371463895

> <CNNaffinity>
7.1698331833

> <CNN_VS>
3.8512499332

> <CNNaffinity_variance>
0.0479544774

$$$$
[H]c1nc(Oc2c([H])c([H])c(C(=O)N([H])C([H])([H])C([H])([H])N3C([H])([H])C([H])([H])C([H])([H])C3([H])[H])c([H])c2[H])c(N([H])S(=O)(=O)c2c([H])c([H])c(Cl)c(Cl)c2[H])c([H])c1Cl


 38 41  0  0  0  0  0  0  0  0999 V2000
   41.3191   13.7115  -14.7982 C   0  0  0  0  0  0  0  0  0  0  0  0
   42.1838   13.7033  -13.7676 N   0  0  0  0  0  0  0  0  0  0  0  0
   43.4590   13.3374  -13.9263 C   0  0  0  0  0  0  0  0  0  0  0  0
   43.8888   12.9652  -15.1625 C   0  0  0  0  0  0  0  0  0  0  0  0
   45.5656   12.4859  -15.3602 Cl  0  0  0  0  0  0  0  0  0  0  0  0
   43.0040   12.9666  -16.2514 C   0  0  0  0  0  0  0  0  0  0  0  0
   41.6968   13.3454  -16.0674 C   0  0  0  0  0  0  0  0  0  0  0  0
   40.7393   13.4012  -17.1061 N   0  0  0  0  0  0  0  0  0  0  0  0
   40.4065   14.3353  -17.4874 H   0  0  0  0  0  0  0  0  0  0  0  0
   40.1048   11.9493  -17.7617 S   0  0  0  0  0  0  0  0  0  0  0  0
   40.2042   12.0229  -19.2800 O   0  0  0  0  0  0  0  0  0  0  0  0
   40.9904   10.8065  -17.2705 O   0  0  0  0  0  0  0  0  0  0  0  0
   38.4737   11.5965  -17.3306 C   0  0  0  0  0  0  0  0  0  0  0  0
   37.7022   10.7144  -18.0949 C   0  0  0  0  0  0  0  0  0  0  0  0
   36.4145   10.4705  -17.7129 C   0  0  0  0  0  0  0  0  0  0  0  0
   35.8739   11.0794  -16.5927 C   0  0  0  0  0  0  0  0  0  0  0  0
   34.2262   10.7584  -16.1187 Cl  0  0  0  0  0  0  0  0  0  0  0  0
   36.6362   11.9557  -15.8314 C   0  0  0  0  0  0  0  0  0  0  0  0
   35.9167   12.7007  -14.4283 Cl  0  0  0  0  0  0  0  0  0  0  0  0
   37.9465   12.2050  -16.2181 C   0  0  0  0  0  0  0  0  0  0  0  0
   40.0006   14.1077  -14.5506 O   0  0  0  0  0  0  0  0  0  0  0  0
   38.9306   16.2142  -11.0835 C   0  0  0  0  0  0  0  0  0  0  0  0
   40.2011   16.3734  -11.6569 C   0  0  0  0  0  0  0  0  0  0  0  0
   40.5440   15.6734  -12.8000 C   0  0  0  0  0  0  0  0  0  0  0  0
   39.6639   14.8092  -13.4065 C   0  0  0  0  0  0  0  0  0  0  0  0
   38.4274   14.6707  -12.8258 C   0  0  0  0  0  0  0  0  0  0  0  0
   38.0596   15.3591  -11.6824 C   0  0  0  0  0  0  0  0  0  0  0  0
   38.3551   18.2302   -9.9843 O   0  0  0  0  0  0  0  0  0  0  0  0
   38.5853   16.9697   -9.8892 C   0  0  0  0  0  0  0  0  0  0  0  0
   38.4883   16.3814   -8.6122 N   0  0  0  0  0  0  0  0  0  0  0  0
   38.6824   15.3511   -8.5601 H   0  0  0  0  0  0  0  0  0  0  0  0
   38.1565   17.0490   -7.3859 C   0  0  0  0  0  0  0  0  0  0  0  0
   39.3860   17.1583   -6.5265 C   0  0  0  0  0  0  0  0  0  0  0  0
   39.2434   16.3495   -5.3505 N   0  0  0  0  0  0  0  0  0  0  0  0
   40.1614   15.2696   -5.2260 C   0  0  0  0  0  0  0  0  0  0  0  0
   39.3938   13.9878   -5.5038 C   0  0  0  0  0  0  0  0  0  0  0  0
   37.9897   14.3626   -5.1241 C   0  0  0  0  0  0  0  0  0  0  0  0
   37.9224   15.8673   -5.1007 C   0  0  0  0  0  0  0  0  0  0  0  0
 28 29  2  0  0  0
 29 30  1  0  0  0
 30 32  1  0  0  0
 32 33  1  0  0  0
 33 34  1  0  0  0
 34 35  1  0  0  0
 35 36  1  0  0  0
 36 37  1  0  0  0
 37 38  1  0  0  0
 29 22  1  0  0  0
 22 23  2  0  0  0
 23 24  1  0  0  0
 24 25  2  0  0  0
 25 21  1  0  0  0
 21  1  1  0  0  0
  1  2  2  0  0  0
  2  3  1  0  0  0
  3  4  2  0  0  0
  4  5  1  0  0  0
  4  6  1  0  0  0
  6  7  2  0  0  0
  7  8  1  0  0  0
  8 10  1  0  0  0
 10 11  2  0  0  0
 10 12  2  0  0  0
 10 13  1  0  0  0
 13 14  2  0  0  0
 14 15  1  0  0  0
 15 16  2  0  0  0
 16 17  1  0  0  0
 16 18  1  0  0  0
 18 19  1  0  0  0
 18 20  2  0  0  0
 25 26  1  0  0  0
 26 27  2  0  0  0
 38 34  1  0  0  0
 27 22  1  0  0  0
  7  1  1  0  0  0
 20 13  1  0  0  0
 30 31  1  0  0  0
  8  9  1  0  0  0
M  END
> <minimizedAffinity>
-8.22345

> <CNNscore>
0.4692056775

> <CNNaffinity>
7.2504029274

> <CNN_VS>
3.4019303322

> <CNNaffinity_variance>
0.0832571387

$$$$
[H]c1nc(Oc2c([H])c([H])c(C(=O)N([H])C([H])([H])C([H])([H])N3C([H])([H])C([H])([H])C([H])([H])C3([H])[H])c([H])c2[H])c(N([H])S(=O)(=O)c2c([H])c([H])c(Cl)c(Cl)c2[H])c([H])c1Cl


 38 41  0  0  0  0  0  0  0  0999 V2000
   36.9938   13.8379  -14.1113 C   0  0  0  0  0  0  0  0  0  0  0  0
   35.6601   13.9745  -14.2223 N   0  0  0  0  0  0  0  0  0  0  0  0
   34.9183   13.0861  -14.8899 C   0  0  0  0  0  0  0  0  0  0  0  0
   35.5315   12.0187  -15.4694 C   0  0  0  0  0  0  0  0  0  0  0  0
   34.5481   10.8576  -16.3444 Cl  0  0  0  0  0  0  0  0  0  0  0  0
   36.9213   11.8565  -15.3659 C   0  0  0  0  0  0  0  0  0  0  0  0
   37.6662   12.7812  -14.6760 C   0  0  0  0  0  0  0  0  0  0  0  0
   39.0659   12.6906  -14.4981 N   0  0  0  0  0  0  0  0  0  0  0  0
   39.4743   12.1750  -13.6637 H   0  0  0  0  0  0  0  0  0  0  0  0
   40.1205   13.4184  -15.6375 S   0  0  0  0  0  0  0  0  0  0  0  0
   39.8393   12.8150  -17.0076 O   0  0  0  0  0  0  0  0  0  0  0  0
   39.7811   14.9065  -15.6817 O   0  0  0  0  0  0  0  0  0  0  0  0
   41.8020   13.2547  -15.2955 C   0  0  0  0  0  0  0  0  0  0  0  0
   42.3189   13.6049  -14.0435 C   0  0  0  0  0  0  0  0  0  0  0  0
   43.6584   13.4593  -13.8237 C   0  0  0  0  0  0  0  0  0  0  0  0
   44.4966   12.9756  -14.8143 C   0  0  0  0  0  0  0  0  0  0  0  0
   46.2063   12.7969  -14.5182 Cl  0  0  0  0  0  0  0  0  0  0  0  0
   43.9876   12.6271  -16.0585 C   0  0  0  0  0  0  0  0  0  0  0  0
   45.0780   12.0219  -17.2775 Cl  0  0  0  0  0  0  0  0  0  0  0  0
   42.6252   12.7742  -16.2840 C   0  0  0  0  0  0  0  0  0  0  0  0
   37.6999   14.8107  -13.3958 O   0  0  0  0  0  0  0  0  0  0  0  0
   36.3378   16.2216   -9.6867 C   0  0  0  0  0  0  0  0  0  0  0  0
   35.6753   16.5679  -10.8738 C   0  0  0  0  0  0  0  0  0  0  0  0
   36.1332   16.0977  -12.0917 C   0  0  0  0  0  0  0  0  0  0  0  0
   37.2383   15.2853  -12.1808 C   0  0  0  0  0  0  0  0  0  0  0  0
   37.8691   14.9612  -11.0051 C   0  0  0  0  0  0  0  0  0  0  0  0
   37.4314   15.4184   -9.7737 C   0  0  0  0  0  0  0  0  0  0  0  0
   35.7419   15.9121   -7.4167 O   0  0  0  0  0  0  0  0  0  0  0  0
   35.8321   16.7155   -8.4152 C   0  0  0  0  0  0  0  0  0  0  0  0
   35.4296   18.0518   -8.2183 N   0  0  0  0  0  0  0  0  0  0  0  0
   35.5112   18.6881   -9.0490 H   0  0  0  0  0  0  0  0  0  0  0  0
   34.9196   18.6212   -7.0037 C   0  0  0  0  0  0  0  0  0  0  0  0
   35.9761   19.4866   -6.3738 C   0  0  0  0  0  0  0  0  0  0  0  0
   35.4635   20.8059   -6.1408 N   0  0  0  0  0  0  0  0  0  0  0  0
   34.3256   21.1737   -6.9117 C   0  0  0  0  0  0  0  0  0  0  0  0
   34.7931   22.1628   -7.9665 C   0  0  0  0  0  0  0  0  0  0  0  0
   36.0012   22.7784   -7.3202 C   0  0  0  0  0  0  0  0  0  0  0  0
   36.4304   21.8549   -6.2102 C   0  0  0  0  0  0  0  0  0  0  0  0
 28 29  2  0  0  0
 29 30  1  0  0  0
 30 32  1  0  0  0
 32 33  1  0  0  0
 33 34  1  0  0  0
 34 35  1  0  0  0
 35 36  1  0  0  0
 36 37  1  0  0  0
 37 38  1  0  0  0
 29 22  1  0  0  0
 22 23  2  0  0  0
 23 24  1  0  0  0
 24 25  2  0  0  0
 25 21  1  0  0  0
 21  1  1  0  0  0
  1  2  2  0  0  0
  2  3  1  0  0  0
  3  4  2  0  0  0
  4  5  1  0  0  0
  4  6  1  0  0  0
  6  7  2  0  0  0
  7  8  1  0  0  0
  8 10  1  0  0  0
 10 11  2  0  0  0
 10 12  2  0  0  0
 10 13  1  0  0  0
 13 14  2  0  0  0
 14 15  1  0  0  0
 15 16  2  0  0  0
 16 17  1  0  0  0
 16 18  1  0  0  0
 18 19  1  0  0  0
 18 20  2  0  0  0
 25 26  1  0  0  0
 26 27  2  0  0  0
 38 34  1  0  0  0
 27 22  1  0  0  0
  7  1  1  0  0  0
 20 13  1  0  0  0
 30 31  1  0  0  0
  8  9  1  0  0  0
M  END
> <minimizedAffinity>
-7.87023

> <CNNscore>
0.3538725376

> <CNNaffinity>
6.9283232689

> <CNN_VS>
2.4517433643

> <CNNaffinity_variance>
0.1012449041

$$$$
[H]c1nc(Oc2c([H])c([H])c(C(=O)N([H])C([H])([H])C([H])([H])N3C([H])([H])C([H])([H])C([H])([H])C3([H])[H])c([H])c2[H])c(N([H])S(=O)(=O)c2c([H])c([H])c(Cl)c(Cl)c2[H])c([H])c1Cl


 38 41  0  0  0  0  0  0  0  0999 V2000
   39.6165   15.4261  -12.5877 C   0  0  0  0  0  0  0  0  0  0  0  0
   40.9148   15.5830  -12.2724 N   0  0  0  0  0  0  0  0  0  0  0  0
   41.8820   14.9727  -12.9632 C   0  0  0  0  0  0  0  0  0  0  0  0
   41.5403   14.1743  -14.0107 C   0  0  0  0  0  0  0  0  0  0  0  0
   42.8183   13.3768  -14.9114 Cl  0  0  0  0  0  0  0  0  0  0  0  0
   40.1923   13.9968  -14.3571 C   0  0  0  0  0  0  0  0  0  0  0  0
   39.2129   14.6323  -13.6340 C   0  0  0  0  0  0  0  0  0  0  0  0
   37.8321   14.5334  -13.9213 N   0  0  0  0  0  0  0  0  0  0  0  0
   37.2403   15.4068  -14.0467 H   0  0  0  0  0  0  0  0  0  0  0  0
   37.0992   12.9905  -14.0704 S   0  0  0  0  0  0  0  0  0  0  0  0
   37.6726   12.0791  -12.9928 O   0  0  0  0  0  0  0  0  0  0  0  0
   35.6056   13.1724  -13.8102 O   0  0  0  0  0  0  0  0  0  0  0  0
   37.2946   12.2261  -15.6029 C   0  0  0  0  0  0  0  0  0  0  0  0
   36.1879   11.7584  -16.3199 C   0  0  0  0  0  0  0  0  0  0  0  0
   36.3963   11.1575  -17.5279 C   0  0  0  0  0  0  0  0  0  0  0  0
   37.6738   11.0093  -18.0414 C   0  0  0  0  0  0  0  0  0  0  0  0
   37.9235   10.2379  -19.5858 Cl  0  0  0  0  0  0  0  0  0  0  0  0
   38.7750   11.4720  -17.3328 C   0  0  0  0  0  0  0  0  0  0  0  0
   40.3663   11.2652  -18.0158 Cl  0  0  0  0  0  0  0  0  0  0  0  0
   38.5653   12.0837  -16.1039 C   0  0  0  0  0  0  0  0  0  0  0  0
   38.6635   16.0992  -11.8160 O   0  0  0  0  0  0  0  0  0  0  0  0
   37.2374   14.5104   -8.2042 C   0  0  0  0  0  0  0  0  0  0  0  0
   38.5776   14.9037   -8.3359 C   0  0  0  0  0  0  0  0  0  0  0  0
   39.0377   15.4259   -9.5317 C   0  0  0  0  0  0  0  0  0  0  0  0
   38.2094   15.5762  -10.6182 C   0  0  0  0  0  0  0  0  0  0  0  0
   36.9028   15.1835  -10.4639 C   0  0  0  0  0  0  0  0  0  0  0  0
   36.4174   14.6581   -9.2785 C   0  0  0  0  0  0  0  0  0  0  0  0
   36.9669   12.7364   -6.6602 O   0  0  0  0  0  0  0  0  0  0  0  0
   36.7704   13.9763   -6.9341 C   0  0  0  0  0  0  0  0  0  0  0  0
   36.1029   14.7610   -5.9724 N   0  0  0  0  0  0  0  0  0  0  0  0
   35.9529   15.7699   -6.2199 H   0  0  0  0  0  0  0  0  0  0  0  0
   35.6089   14.3175   -4.7000 C   0  0  0  0  0  0  0  0  0  0  0  0
   35.0075   15.4821   -3.9625 C   0  0  0  0  0  0  0  0  0  0  0  0
   33.5792   15.3574   -3.9176 N   0  0  0  0  0  0  0  0  0  0  0  0
   32.9921   14.5806   -4.9550 C   0  0  0  0  0  0  0  0  0  0  0  0
   32.3043   15.5434   -5.9086 C   0  0  0  0  0  0  0  0  0  0  0  0
   31.9898   16.7115   -5.0181 C   0  0  0  0  0  0  0  0  0  0  0  0
   32.8649   16.5885   -3.7982 C   0  0  0  0  0  0  0  0  0  0  0  0
 28 29  2  0  0  0
 29 30  1  0  0  0
 30 32  1  0  0  0
 32 33  1  0  0  0
 33 34  1  0  0  0
 34 35  1  0  0  0
 35 36  1  0  0  0
 36 37  1  0  0  0
 37 38  1  0  0  0
 29 22  1  0  0  0
 22 23  2  0  0  0
 23 24  1  0  0  0
 24 25  2  0  0  0
 25 21  1  0  0  0
 21  1  1  0  0  0
  1  2  2  0  0  0
  2  3  1  0  0  0
  3  4  2  0  0  0
  4  5  1  0  0  0
  4  6  1  0  0  0
  6  7  2  0  0  0
  7  8  1  0  0  0
  8 10  1  0  0  0
 10 11  2  0  0  0
 10 12  2  0  0  0
 10 13  1  0  0  0
 13 14  2  0  0  0
 14 15  1  0  0  0
 15 16  2  0  0  0
 16 17  1  0  0  0
 16 18  1  0  0  0
 18 19  1  0  0  0
 18 20  2  0  0  0
 25 26  1  0  0  0
 26 27  2  0  0  0
 38 34  1  0  0  0
 27 22  1  0  0  0
  7  1  1  0  0  0
 20 13  1  0  0  0
 30 31  1  0  0  0
  8  9  1  0  0  0
M  END
> <minimizedAffinity>
-8.77748

> <CNNscore>
0.2532905042

> <CNNaffinity>
6.6379175186

> <CNN_VS>
1.6813215017

> <CNNaffinity_variance>
0.2614382207

$$$$
[H]c1nc(Oc2c([H])c([H])c(C(=O)N([H])C([H])([H])C([H])([H])N3C([H])([H])C([H])([H])C([H])([H])C3([H])[H])c([H])c2[H])c(N([H])S(=O)(=O)c2c([H])c([H])c(Cl)c(Cl)c2[H])c([H])c1Cl


 38 41  0  0  0  0  0  0  0  0999 V2000
   34.4174   15.5826  -11.1903 C   0  0  0  0  0  0  0  0  0  0  0  0
   33.5073   15.9474  -10.2693 N   0  0  0  0  0  0  0  0  0  0  0  0
   32.2123   15.6490  -10.4080 C   0  0  0  0  0  0  0  0  0  0  0  0
   31.8094   14.9587  -11.5091 C   0  0  0  0  0  0  0  0  0  0  0  0
   30.1061   14.5720  -11.6819 Cl  0  0  0  0  0  0  0  0  0  0  0  0
   32.7419   14.5680  -12.4820 C   0  0  0  0  0  0  0  0  0  0  0  0
   34.0683   14.8851  -12.3214 C   0  0  0  0  0  0  0  0  0  0  0  0
   35.0827   14.5150  -13.2341 N   0  0  0  0  0  0  0  0  0  0  0  0
   35.6976   15.2520  -13.6897 H   0  0  0  0  0  0  0  0  0  0  0  0
   35.3282   12.8610  -13.6138 S   0  0  0  0  0  0  0  0  0  0  0  0
   35.5321   12.0939  -12.3136 O   0  0  0  0  0  0  0  0  0  0  0  0
   34.0514   12.3562  -14.2820 O   0  0  0  0  0  0  0  0  0  0  0  0
   36.6562   12.5344  -14.6629 C   0  0  0  0  0  0  0  0  0  0  0  0
   37.9398   13.0054  -14.3667 C   0  0  0  0  0  0  0  0  0  0  0  0
   38.9574   12.7221  -15.2315 C   0  0  0  0  0  0  0  0  0  0  0  0
   38.7331   11.9840  -16.3816 C   0  0  0  0  0  0  0  0  0  0  0  0
   40.0438   11.6317  -17.4774 Cl  0  0  0  0  0  0  0  0  0  0  0  0
   37.4604   11.5148  -16.6795 C   0  0  0  0  0  0  0  0  0  0  0  0
   37.2218   10.5891  -18.1381 Cl  0  0  0  0  0  0  0  0  0  0  0  0
   36.4239   11.8016  -15.8009 C   0  0  0  0  0  0  0  0  0  0  0  0
   35.7541   15.9326  -10.9725 O   0  0  0  0  0  0  0  0  0  0  0  0
   37.8933   14.3032   -7.7518 C   0  0  0  0  0  0  0  0  0  0  0  0
   38.5619   14.7880   -8.8859 C   0  0  0  0  0  0  0  0  0  0  0  0
   37.8468   15.3227   -9.9427 C   0  0  0  0  0  0  0  0  0  0  0  0
   36.4745   15.3974   -9.9193 C   0  0  0  0  0  0  0  0  0  0  0  0
   35.8439   14.9161   -8.7986 C   0  0  0  0  0  0  0  0  0  0  0  0
   36.5359   14.3762   -7.7279 C   0  0  0  0  0  0  0  0  0  0  0  0
   38.0506   13.2725   -5.6266 O   0  0  0  0  0  0  0  0  0  0  0  0
   38.6646   13.7573   -6.6458 C   0  0  0  0  0  0  0  0  0  0  0  0
   40.0737   13.7317   -6.6339 N   0  0  0  0  0  0  0  0  0  0  0  0
   40.5522   14.1348   -7.4766 H   0  0  0  0  0  0  0  0  0  0  0  0
   40.9110   13.2160   -5.5885 C   0  0  0  0  0  0  0  0  0  0  0  0
   41.5177   11.9125   -6.0297 C   0  0  0  0  0  0  0  0  0  0  0  0
   42.4002   11.4078   -5.0178 N   0  0  0  0  0  0  0  0  0  0  0  0
   43.5832   10.7723   -5.4880 C   0  0  0  0  0  0  0  0  0  0  0  0
   43.4109    9.2778   -5.2734 C   0  0  0  0  0  0  0  0  0  0  0  0
   42.4488    9.2251   -4.1210 C   0  0  0  0  0  0  0  0  0  0  0  0
   41.7846   10.5743   -4.0347 C   0  0  0  0  0  0  0  0  0  0  0  0
 28 29  2  0  0  0
 29 30  1  0  0  0
 30 32  1  0  0  0
 32 33  1  0  0  0
 33 34  1  0  0  0
 34 35  1  0  0  0
 35 36  1  0  0  0
 36 37  1  0  0  0
 37 38  1  0  0  0
 29 22  1  0  0  0
 22 23  2  0  0  0
 23 24  1  0  0  0
 24 25  2  0  0  0
 25 21  1  0  0  0
 21  1  1  0  0  0
  1  2  2  0  0  0
  2  3  1  0  0  0
  3  4  2  0  0  0
  4  5  1  0  0  0
  4  6  1  0  0  0
  6  7  2  0  0  0
  7  8  1  0  0  0
  8 10  1  0  0  0
 10 11  2  0  0  0
 10 12  2  0  0  0
 10 13  1  0  0  0
 13 14  2  0  0  0
 14 15  1  0  0  0
 15 16  2  0  0  0
 16 17  1  0  0  0
 16 18  1  0  0  0
 18 19  1  0  0  0
 18 20  2  0  0  0
 25 26  1  0  0  0
 26 27  2  0  0  0
 38 34  1  0  0  0
 27 22  1  0  0  0
  7  1  1  0  0  0
 20 13  1  0  0  0
 30 31  1  0  0  0
  8  9  1  0  0  0
M  END
> <minimizedAffinity>
-8.86072

> <CNNscore>
0.2177719921

> <CNNaffinity>
6.6998124123

> <CNN_VS>
1.4590314627

> <CNNaffinity_variance>
0.1975899190

$$$$
[H]c1nc(Oc2c([H])c([H])c(C(=O)N([H])C([H])([H])C([H])([H])N3C([H])([H])C([H])([H])C([H])([H])C3([H])[H])c([H])c2[H])c(N([H])S(=O)(=O)c2c([H])c([H])c(Cl)c(Cl)c2[H])c([H])c1Cl


 38 41  0  0  0  0  0  0  0  0999 V2000
   37.0914   14.0356  -14.0942 C   0  0  0  0  0  0  0  0  0  0  0  0
   35.8511   13.9591  -14.6094 N   0  0  0  0  0  0  0  0  0  0  0  0
   35.4912   12.9627  -15.4237 C   0  0  0  0  0  0  0  0  0  0  0  0
   36.4050   12.0043  -15.7360 C   0  0  0  0  0  0  0  0  0  0  0  0
   35.9224   10.6999  -16.8067 Cl  0  0  0  0  0  0  0  0  0  0  0  0
   37.7043   12.0644  -15.2096 C   0  0  0  0  0  0  0  0  0  0  0  0
   38.0548   13.0971  -14.3750 C   0  0  0  0  0  0  0  0  0  0  0  0
   39.3298   13.2297  -13.7786 N   0  0  0  0  0  0  0  0  0  0  0  0
   39.5972   12.6430  -12.9341 H   0  0  0  0  0  0  0  0  0  0  0  0
   40.4609   14.3473  -14.4203 S   0  0  0  0  0  0  0  0  0  0  0  0
   40.0831   14.6373  -15.8672 O   0  0  0  0  0  0  0  0  0  0  0  0
   40.3287   15.6375  -13.6144 O   0  0  0  0  0  0  0  0  0  0  0  0
   42.1078   13.8412  -14.3693 C   0  0  0  0  0  0  0  0  0  0  0  0
   42.8723   13.9957  -13.2079 C   0  0  0  0  0  0  0  0  0  0  0  0
   44.1731   13.5815  -13.2198 C   0  0  0  0  0  0  0  0  0  0  0  0
   44.7333   13.0185  -14.3542 C   0  0  0  0  0  0  0  0  0  0  0  0
   46.3974   12.4955  -14.3538 Cl  0  0  0  0  0  0  0  0  0  0  0  0
   43.9780   12.8635  -15.5092 C   0  0  0  0  0  0  0  0  0  0  0  0
   44.7225   12.1496  -16.9155 Cl  0  0  0  0  0  0  0  0  0  0  0  0
   42.6545   13.2840  -15.4992 C   0  0  0  0  0  0  0  0  0  0  0  0
   37.3904   15.1097  -13.2494 O   0  0  0  0  0  0  0  0  0  0  0  0
   35.3426   15.7208   -9.6388 C   0  0  0  0  0  0  0  0  0  0  0  0
   35.8107   14.4462   -9.9919 C   0  0  0  0  0  0  0  0  0  0  0  0
   36.4843   14.2556  -11.1852 C   0  0  0  0  0  0  0  0  0  0  0  0
   36.7160   15.2940  -12.0554 C   0  0  0  0  0  0  0  0  0  0  0  0
   36.2476   16.5311  -11.6872 C   0  0  0  0  0  0  0  0  0  0  0  0
   35.5708   16.7485  -10.4992 C   0  0  0  0  0  0  0  0  0  0  0  0
   35.0347   15.2420   -7.3411 O   0  0  0  0  0  0  0  0  0  0  0  0
   34.6486   15.9025   -8.3733 C   0  0  0  0  0  0  0  0  0  0  0  0
   33.5567   16.7800   -8.2178 N   0  0  0  0  0  0  0  0  0  0  0  0
   33.2591   17.3068   -9.0755 H   0  0  0  0  0  0  0  0  0  0  0  0
   32.8160   17.0183   -7.0119 C   0  0  0  0  0  0  0  0  0  0  0  0
   31.3562   17.1674   -7.3418 C   0  0  0  0  0  0  0  0  0  0  0  0
   30.7936   18.2705   -6.6179 N   0  0  0  0  0  0  0  0  0  0  0  0
   29.7357   18.9641   -7.2692 C   0  0  0  0  0  0  0  0  0  0  0  0
   30.2903   20.2985   -7.7395 C   0  0  0  0  0  0  0  0  0  0  0  0
   31.4099   20.5439   -6.7687 C   0  0  0  0  0  0  0  0  0  0  0  0
   31.7395   19.2215   -6.1271 C   0  0  0  0  0  0  0  0  0  0  0  0
 28 29  2  0  0  0
 29 30  1  0  0  0
 30 32  1  0  0  0
 32 33  1  0  0  0
 33 34  1  0  0  0
 34 35  1  0  0  0
 35 36  1  0  0  0
 36 37  1  0  0  0
 37 38  1  0  0  0
 29 22  1  0  0  0
 22 23  2  0  0  0
 23 24  1  0  0  0
 24 25  2  0  0  0
 25 21  1  0  0  0
 21  1  1  0  0  0
  1  2  2  0  0  0
  2  3  1  0  0  0
  3  4  2  0  0  0
  4  5  1  0  0  0
  4  6  1  0  0  0
  6  7  2  0  0  0
  7  8  1  0  0  0
  8 10  1  0  0  0
 10 11  2  0  0  0
 10 12  2  0  0  0
 10 13  1  0  0  0
 13 14  2  0  0  0
 14 15  1  0  0  0
 15 16  2  0  0  0
 16 17  1  0  0  0
 16 18  1  0  0  0
 18 19  1  0  0  0
 18 20  2  0  0  0
 25 26  1  0  0  0
 26 27  2  0  0  0
 38 34  1  0  0  0
 27 22  1  0  0  0
  7  1  1  0  0  0
 20 13  1  0  0  0
 30 31  1  0  0  0
  8  9  1  0  0  0
M  END
> <minimizedAffinity>
-7.80233

> <CNNscore>
0.2172210962

> <CNNaffinity>
6.5968766212

> <CNN_VS>
1.4329807758

> <CNNaffinity_variance>
0.0829661787

$$$$
[H]c1nc(Oc2c([H])c([H])c(C(=O)N([H])C([H])([H])C([H])([H])N3C([H])([H])C([H])([H])C([H])([H])C3([H])[H])c([H])c2[H])c(N([H])S(=O)(=O)c2c([H])c([H])c(Cl)c(Cl)c2[H])c([H])c1Cl


 38 41  0  0  0  0  0  0  0  0999 V2000
   37.3056   13.4214  -14.9799 C   0  0  0  0  0  0  0  0  0  0  0  0
   37.5560   12.2896  -15.6626 N   0  0  0  0  0  0  0  0  0  0  0  0
   36.5719   11.4724  -16.0487 C   0  0  0  0  0  0  0  0  0  0  0  0
   35.2868   11.7975  -15.7419 C   0  0  0  0  0  0  0  0  0  0  0  0
   34.0015   10.7172  -16.2533 Cl  0  0  0  0  0  0  0  0  0  0  0  0
   35.0030   12.9733  -15.0308 C   0  0  0  0  0  0  0  0  0  0  0  0
   36.0287   13.7997  -14.6422 C   0  0  0  0  0  0  0  0  0  0  0  0
   35.8399   15.0147  -13.9442 N   0  0  0  0  0  0  0  0  0  0  0  0
   35.5434   15.8955  -14.4590 H   0  0  0  0  0  0  0  0  0  0  0  0
   36.0906   15.0736  -12.2490 S   0  0  0  0  0  0  0  0  0  0  0  0
   36.6869   13.7443  -11.8041 O   0  0  0  0  0  0  0  0  0  0  0  0
   37.1096   16.1786  -11.9807 O   0  0  0  0  0  0  0  0  0  0  0  0
   34.6832   15.3918  -11.3061 C   0  0  0  0  0  0  0  0  0  0  0  0
   34.7878   15.8906  -10.0031 C   0  0  0  0  0  0  0  0  0  0  0  0
   33.6430   16.1232   -9.2967 C   0  0  0  0  0  0  0  0  0  0  0  0
   32.3985   15.8734   -9.8504 C   0  0  0  0  0  0  0  0  0  0  0  0
   30.9450   16.1745   -8.9342 Cl  0  0  0  0  0  0  0  0  0  0  0  0
   32.2902   15.3782  -11.1434 C   0  0  0  0  0  0  0  0  0  0  0  0
   30.7038   15.0777  -11.8024 Cl  0  0  0  0  0  0  0  0  0  0  0  0
   33.4536   15.1411  -11.8638 C   0  0  0  0  0  0  0  0  0  0  0  0
   38.3904   14.2240  -14.6116 O   0  0  0  0  0  0  0  0  0  0  0  0
   42.3144   13.1052  -15.5886 C   0  0  0  0  0  0  0  0  0  0  0  0
   42.0072   13.6089  -14.3157 C   0  0  0  0  0  0  0  0  0  0  0  0
   40.7101   13.9755  -14.0042 C   0  0  0  0  0  0  0  0  0  0  0  0
   39.6898   13.8605  -14.9181 C   0  0  0  0  0  0  0  0  0  0  0  0
   40.0163   13.3655  -16.1564 C   0  0  0  0  0  0  0  0  0  0  0  0
   41.3060   12.9916  -16.4935 C   0  0  0  0  0  0  0  0  0  0  0  0
   43.8942   11.7165  -16.6745 O   0  0  0  0  0  0  0  0  0  0  0  0
   43.6820   12.7128  -15.8915 C   0  0  0  0  0  0  0  0  0  0  0  0
   44.8051   13.3798  -15.3623 N   0  0  0  0  0  0  0  0  0  0  0  0
   44.6060   14.1892  -14.7243 H   0  0  0  0  0  0  0  0  0  0  0  0
   46.1829   13.0603  -15.6058 C   0  0  0  0  0  0  0  0  0  0  0  0
   46.8309   12.6249  -14.3203 C   0  0  0  0  0  0  0  0  0  0  0  0
   47.8410   13.5656  -13.9299 N   0  0  0  0  0  0  0  0  0  0  0  0
   47.7930   14.0001  -12.5759 C   0  0  0  0  0  0  0  0  0  0  0  0
   47.2743   15.4285  -12.5764 C   0  0  0  0  0  0  0  0  0  0  0  0
   47.6818   15.9204  -13.9359 C   0  0  0  0  0  0  0  0  0  0  0  0
   47.9705   14.7064  -14.7795 C   0  0  0  0  0  0  0  0  0  0  0  0
 28 29  2  0  0  0
 29 30  1  0  0  0
 30 32  1  0  0  0
 32 33  1  0  0  0
 33 34  1  0  0  0
 34 35  1  0  0  0
 35 36  1  0  0  0
 36 37  1  0  0  0
 37 38  1  0  0  0
 29 22  1  0  0  0
 22 23  2  0  0  0
 23 24  1  0  0  0
 24 25  2  0  0  0
 25 21  1  0  0  0
 21  1  1  0  0  0
  1  2  2  0  0  0
  2  3  1  0  0  0
  3  4  2  0  0  0
  4  5  1  0  0  0
  4  6  1  0  0  0
  6  7  2  0  0  0
  7  8  1  0  0  0
  8 10  1  0  0  0
 10 11  2  0  0  0
 10 12  2  0  0  0
 10 13  1  0  0  0
 13 14  2  0  0  0
 14 15  1  0  0  0
 15 16  2  0  0  0
 16 17  1  0  0  0
 16 18  1  0  0  0
 18 19  1  0  0  0
 18 20  2  0  0  0
 25 26  1  0  0  0
 26 27  2  0  0  0
 38 34  1  0  0  0
 27 22  1  0  0  0
  7  1  1  0  0  0
 20 13  1  0  0  0
 30 31  1  0  0  0
  8  9  1  0  0  0
M  END
> <minimizedAffinity>
-8.21680

> <CNNscore>
0.1914644539

> <CNNaffinity>
6.8084449768

> <CNN_VS>
1.3035751581

> <CNNaffinity_variance>
0.1455227584

$$$$
[H]c1nc(Oc2c([H])c([H])c(C(=O)N([H])C([H])([H])C([H])([H])N3C([H])([H])C([H])([H])C([H])([H])C3([H])[H])c([H])c2[H])c(N([H])S(=O)(=O)c2c([H])c([H])c(Cl)c(Cl)c2[H])c([H])c1Cl


 38 41  0  0  0  0  0  0  0  0999 V2000
   37.6640   15.2032  -12.0009 C   0  0  0  0  0  0  0  0  0  0  0  0
   38.2949   15.4248  -10.8336 N   0  0  0  0  0  0  0  0  0  0  0  0
   37.6761   15.2605   -9.6609 C   0  0  0  0  0  0  0  0  0  0  0  0
   36.3762   14.8587   -9.6523 C   0  0  0  0  0  0  0  0  0  0  0  0
   35.5724   14.6462   -8.1066 Cl  0  0  0  0  0  0  0  0  0  0  0  0
   35.6990   14.6217  -10.8581 C   0  0  0  0  0  0  0  0  0  0  0  0
   36.3525   14.7970  -12.0531 C   0  0  0  0  0  0  0  0  0  0  0  0
   35.7619   14.5609  -13.3158 N   0  0  0  0  0  0  0  0  0  0  0  0
   35.6860   15.3407  -14.0334 H   0  0  0  0  0  0  0  0  0  0  0  0
   35.1601   13.0017  -13.6991 S   0  0  0  0  0  0  0  0  0  0  0  0
   35.4192   12.0809  -12.5135 O   0  0  0  0  0  0  0  0  0  0  0  0
   33.6513   13.1343  -13.8922 O   0  0  0  0  0  0  0  0  0  0  0  0
   35.8278   12.2812  -15.1154 C   0  0  0  0  0  0  0  0  0  0  0  0
   35.0097   11.6322  -16.0465 C   0  0  0  0  0  0  0  0  0  0  0  0
   35.5879   11.0750  -17.1506 C   0  0  0  0  0  0  0  0  0  0  0  0
   36.9560   11.1457  -17.3534 C   0  0  0  0  0  0  0  0  0  0  0  0
   37.6796   10.4273  -18.7687 Cl  0  0  0  0  0  0  0  0  0  0  0  0
   37.7716   11.7888  -16.4316 C   0  0  0  0  0  0  0  0  0  0  0  0
   39.4893   11.8550  -16.7256 Cl  0  0  0  0  0  0  0  0  0  0  0  0
   37.1855   12.3565  -15.3079 C   0  0  0  0  0  0  0  0  0  0  0  0
   38.3809   15.3974  -13.1862 O   0  0  0  0  0  0  0  0  0  0  0  0
   42.4689   14.4818  -13.4181 C   0  0  0  0  0  0  0  0  0  0  0  0
   41.5222   13.7235  -14.1232 C   0  0  0  0  0  0  0  0  0  0  0  0
   40.1765   14.0336  -14.0392 C   0  0  0  0  0  0  0  0  0  0  0  0
   39.7253   15.0816  -13.2727 C   0  0  0  0  0  0  0  0  0  0  0  0
   40.6712   15.8077  -12.5923 C   0  0  0  0  0  0  0  0  0  0  0  0
   42.0234   15.5182  -12.6592 C   0  0  0  0  0  0  0  0  0  0  0  0
   44.3020   13.5338  -14.5776 O   0  0  0  0  0  0  0  0  0  0  0  0
   43.8802   14.1476  -13.5306 C   0  0  0  0  0  0  0  0  0  0  0  0
   44.8247   14.4675  -12.5347 N   0  0  0  0  0  0  0  0  0  0  0  0
   44.4556   14.9671  -11.6886 H   0  0  0  0  0  0  0  0  0  0  0  0
   46.2296   14.1754  -12.5628 C   0  0  0  0  0  0  0  0  0  0  0  0
   46.9977   15.4361  -12.8499 C   0  0  0  0  0  0  0  0  0  0  0  0
   47.0558   15.6711  -14.2638 N   0  0  0  0  0  0  0  0  0  0  0  0
   48.3218   15.4553  -14.8763 C   0  0  0  0  0  0  0  0  0  0  0  0
   48.9047   16.8196  -15.2052 C   0  0  0  0  0  0  0  0  0  0  0  0
   47.6751   17.6688  -15.3576 C   0  0  0  0  0  0  0  0  0  0  0  0
   46.5417   16.9330  -14.6920 C   0  0  0  0  0  0  0  0  0  0  0  0
 28 29  2  0  0  0
 29 30  1  0  0  0
 30 32  1  0  0  0
 32 33  1  0  0  0
 33 34  1  0  0  0
 34 35  1  0  0  0
 35 36  1  0  0  0
 36 37  1  0  0  0
 37 38  1  0  0  0
 29 22  1  0  0  0
 22 23  2  0  0  0
 23 24  1  0  0  0
 24 25  2  0  0  0
 25 21  1  0  0  0
 21  1  1  0  0  0
  1  2  2  0  0  0
  2  3  1  0  0  0
  3  4  2  0  0  0
  4  5  1  0  0  0
  4  6  1  0  0  0
  6  7  2  0  0  0
  7  8  1  0  0  0
  8 10  1  0  0  0
 10 11  2  0  0  0
 10 12  2  0  0  0
 10 13  1  0  0  0
 13 14  2  0  0  0
 14 15  1  0  0  0
 15 16  2  0  0  0
 16 17  1  0  0  0
 16 18  1  0  0  0
 18 19  1  0  0  0
 18 20  2  0  0  0
 25 26  1  0  0  0
 26 27  2  0  0  0
 38 34  1  0  0  0
 27 22  1  0  0  0
  7  1  1  0  0  0
 20 13  1  0  0  0
 30 31  1  0  0  0
  8  9  1  0  0  0
M  END
> <minimizedAffinity>
-8.64320

> <CNNscore>
0.1777436137

> <CNNaffinity>
6.9484367371

> <CNN_VS>
1.2350403070

> <CNNaffinity_variance>
0.1621654332

$$$$
[H]c1c([H])c(N([H])c2nc(N([H])[H])nc(C([H])([H])Cl)n2)c([H])c([H])c1OC([H])([H])[H]


 21 22  0  0  0  0  0  0  0  0999 V2000
   40.2833   12.5234  -16.3671 C   0  0  0  0  0  0  0  0  0  0  0  0
   40.3995   11.9801  -17.5837 N   0  0  0  0  0  0  0  0  0  0  0  0
   39.4410   11.3399  -18.2562 C   0  0  0  0  0  0  0  0  0  0  0  0
   39.6406   10.7874  -19.5502 N   0  0  0  0  0  0  0  0  0  0  0  0
   38.2199   11.2192  -17.6603 N   0  0  0  0  0  0  0  0  0  0  0  0
   38.0309   11.7450  -16.4297 C   0  0  0  0  0  0  0  0  0  0  0  0
   39.0337   12.3732  -15.8129 N   0  0  0  0  0  0  0  0  0  0  0  0
   40.4283   11.1239  -20.1430 H   0  0  0  0  0  0  0  0  0  0  0  0
   39.0032   10.0479  -19.9084 H   0  0  0  0  0  0  0  0  0  0  0  0
   41.2907   13.2006  -15.6515 N   0  0  0  0  0  0  0  0  0  0  0  0
   40.9451   13.9720  -15.0153 H   0  0  0  0  0  0  0  0  0  0  0  0
   45.4310   12.5923  -15.5605 C   0  0  0  0  0  0  0  0  0  0  0  0
   44.7109   12.0183  -16.5775 C   0  0  0  0  0  0  0  0  0  0  0  0
   43.3229   12.1959  -16.6602 C   0  0  0  0  0  0  0  0  0  0  0  0
   42.6636   12.9521  -15.7162 C   0  0  0  0  0  0  0  0  0  0  0  0
   43.4304   13.5315  -14.6804 C   0  0  0  0  0  0  0  0  0  0  0  0
   44.7923   13.3513  -14.6086 C   0  0  0  0  0  0  0  0  0  0  0  0
   47.6201   13.4116  -15.0146 C   0  0  0  0  0  0  0  0  0  0  0  0
   46.7908   12.4042  -15.5003 O   0  0  0  0  0  0  0  0  0  0  0  0
   36.7094   11.6356  -15.7404 C   0  0  0  0  0  0  0  0  0  0  0  0
   35.5080   10.9846  -16.8775 Cl  0  0  0  0  0  0  0  0  0  0  0  0
 18 19  1  0  0  0
 19 12  1  0  0  0
 12 13  2  0  0  0
 13 14  1  0  0  0
 14 15  2  0  0  0
 15 10  1  0  0  0
 10  1  1  0  0  0
  1  2  2  0  0  0
  2  3  1  0  0  0
  3  4  1  0  0  0
  3  5  2  0  0  0
  5  6  1  0  0  0
  6 20  1  0  0  0
 20 21  1  0  0  0
  6  7  2  0  0  0
 15 16  1  0  0  0
 16 17  2  0  0  0
 17 12  1  0  0  0
  7  1  1  0  0  0
 10 11  1  0  0  0
  4  8  1  0  0  0
  4  9  1  0  0  0
M  END
> <minimizedAffinity>
-6.63602

> <CNNscore>
0.8731026053

> <CNNaffinity>
6.1448302269

> <CNN_VS>
5.3650674820

> <CNNaffinity_variance>
0.3418984413

$$$$
[H]c1c([H])c(N([H])c2nc(N([H])[H])nc(C([H])([H])Cl)n2)c([H])c([H])c1OC([H])([H])[H]


 21 22  0  0  0  0  0  0  0  0999 V2000
   38.6103   11.8653  -16.2002 C   0  0  0  0  0  0  0  0  0  0  0  0
   38.6172   11.3697  -17.4425 N   0  0  0  0  0  0  0  0  0  0  0  0
   39.6538   11.3624  -18.2829 C   0  0  0  0  0  0  0  0  0  0  0  0
   39.5841   10.8154  -19.5926 N   0  0  0  0  0  0  0  0  0  0  0  0
   40.8261   11.9086  -17.8494 N   0  0  0  0  0  0  0  0  0  0  0  0
   40.8914   12.4286  -16.6036 C   0  0  0  0  0  0  0  0  0  0  0  0
   39.8158   12.4031  -15.8143 N   0  0  0  0  0  0  0  0  0  0  0  0
   38.8339   10.1334  -19.8318 H   0  0  0  0  0  0  0  0  0  0  0  0
   40.2795   11.0931  -20.3143 H   0  0  0  0  0  0  0  0  0  0  0  0
   37.5200   11.8763  -15.3078 N   0  0  0  0  0  0  0  0  0  0  0  0
   36.7402   11.2023  -15.5469 H   0  0  0  0  0  0  0  0  0  0  0  0
   37.2775   14.5135  -12.0664 C   0  0  0  0  0  0  0  0  0  0  0  0
   36.5405   13.3571  -12.0214 C   0  0  0  0  0  0  0  0  0  0  0  0
   36.5901   12.4354  -13.0763 C   0  0  0  0  0  0  0  0  0  0  0  0
   37.3832   12.6823  -14.1754 C   0  0  0  0  0  0  0  0  0  0  0  0
   38.1315   13.8806  -14.1946 C   0  0  0  0  0  0  0  0  0  0  0  0
   38.0758   14.7785  -13.1539 C   0  0  0  0  0  0  0  0  0  0  0  0
   38.0368   15.2428   -9.9094 C   0  0  0  0  0  0  0  0  0  0  0  0
   37.2125   15.4019  -11.0203 O   0  0  0  0  0  0  0  0  0  0  0  0
   42.1557   13.0368  -16.0885 C   0  0  0  0  0  0  0  0  0  0  0  0
   43.5307   12.0102  -16.5527 Cl  0  0  0  0  0  0  0  0  0  0  0  0
 18 19  1  0  0  0
 19 12  1  0  0  0
 12 13  2  0  0  0
 13 14  1  0  0  0
 14 15  2  0  0  0
 15 10  1  0  0  0
 10  1  1  0  0  0
  1  2  2  0  0  0
  2  3  1  0  0  0
  3  4  1  0  0  0
  3  5  2  0  0  0
  5  6  1  0  0  0
  6 20  1  0  0  0
 20 21  1  0  0  0
  6  7  2  0  0  0
 15 16  1  0  0  0
 16 17  2  0  0  0
 17 12  1  0  0  0
  7  1  1  0  0  0
 10 11  1  0  0  0
  4  8  1  0  0  0
  4  9  1  0  0  0
M  END
> <minimizedAffinity>
-6.06119

> <CNNscore>
0.7141151428

> <CNNaffinity>
5.8941040039

> <CNN_VS>
4.2090687752

> <CNNaffinity_variance>
0.2380084097

$$$$
[H]c1c([H])c(N([H])c2nc(N([H])[H])nc(C([H])([H])Cl)n2)c([H])c([H])c1OC([H])([H])[H]


 21 22  0  0  0  0  0  0  0  0999 V2000
   38.2144   11.5664  -16.4461 C   0  0  0  0  0  0  0  0  0  0  0  0
   38.3972   11.1172  -17.6925 N   0  0  0  0  0  0  0  0  0  0  0  0
   39.4957   11.2738  -18.4340 C   0  0  0  0  0  0  0  0  0  0  0  0
   39.6159   10.7658  -19.7557 N   0  0  0  0  0  0  0  0  0  0  0  0
   40.5415   11.9546  -17.8832 N   0  0  0  0  0  0  0  0  0  0  0  0
   40.4263   12.4373  -16.6261 C   0  0  0  0  0  0  0  0  0  0  0  0
   39.2982   12.2447  -15.9397 N   0  0  0  0  0  0  0  0  0  0  0  0
   38.9877    9.9995  -20.0771 H   0  0  0  0  0  0  0  0  0  0  0  0
   40.3289   11.1561  -20.4044 H   0  0  0  0  0  0  0  0  0  0  0  0
   37.0578   11.4046  -15.6577 N   0  0  0  0  0  0  0  0  0  0  0  0
   36.4939   10.5339  -15.8653 H   0  0  0  0  0  0  0  0  0  0  0  0
   35.4911   14.1244  -12.8885 C   0  0  0  0  0  0  0  0  0  0  0  0
   36.3860   13.1845  -12.4431 C   0  0  0  0  0  0  0  0  0  0  0  0
   36.9471   12.2544  -13.3291 C   0  0  0  0  0  0  0  0  0  0  0  0
   36.6039   12.2738  -14.6631 C   0  0  0  0  0  0  0  0  0  0  0  0
   35.6804   13.2527  -15.0938 C   0  0  0  0  0  0  0  0  0  0  0  0
   35.1357   14.1611  -14.2160 C   0  0  0  0  0  0  0  0  0  0  0  0
   35.7156   16.0953  -11.5370 C   0  0  0  0  0  0  0  0  0  0  0  0
   34.9543   15.0258  -12.0011 O   0  0  0  0  0  0  0  0  0  0  0  0
   41.5473   13.1889  -15.9842 C   0  0  0  0  0  0  0  0  0  0  0  0
   41.0578   13.6871  -14.3495 Cl  0  0  0  0  0  0  0  0  0  0  0  0
 18 19  1  0  0  0
 19 12  1  0  0  0
 12 13  2  0  0  0
 13 14  1  0  0  0
 14 15  2  0  0  0
 15 10  1  0  0  0
 10  1  1  0  0  0
  1  2  2  0  0  0
  2  3  1  0  0  0
  3  4  1  0  0  0
  3  5  2  0  0  0
  5  6  1  0  0  0
  6 20  1  0  0  0
 20 21  1  0  0  0
  6  7  2  0  0  0
 15 16  1  0  0  0
 16 17  2  0  0  0
 17 12  1  0  0  0
  7  1  1  0  0  0
 10 11  1  0  0  0
  4  8  1  0  0  0
  4  9  1  0  0  0
M  END
> <minimizedAffinity>
-6.34649

> <CNNscore>
0.7134382129

> <CNNaffinity>
6.0808014870

> <CNN_VS>
4.3382759094

> <CNNaffinity_variance>
0.2923683226

$$$$
[H]c1c([H])c(N([H])c2nc(N([H])[H])nc(C([H])([H])Cl)n2)c([H])c([H])c1OC([H])([H])[H]


 21 22  0  0  0  0  0  0  0  0999 V2000
   39.0694   11.8754  -15.8366 C   0  0  0  0  0  0  0  0  0  0  0  0
   40.2452   12.4784  -15.6298 N   0  0  0  0  0  0  0  0  0  0  0  0
   41.2097   12.6570  -16.5346 C   0  0  0  0  0  0  0  0  0  0  0  0
   42.4368   13.3098  -16.2389 N   0  0  0  0  0  0  0  0  0  0  0  0
   40.9917   12.1857  -17.7960 N   0  0  0  0  0  0  0  0  0  0  0  0
   39.8244   11.5650  -18.0764 C   0  0  0  0  0  0  0  0  0  0  0  0
   38.9019   11.4199  -17.1233 N   0  0  0  0  0  0  0  0  0  0  0  0
   42.5050   13.9377  -15.4105 H   0  0  0  0  0  0  0  0  0  0  0  0
   43.2681   13.1635  -16.8464 H   0  0  0  0  0  0  0  0  0  0  0  0
   38.0469   11.6835  -14.8862 N   0  0  0  0  0  0  0  0  0  0  0  0
   37.5261   10.7663  -14.9694 H   0  0  0  0  0  0  0  0  0  0  0  0
   37.1310   14.5657  -11.9924 C   0  0  0  0  0  0  0  0  0  0  0  0
   36.3429   13.4451  -12.0673 C   0  0  0  0  0  0  0  0  0  0  0  0
   36.6093   12.4450  -13.0127 C   0  0  0  0  0  0  0  0  0  0  0  0
   37.6702   12.5775  -13.8814 C   0  0  0  0  0  0  0  0  0  0  0  0
   38.4649   13.7415  -13.7814 C   0  0  0  0  0  0  0  0  0  0  0  0
   38.1950   14.7170  -12.8497 C   0  0  0  0  0  0  0  0  0  0  0  0
   36.0742   16.6373  -11.3980 C   0  0  0  0  0  0  0  0  0  0  0  0
   36.8503   15.5325  -11.0573 O   0  0  0  0  0  0  0  0  0  0  0  0
   39.5443   11.0336  -19.4449 C   0  0  0  0  0  0  0  0  0  0  0  0
   37.8206   10.6171  -19.5697 Cl  0  0  0  0  0  0  0  0  0  0  0  0
 18 19  1  0  0  0
 19 12  1  0  0  0
 12 13  2  0  0  0
 13 14  1  0  0  0
 14 15  2  0  0  0
 15 10  1  0  0  0
 10  1  1  0  0  0
  1  2  2  0  0  0
  2  3  1  0  0  0
  3  4  1  0  0  0
  3  5  2  0  0  0
  5  6  1  0  0  0
  6 20  1  0  0  0
 20 21  1  0  0  0
  6  7  2  0  0  0
 15 16  1  0  0  0
 16 17  2  0  0  0
 17 12  1  0  0  0
  7  1  1  0  0  0
 10 11  1  0  0  0
  4  8  1  0  0  0
  4  9  1  0  0  0
M  END
> <minimizedAffinity>
-5.99811

> <CNNscore>
0.6376271248

> <CNNaffinity>
5.8827733994

> <CNN_VS>
3.7510159016

> <CNNaffinity_variance>
0.3250629008

$$$$
[H]c1c([H])c(N([H])c2nc(N([H])[H])nc(C([H])([H])Cl)n2)c([H])c([H])c1OC([H])([H])[H]


 21 22  0  0  0  0  0  0  0  0999 V2000
   40.3778   13.1675  -15.0291 C   0  0  0  0  0  0  0  0  0  0  0  0
   39.8621   12.6381  -16.1439 N   0  0  0  0  0  0  0  0  0  0  0  0
   40.5505   12.1894  -17.1953 C   0  0  0  0  0  0  0  0  0  0  0  0
   39.9295   11.6379  -18.3485 N   0  0  0  0  0  0  0  0  0  0  0  0
   41.9111   12.2710  -17.1449 N   0  0  0  0  0  0  0  0  0  0  0  0
   42.5008   12.7956  -16.0478 C   0  0  0  0  0  0  0  0  0  0  0  0
   41.7518   13.2260  -15.0308 N   0  0  0  0  0  0  0  0  0  0  0  0
   38.9525   11.2810  -18.2922 H   0  0  0  0  0  0  0  0  0  0  0  0
   40.4466   11.5889  -19.2494 H   0  0  0  0  0  0  0  0  0  0  0  0
   39.6572   13.6430  -13.9155 N   0  0  0  0  0  0  0  0  0  0  0  0
   40.2508   14.0489  -13.1395 H   0  0  0  0  0  0  0  0  0  0  0  0
   35.5297   13.2618  -13.3331 C   0  0  0  0  0  0  0  0  0  0  0  0
   36.0355   14.5061  -13.6131 C   0  0  0  0  0  0  0  0  0  0  0  0
   37.4091   14.6892  -13.8244 C   0  0  0  0  0  0  0  0  0  0  0  0
   38.2703   13.6164  -13.7523 C   0  0  0  0  0  0  0  0  0  0  0  0
   37.7218   12.3468  -13.4628 C   0  0  0  0  0  0  0  0  0  0  0  0
   36.3721   12.1780  -13.2574 C   0  0  0  0  0  0  0  0  0  0  0  0
   33.3680   14.2180  -12.9159 C   0  0  0  0  0  0  0  0  0  0  0  0
   34.1797   13.1070  -13.1298 O   0  0  0  0  0  0  0  0  0  0  0  0
   43.9883   12.9039  -15.9506 C   0  0  0  0  0  0  0  0  0  0  0  0
   44.7313   11.9416  -17.2476 Cl  0  0  0  0  0  0  0  0  0  0  0  0
 18 19  1  0  0  0
 19 12  1  0  0  0
 12 13  2  0  0  0
 13 14  1  0  0  0
 14 15  2  0  0  0
 15 10  1  0  0  0
 10  1  1  0  0  0
  1  2  2  0  0  0
  2  3  1  0  0  0
  3  4  1  0  0  0
  3  5  2  0  0  0
  5  6  1  0  0  0
  6 20  1  0  0  0
 20 21  1  0  0  0
  6  7  2  0  0  0
 15 16  1  0  0  0
 16 17  2  0  0  0
 17 12  1  0  0  0
  7  1  1  0  0  0
 10 11  1  0  0  0
  4  8  1  0  0  0
  4  9  1  0  0  0
M  END
> <minimizedAffinity>
-6.19117

> <CNNscore>
0.6238559484

> <CNNaffinity>
5.7167377472

> <CNN_VS>
3.5664207935

> <CNNaffinity_variance>
0.2497430593

$$$$
[H]c1c([H])c(N([H])c2nc(N([H])[H])nc(C([H])([H])Cl)n2)c([H])c([H])c1OC([H])([H])[H]


 21 22  0  0  0  0  0  0  0  0999 V2000
   38.5754   11.7524  -16.3642 C   0  0  0  0  0  0  0  0  0  0  0  0
   38.9673   11.3780  -17.5869 N   0  0  0  0  0  0  0  0  0  0  0  0
   38.1810   10.9103  -18.5584 C   0  0  0  0  0  0  0  0  0  0  0  0
   38.6725   10.5316  -19.8369 N   0  0  0  0  0  0  0  0  0  0  0  0
   36.8472   10.7969  -18.2959 N   0  0  0  0  0  0  0  0  0  0  0  0
   36.3806   11.1573  -17.0798 C   0  0  0  0  0  0  0  0  0  0  0  0
   37.2232   11.6178  -16.1532 N   0  0  0  0  0  0  0  0  0  0  0  0
   39.5937   10.8894  -20.1663 H   0  0  0  0  0  0  0  0  0  0  0  0
   38.1161    9.8983  -20.4458 H   0  0  0  0  0  0  0  0  0  0  0  0
   39.3999   12.2470  -15.3342 N   0  0  0  0  0  0  0  0  0  0  0  0
   40.3921   11.8798  -15.3410 H   0  0  0  0  0  0  0  0  0  0  0  0
   38.5098   15.1335  -12.4366 C   0  0  0  0  0  0  0  0  0  0  0  0
   37.6671   14.0583  -12.5649 C   0  0  0  0  0  0  0  0  0  0  0  0
   37.9219   13.0587  -13.5139 C   0  0  0  0  0  0  0  0  0  0  0  0
   39.0266   13.1458  -14.3325 C   0  0  0  0  0  0  0  0  0  0  0  0
   39.8770   14.2635  -14.1781 C   0  0  0  0  0  0  0  0  0  0  0  0
   39.6180   15.2389  -13.2433 C   0  0  0  0  0  0  0  0  0  0  0  0
   38.1302   15.7649  -10.1522 C   0  0  0  0  0  0  0  0  0  0  0  0
   38.2393   16.1008  -11.4990 O   0  0  0  0  0  0  0  0  0  0  0  0
   34.9270   11.0493  -16.7499 C   0  0  0  0  0  0  0  0  0  0  0  0
   34.6146   11.8713  -15.2049 Cl  0  0  0  0  0  0  0  0  0  0  0  0
 18 19  1  0  0  0
 19 12  1  0  0  0
 12 13  2  0  0  0
 13 14  1  0  0  0
 14 15  2  0  0  0
 15 10  1  0  0  0
 10  1  1  0  0  0
  1  2  2  0  0  0
  2  3  1  0  0  0
  3  4  1  0  0  0
  3  5  2  0  0  0
  5  6  1  0  0  0
  6 20  1  0  0  0
 20 21  1  0  0  0
  6  7  2  0  0  0
 15 16  1  0  0  0
 16 17  2  0  0  0
 17 12  1  0  0  0
  7  1  1  0  0  0
 10 11  1  0  0  0
  4  8  1  0  0  0
  4  9  1  0  0  0
M  END
> <minimizedAffinity>
-6.02681

> <CNNscore>
0.5744137764

> <CNNaffinity>
6.0113730431

> <CNN_VS>
3.4530155659

> <CNNaffinity_variance>
0.3102265596

$$$$
[H]c1c([H])c(N([H])c2nc(N([H])[H])nc(C([H])([H])Cl)n2)c([H])c([H])c1OC([H])([H])[H]


 21 22  0  0  0  0  0  0  0  0999 V2000
   40.3455   12.4190  -16.5678 C   0  0  0  0  0  0  0  0  0  0  0  0
   39.5247   11.6308  -17.2705 N   0  0  0  0  0  0  0  0  0  0  0  0
   38.2398   11.3910  -17.0015 C   0  0  0  0  0  0  0  0  0  0  0  0
   37.4286   10.5381  -17.7978 N   0  0  0  0  0  0  0  0  0  0  0  0
   37.6957   12.0002  -15.9090 N   0  0  0  0  0  0  0  0  0  0  0  0
   38.4679   12.8111  -15.1522 C   0  0  0  0  0  0  0  0  0  0  0  0
   39.7468   13.0073  -15.4785 N   0  0  0  0  0  0  0  0  0  0  0  0
   37.7095   10.3191  -18.7767 H   0  0  0  0  0  0  0  0  0  0  0  0
   36.5549   10.1312  -17.4074 H   0  0  0  0  0  0  0  0  0  0  0  0
   41.7026   12.6766  -16.8460 N   0  0  0  0  0  0  0  0  0  0  0  0
   41.9458   12.7284  -17.8744 H   0  0  0  0  0  0  0  0  0  0  0  0
   44.9652   13.1494  -14.2668 C   0  0  0  0  0  0  0  0  0  0  0  0
   43.7160   13.4765  -13.8031 C   0  0  0  0  0  0  0  0  0  0  0  0
   42.5878   13.3304  -14.6222 C   0  0  0  0  0  0  0  0  0  0  0  0
   42.7221   12.8551  -15.9082 C   0  0  0  0  0  0  0  0  0  0  0  0
   44.0201   12.5260  -16.3590 C   0  0  0  0  0  0  0  0  0  0  0  0
   45.1207   12.6727  -15.5469 C   0  0  0  0  0  0  0  0  0  0  0  0
   46.6703   12.1877  -12.8779 C   0  0  0  0  0  0  0  0  0  0  0  0
   46.0562   13.3011  -13.4454 O   0  0  0  0  0  0  0  0  0  0  0  0
   37.9124   13.4984  -13.9469 C   0  0  0  0  0  0  0  0  0  0  0  0
   39.0379   14.7732  -13.4292 Cl  0  0  0  0  0  0  0  0  0  0  0  0
 18 19  1  0  0  0
 19 12  1  0  0  0
 12 13  2  0  0  0
 13 14  1  0  0  0
 14 15  2  0  0  0
 15 10  1  0  0  0
 10  1  1  0  0  0
  1  2  2  0  0  0
  2  3  1  0  0  0
  3  4  1  0  0  0
  3  5  2  0  0  0
  5  6  1  0  0  0
  6 20  1  0  0  0
 20 21  1  0  0  0
  6  7  2  0  0  0
 15 16  1  0  0  0
 16 17  2  0  0  0
 17 12  1  0  0  0
  7  1  1  0  0  0
 10 11  1  0  0  0
  4  8  1  0  0  0
  4  9  1  0  0  0
M  END
> <minimizedAffinity>
-5.81354

> <CNNscore>
0.5461487174

> <CNNaffinity>
5.5274610519

> <CNN_VS>
3.0188157558

> <CNNaffinity_variance>
0.4133348465

$$$$
[H]c1c([H])c(N([H])c2nc(N([H])[H])nc(C([H])([H])Cl)n2)c([H])c([H])c1OC([H])([H])[H]


 21 22  0  0  0  0  0  0  0  0999 V2000
   40.2443   12.9168  -16.1957 C   0  0  0  0  0  0  0  0  0  0  0  0
   39.7542   13.1645  -14.9762 N   0  0  0  0  0  0  0  0  0  0  0  0
   38.5851   12.7379  -14.4946 C   0  0  0  0  0  0  0  0  0  0  0  0
   38.1307   13.0432  -13.1832 N   0  0  0  0  0  0  0  0  0  0  0  0
   37.8026   11.9752  -15.3111 N   0  0  0  0  0  0  0  0  0  0  0  0
   38.2356   11.6853  -16.5582 C   0  0  0  0  0  0  0  0  0  0  0  0
   39.4165   12.1447  -16.9765 N   0  0  0  0  0  0  0  0  0  0  0  0
   38.8119   13.3405  -12.4533 H   0  0  0  0  0  0  0  0  0  0  0  0
   37.1202   12.9711  -12.9485 H   0  0  0  0  0  0  0  0  0  0  0  0
   41.4775   13.3638  -16.7105 N   0  0  0  0  0  0  0  0  0  0  0  0
   41.4056   14.0040  -17.5498 H   0  0  0  0  0  0  0  0  0  0  0  0
   45.2010   12.5297  -14.9900 C   0  0  0  0  0  0  0  0  0  0  0  0
   44.8969   11.9509  -16.1963 C   0  0  0  0  0  0  0  0  0  0  0  0
   43.6672   12.2019  -16.8205 C   0  0  0  0  0  0  0  0  0  0  0  0
   42.7459   13.0362  -16.2263 C   0  0  0  0  0  0  0  0  0  0  0  0
   43.0860   13.6185  -14.9847 C   0  0  0  0  0  0  0  0  0  0  0  0
   44.2958   13.3658  -14.3806 C   0  0  0  0  0  0  0  0  0  0  0  0
   46.5064   12.1371  -13.0144 C   0  0  0  0  0  0  0  0  0  0  0  0
   46.4129   12.2686  -14.3974 O   0  0  0  0  0  0  0  0  0  0  0  0
   37.4104   10.8531  -17.4856 C   0  0  0  0  0  0  0  0  0  0  0  0
   35.6903   11.0674  -17.0909 Cl  0  0  0  0  0  0  0  0  0  0  0  0
 18 19  1  0  0  0
 19 12  1  0  0  0
 12 13  2  0  0  0
 13 14  1  0  0  0
 14 15  2  0  0  0
 15 10  1  0  0  0
 10  1  1  0  0  0
  1  2  2  0  0  0
  2  3  1  0  0  0
  3  4  1  0  0  0
  3  5  2  0  0  0
  5  6  1  0  0  0
  6 20  1  0  0  0
 20 21  1  0  0  0
  6  7  2  0  0  0
 15 16  1  0  0  0
 16 17  2  0  0  0
 17 12  1  0  0  0
  7  1  1  0  0  0
 10 11  1  0  0  0
  4  8  1  0  0  0
  4  9  1  0  0  0
M  END
> <minimizedAffinity>
-6.05270

> <CNNscore>
0.4863724411

> <CNNaffinity>
5.6022887230

> <CNN_VS>
2.7247989178

> <CNNaffinity_variance>
0.1640207022

$$$$
[H]c1c([H])c(N([H])c2nc(N([H])[H])nc(C([H])([H])Cl)n2)c([H])c([H])c1OC([H])([H])[H]


 21 22  0  0  0  0  0  0  0  0999 V2000
   40.9609   12.6958  -15.9388 C   0  0  0  0  0  0  0  0  0  0  0  0
   40.7438   13.3913  -14.8172 N   0  0  0  0  0  0  0  0  0  0  0  0
   41.6768   13.9396  -14.0363 C   0  0  0  0  0  0  0  0  0  0  0  0
   41.3675   14.6671  -12.8554 N   0  0  0  0  0  0  0  0  0  0  0  0
   42.9817   13.7853  -14.4024 N   0  0  0  0  0  0  0  0  0  0  0  0
   43.2749   13.0933  -15.5257 C   0  0  0  0  0  0  0  0  0  0  0  0
   42.2919   12.5707  -16.2613 N   0  0  0  0  0  0  0  0  0  0  0  0
   40.4123   15.0611  -12.7229 H   0  0  0  0  0  0  0  0  0  0  0  0
   42.0912   14.8083  -12.1221 H   0  0  0  0  0  0  0  0  0  0  0  0
   39.9810   12.1146  -16.7679 N   0  0  0  0  0  0  0  0  0  0  0  0
   40.3384   11.7522  -17.6955 H   0  0  0  0  0  0  0  0  0  0  0  0
   35.8860   11.5201  -16.1371 C   0  0  0  0  0  0  0  0  0  0  0  0
   36.5745   12.3056  -15.2474 C   0  0  0  0  0  0  0  0  0  0  0  0
   37.9456   12.5438  -15.4153 C   0  0  0  0  0  0  0  0  0  0  0  0
   38.6200   11.9885  -16.4804 C   0  0  0  0  0  0  0  0  0  0  0  0
   37.8859   11.1843  -17.3809 C   0  0  0  0  0  0  0  0  0  0  0  0
   36.5403   10.9571  -17.2071 C   0  0  0  0  0  0  0  0  0  0  0  0
   33.7747   10.7353  -16.9665 C   0  0  0  0  0  0  0  0  0  0  0  0
   34.5423   11.3009  -15.9518 O   0  0  0  0  0  0  0  0  0  0  0  0
   44.6907   12.9003  -15.9635 C   0  0  0  0  0  0  0  0  0  0  0  0
   44.7175   11.9058  -17.4368 Cl  0  0  0  0  0  0  0  0  0  0  0  0
 18 19  1  0  0  0
 19 12  1  0  0  0
 12 13  2  0  0  0
 13 14  1  0  0  0
 14 15  2  0  0  0
 15 10  1  0  0  0
 10  1  1  0  0  0
  1  2  2  0  0  0
  2  3  1  0  0  0
  3  4  1  0  0  0
  3  5  2  0  0  0
  5  6  1  0  0  0
  6 20  1  0  0  0
 20 21  1  0  0  0
  6  7  2  0  0  0
 15 16  1  0  0  0
 16 17  2  0  0  0
 17 12  1  0  0  0
  7  1  1  0  0  0
 10 11  1  0  0  0
  4  8  1  0  0  0
  4  9  1  0  0  0
M  END
> <minimizedAffinity>
-6.87406

> <CNNscore>
0.4618467391

> <CNNaffinity>
5.5927329063

> <CNN_VS>
2.5829854012

> <CNNaffinity_variance>
0.0582082942

$$$$
[H]c1nc2sc3c(=O)n(C4([H])C([H])([H])C([H])([H])C([H])([H])C([H])([H])C4([H])[H])c([H])nc3c2c(N(C([H])([H])[H])C([H])([H])[H])c1[H]


 23 26  0  0  0  0  0  0  0  0999 V2000
   35.4393   12.1992  -15.0513 C   0  0  0  0  0  0  0  0  0  0  0  0
   34.1634   11.7503  -15.3268 C   0  0  0  0  0  0  0  0  0  0  0  0
   33.8197   10.9761  -16.4108 C   0  0  0  0  0  0  0  0  0  0  0  0
   34.8362   10.6611  -17.2310 N   0  0  0  0  0  0  0  0  0  0  0  0
   36.1224   11.0810  -17.0054 C   0  0  0  0  0  0  0  0  0  0  0  0
   37.5890   10.8600  -17.8492 S   0  0  0  0  0  0  0  0  0  0  0  0
   38.6292   11.7467  -16.8322 C   0  0  0  0  0  0  0  0  0  0  0  0
   40.0033   12.0559  -16.8364 C   0  0  0  0  0  0  0  0  0  0  0  0
   40.6459   11.5797  -17.7917 O   0  0  0  0  0  0  0  0  0  0  0  0
   40.5552   12.8081  -15.8732 N   0  0  0  0  0  0  0  0  0  0  0  0
   39.7220   13.2424  -14.9156 C   0  0  0  0  0  0  0  0  0  0  0  0
   38.4245   12.9606  -14.8958 N   0  0  0  0  0  0  0  0  0  0  0  0
   37.7959   12.1978  -15.8475 C   0  0  0  0  0  0  0  0  0  0  0  0
   36.4873   11.8517  -15.9346 C   0  0  0  0  0  0  0  0  0  0  0  0
   41.9649   13.1019  -15.9133 C   0  0  0  0  0  0  0  0  0  0  0  0
   42.5362   13.3719  -14.5434 C   0  0  0  0  0  0  0  0  0  0  0  0
   43.9678   13.7895  -14.7155 C   0  0  0  0  0  0  0  0  0  0  0  0
   44.4765   13.6922  -16.1084 C   0  0  0  0  0  0  0  0  0  0  0  0
   44.1168   12.4310  -16.8273 C   0  0  0  0  0  0  0  0  0  0  0  0
   42.7532   11.8996  -16.4508 C   0  0  0  0  0  0  0  0  0  0  0  0
   35.5896   14.4044  -13.7908 C   0  0  0  0  0  0  0  0  0  0  0  0
   35.6262   12.9599  -13.8715 N   0  0  0  0  0  0  0  0  0  0  0  0
   35.8746   12.2271  -12.6444 C   0  0  0  0  0  0  0  0  0  0  0  0
 21 22  1  0  0  0
 22 23  1  0  0  0
 22  1  1  0  0  0
  1  2  2  0  0  0
  2  3  1  0  0  0
  3  4  2  0  0  0
  4  5  1  0  0  0
  5  6  1  0  0  0
  6  7  1  0  0  0
  7  8  1  0  0  0
  8  9  2  0  0  0
  8 10  1  0  0  0
 10 15  1  0  0  0
 15 16  1  0  0  0
 16 17  1  0  0  0
 17 18  1  0  0  0
 18 19  1  0  0  0
 19 20  1  0  0  0
 10 11  1  0  0  0
 11 12  2  0  0  0
 12 13  1  0  0  0
 13 14  1  0  0  0
 14  1  1  0  0  0
 14  5  2  0  0  0
 13  7  2  0  0  0
 20 15  1  0  0  0
M  END
> <minimizedAffinity>
-8.58036

> <CNNscore>
0.8626661897

> <CNNaffinity>
7.2233686447

> <CNN_VS>
6.2313556671

> <CNNaffinity_variance>
0.1326909810

$$$$
[H]c1nc2sc3c(=O)n(C4([H])C([H])([H])C([H])([H])C([H])([H])C([H])([H])C4([H])[H])c([H])nc3c2c(N(C([H])([H])[H])C([H])([H])[H])c1[H]


 23 26  0  0  0  0  0  0  0  0999 V2000
   36.2022   12.1370  -15.3457 C   0  0  0  0  0  0  0  0  0  0  0  0
   35.2588   11.4462  -16.0792 C   0  0  0  0  0  0  0  0  0  0  0  0
   35.5198   10.7459  -17.2342 C   0  0  0  0  0  0  0  0  0  0  0  0
   36.8019   10.7668  -17.6355 N   0  0  0  0  0  0  0  0  0  0  0  0
   37.7792   11.4375  -16.9454 C   0  0  0  0  0  0  0  0  0  0  0  0
   39.4523   11.6538  -17.2021 S   0  0  0  0  0  0  0  0  0  0  0  0
   39.8151   12.6283  -15.8526 C   0  0  0  0  0  0  0  0  0  0  0  0
   40.9796   13.2387  -15.3473 C   0  0  0  0  0  0  0  0  0  0  0  0
   42.0116   13.0348  -16.0150 O   0  0  0  0  0  0  0  0  0  0  0  0
   40.9541   13.9790  -14.2295 N   0  0  0  0  0  0  0  0  0  0  0  0
   39.7597   14.0990  -13.6303 C   0  0  0  0  0  0  0  0  0  0  0  0
   38.6522   13.5306  -14.0923 N   0  0  0  0  0  0  0  0  0  0  0  0
   38.6071   12.7615  -15.2278 C   0  0  0  0  0  0  0  0  0  0  0  0
   37.5429   12.1408  -15.7951 C   0  0  0  0  0  0  0  0  0  0  0  0
   42.1670   14.5867  -13.7451 C   0  0  0  0  0  0  0  0  0  0  0  0
   41.9033   15.6595  -12.7179 C   0  0  0  0  0  0  0  0  0  0  0  0
   43.2150   16.3074  -12.3813 C   0  0  0  0  0  0  0  0  0  0  0  0
   44.4004   15.6613  -13.0023 C   0  0  0  0  0  0  0  0  0  0  0  0
   44.4192   14.1677  -12.9278 C   0  0  0  0  0  0  0  0  0  0  0  0
   43.0443   13.5493  -13.0309 C   0  0  0  0  0  0  0  0  0  0  0  0
   35.8337   12.2105  -12.8291 C   0  0  0  0  0  0  0  0  0  0  0  0
   35.7698   12.7777  -14.1591 N   0  0  0  0  0  0  0  0  0  0  0  0
   35.2180   14.1127  -14.2915 C   0  0  0  0  0  0  0  0  0  0  0  0
 21 22  1  0  0  0
 22 23  1  0  0  0
 22  1  1  0  0  0
  1  2  2  0  0  0
  2  3  1  0  0  0
  3  4  2  0  0  0
  4  5  1  0  0  0
  5  6  1  0  0  0
  6  7  1  0  0  0
  7  8  1  0  0  0
  8  9  2  0  0  0
  8 10  1  0  0  0
 10 15  1  0  0  0
 15 16  1  0  0  0
 16 17  1  0  0  0
 17 18  1  0  0  0
 18 19  1  0  0  0
 19 20  1  0  0  0
 10 11  1  0  0  0
 11 12  2  0  0  0
 12 13  1  0  0  0
 13 14  1  0  0  0
 14  1  1  0  0  0
 14  5  2  0  0  0
 13  7  2  0  0  0
 20 15  1  0  0  0
M  END
> <minimizedAffinity>
-7.89932

> <CNNscore>
0.5481915474

> <CNNaffinity>
6.6563019753

> <CNN_VS>
3.6489284039

> <CNNaffinity_variance>
0.1145153195

$$$$
[H]c1nc2sc3c(=O)n(C4([H])C([H])([H])C([H])([H])C([H])([H])C([H])([H])C4([H])[H])c([H])nc3c2c(N(C([H])([H])[H])C([H])([H])[H])c1[H]


 23 26  0  0  0  0  0  0  0  0999 V2000
   37.6094   12.4614  -15.4888 C   0  0  0  0  0  0  0  0  0  0  0  0
   36.9033   11.7094  -16.4060 C   0  0  0  0  0  0  0  0  0  0  0  0
   37.4606   11.0495  -17.4767 C   0  0  0  0  0  0  0  0  0  0  0  0
   38.7929   11.1778  -17.5941 N   0  0  0  0  0  0  0  0  0  0  0  0
   39.5430   11.9132  -16.7120 C   0  0  0  0  0  0  0  0  0  0  0  0
   41.2094   12.2649  -16.6047 S   0  0  0  0  0  0  0  0  0  0  0  0
   41.1957   13.2445  -15.2109 C   0  0  0  0  0  0  0  0  0  0  0  0
   42.1723   13.9372  -14.4690 C   0  0  0  0  0  0  0  0  0  0  0  0
   43.3361   13.8257  -14.8997 O   0  0  0  0  0  0  0  0  0  0  0  0
   41.8490   14.6561  -13.3842 N   0  0  0  0  0  0  0  0  0  0  0  0
   40.5484   14.6722  -13.0551 C   0  0  0  0  0  0  0  0  0  0  0  0
   39.6146   14.0251  -13.7425 N   0  0  0  0  0  0  0  0  0  0  0  0
   39.8754   13.2722  -14.8596 C   0  0  0  0  0  0  0  0  0  0  0  0
   39.0104   12.5780  -15.6405 C   0  0  0  0  0  0  0  0  0  0  0  0
   42.8774   15.3503  -12.6524 C   0  0  0  0  0  0  0  0  0  0  0  0
   43.0313   16.7842  -13.0952 C   0  0  0  0  0  0  0  0  0  0  0  0
   44.2051   17.3685  -12.3643 C   0  0  0  0  0  0  0  0  0  0  0  0
   44.7960   16.4774  -11.3322 C   0  0  0  0  0  0  0  0  0  0  0  0
   43.8058   15.7893  -10.4476 C   0  0  0  0  0  0  0  0  0  0  0  0
   42.5247   15.4230  -11.1604 C   0  0  0  0  0  0  0  0  0  0  0  0
   36.2845   14.3652  -14.4425 C   0  0  0  0  0  0  0  0  0  0  0  0
   36.8833   13.0477  -14.4237 N   0  0  0  0  0  0  0  0  0  0  0  0
   36.7289   12.2596  -13.2156 C   0  0  0  0  0  0  0  0  0  0  0  0
 21 22  1  0  0  0
 22 23  1  0  0  0
 22  1  1  0  0  0
  1  2  2  0  0  0
  2  3  1  0  0  0
  3  4  2  0  0  0
  4  5  1  0  0  0
  5  6  1  0  0  0
  6  7  1  0  0  0
  7  8  1  0  0  0
  8  9  2  0  0  0
  8 10  1  0  0  0
 10 15  1  0  0  0
 15 16  1  0  0  0
 16 17  1  0  0  0
 17 18  1  0  0  0
 18 19  1  0  0  0
 19 20  1  0  0  0
 10 11  1  0  0  0
 11 12  2  0  0  0
 12 13  1  0  0  0
 13 14  1  0  0  0
 14  1  1  0  0  0
 14  5  2  0  0  0
 13  7  2  0  0  0
 20 15  1  0  0  0
M  END
> <minimizedAffinity>
-6.48785

> <CNNscore>
0.4205675423

> <CNNaffinity>
6.3411321640

> <CNN_VS>
2.6668744087

> <CNNaffinity_variance>
0.2188092023

$$$$
[H]c1nc2sc3c(=O)n(C4([H])C([H])([H])C([H])([H])C([H])([H])C([H])([H])C4([H])[H])c([H])nc3c2c(N(C([H])([H])[H])C([H])([H])[H])c1[H]


 23 26  0  0  0  0  0  0  0  0999 V2000
   43.5803   14.3718  -13.8277 C   0  0  0  0  0  0  0  0  0  0  0  0
   44.9222   14.3384  -14.1498 C   0  0  0  0  0  0  0  0  0  0  0  0
   45.4490   13.7177  -15.2588 C   0  0  0  0  0  0  0  0  0  0  0  0
   44.5501   13.1145  -16.0547 N   0  0  0  0  0  0  0  0  0  0  0  0
   43.2058   13.1162  -15.7819 C   0  0  0  0  0  0  0  0  0  0  0  0
   41.8515   12.4456  -16.5744 S   0  0  0  0  0  0  0  0  0  0  0  0
   40.6268   12.9492  -15.5025 C   0  0  0  0  0  0  0  0  0  0  0  0
   39.2282   12.7940  -15.4423 C   0  0  0  0  0  0  0  0  0  0  0  0
   38.7307   12.1456  -16.3828 O   0  0  0  0  0  0  0  0  0  0  0  0
   38.5080   13.3143  -14.4380 N   0  0  0  0  0  0  0  0  0  0  0  0
   39.1992   13.9853  -13.5042 C   0  0  0  0  0  0  0  0  0  0  0  0
   40.5172   14.1416  -13.5451 N   0  0  0  0  0  0  0  0  0  0  0  0
   41.3137   13.6369  -14.5419 C   0  0  0  0  0  0  0  0  0  0  0  0
   42.6596   13.7265  -14.6851 C   0  0  0  0  0  0  0  0  0  0  0  0
   37.0791   13.1334  -14.4127 C   0  0  0  0  0  0  0  0  0  0  0  0
   36.6221   12.3228  -13.2254 C   0  0  0  0  0  0  0  0  0  0  0  0
   35.1461   12.0888  -13.3679 C   0  0  0  0  0  0  0  0  0  0  0  0
   34.5144   12.8046  -14.5068 C   0  0  0  0  0  0  0  0  0  0  0  0
   34.9247   14.2344  -14.6620 C   0  0  0  0  0  0  0  0  0  0  0  0
   36.3648   14.4853  -14.2790 C   0  0  0  0  0  0  0  0  0  0  0  0
   42.7629   16.4642  -12.6327 C   0  0  0  0  0  0  0  0  0  0  0  0
   43.2028   15.0858  -12.6645 N   0  0  0  0  0  0  0  0  0  0  0  0
   43.2632   14.3733  -11.4023 C   0  0  0  0  0  0  0  0  0  0  0  0
 21 22  1  0  0  0
 22 23  1  0  0  0
 22  1  1  0  0  0
  1  2  2  0  0  0
  2  3  1  0  0  0
  3  4  2  0  0  0
  4  5  1  0  0  0
  5  6  1  0  0  0
  6  7  1  0  0  0
  7  8  1  0  0  0
  8  9  2  0  0  0
  8 10  1  0  0  0
 10 15  1  0  0  0
 15 16  1  0  0  0
 16 17  1  0  0  0
 17 18  1  0  0  0
 18 19  1  0  0  0
 19 20  1  0  0  0
 10 11  1  0  0  0
 11 12  2  0  0  0
 12 13  1  0  0  0
 13 14  1  0  0  0
 14  1  1  0  0  0
 14  5  2  0  0  0
 13  7  2  0  0  0
 20 15  1  0  0  0
M  END
> <minimizedAffinity>
-6.44789

> <CNNscore>
0.3187035918

> <CNNaffinity>
6.2596387863

> <CNN_VS>
1.9949693680

> <CNNaffinity_variance>
0.0838851631

$$$$
[H]c1nc2sc3c(=O)n(C4([H])C([H])([H])C([H])([H])C([H])([H])C([H])([H])C4([H])[H])c([H])nc3c2c(N(C([H])([H])[H])C([H])([H])[H])c1[H]


 23 26  0  0  0  0  0  0  0  0999 V2000
   39.5292   12.1314  -17.2260 C   0  0  0  0  0  0  0  0  0  0  0  0
   39.6664   11.4185  -18.4000 C   0  0  0  0  0  0  0  0  0  0  0  0
   38.6982   10.6067  -18.9442 C   0  0  0  0  0  0  0  0  0  0  0  0
   37.5539   10.5365  -18.2435 N   0  0  0  0  0  0  0  0  0  0  0  0
   37.3645   11.2229  -17.0711 C   0  0  0  0  0  0  0  0  0  0  0  0
   36.0610   11.3258  -15.9746 S   0  0  0  0  0  0  0  0  0  0  0  0
   36.7436   12.3908  -14.8333 C   0  0  0  0  0  0  0  0  0  0  0  0
   36.3104   12.9676  -13.6236 C   0  0  0  0  0  0  0  0  0  0  0  0
   35.1560   12.6535  -13.2756 O   0  0  0  0  0  0  0  0  0  0  0  0
   37.0996   13.7903  -12.9174 N   0  0  0  0  0  0  0  0  0  0  0  0
   38.3157   14.0255  -13.4329 C   0  0  0  0  0  0  0  0  0  0  0  0
   38.7404   13.4907  -14.5717 N   0  0  0  0  0  0  0  0  0  0  0  0
   37.9862   12.6428  -15.3432 C   0  0  0  0  0  0  0  0  0  0  0  0
   38.3131   12.0354  -16.5111 C   0  0  0  0  0  0  0  0  0  0  0  0
   36.6194   14.3601  -11.6846 C   0  0  0  0  0  0  0  0  0  0  0  0
   37.7411   14.8247  -10.7893 C   0  0  0  0  0  0  0  0  0  0  0  0
   37.1375   15.2773   -9.4916 C   0  0  0  0  0  0  0  0  0  0  0  0
   35.6516   15.2919   -9.4733 C   0  0  0  0  0  0  0  0  0  0  0  0
   35.0092   15.8855  -10.6864 C   0  0  0  0  0  0  0  0  0  0  0  0
   35.7759   15.6125  -11.9597 C   0  0  0  0  0  0  0  0  0  0  0  0
   41.6997   12.5352  -15.9610 C   0  0  0  0  0  0  0  0  0  0  0  0
   40.6141   12.9482  -16.8243 N   0  0  0  0  0  0  0  0  0  0  0  0
   40.6356   14.3108  -17.3213 C   0  0  0  0  0  0  0  0  0  0  0  0
 21 22  1  0  0  0
 22 23  1  0  0  0
 22  1  1  0  0  0
  1  2  2  0  0  0
  2  3  1  0  0  0
  3  4  2  0  0  0
  4  5  1  0  0  0
  5  6  1  0  0  0
  6  7  1  0  0  0
  7  8  1  0  0  0
  8  9  2  0  0  0
  8 10  1  0  0  0
 10 15  1  0  0  0
 15 16  1  0  0  0
 16 17  1  0  0  0
 17 18  1  0  0  0
 18 19  1  0  0  0
 19 20  1  0  0  0
 10 11  1  0  0  0
 11 12  2  0  0  0
 12 13  1  0  0  0
 13 14  1  0  0  0
 14  1  1  0  0  0
 14  5  2  0  0  0
 13  7  2  0  0  0
 20 15  1  0  0  0
M  END
> <minimizedAffinity>
-7.14939

> <CNNscore>
0.3151581287

> <CNNaffinity>
6.4802589417

> <CNN_VS>
2.0423061848

> <CNNaffinity_variance>
0.0690461174

$$$$
[H]c1nc2sc3c(=O)n(C4([H])C([H])([H])C([H])([H])C([H])([H])C([H])([H])C4([H])[H])c([H])nc3c2c(N(C([H])([H])[H])C([H])([H])[H])c1[H]


 23 26  0  0  0  0  0  0  0  0999 V2000
   36.1439   15.9835   -9.2099 C   0  0  0  0  0  0  0  0  0  0  0  0
   35.3495   16.0756  -10.3350 C   0  0  0  0  0  0  0  0  0  0  0  0
   35.8202   16.2164  -11.6200 C   0  0  0  0  0  0  0  0  0  0  0  0
   37.1581   16.2625  -11.7346 N   0  0  0  0  0  0  0  0  0  0  0  0
   37.9940   16.1764  -10.6505 C   0  0  0  0  0  0  0  0  0  0  0  0
   39.6912   16.2142  -10.4774 S   0  0  0  0  0  0  0  0  0  0  0  0
   39.7998   16.0543   -8.7847 C   0  0  0  0  0  0  0  0  0  0  0  0
   40.8552   16.0051   -7.8531 C   0  0  0  0  0  0  0  0  0  0  0  0
   41.9960   16.0886   -8.3470 O   0  0  0  0  0  0  0  0  0  0  0  0
   40.6240   15.8775   -6.5385 N   0  0  0  0  0  0  0  0  0  0  0  0
   39.3356   15.8006   -6.1722 C   0  0  0  0  0  0  0  0  0  0  0  0
   38.3284   15.8450   -7.0364 N   0  0  0  0  0  0  0  0  0  0  0  0
   38.4932   15.9737   -8.3925 C   0  0  0  0  0  0  0  0  0  0  0  0
   37.5485   16.0364   -9.3638 C   0  0  0  0  0  0  0  0  0  0  0  0
   41.7310   15.8310   -5.6178 C   0  0  0  0  0  0  0  0  0  0  0  0
   41.3859   16.4187   -4.2720 C   0  0  0  0  0  0  0  0  0  0  0  0
   42.6370   16.4364   -3.4426 C   0  0  0  0  0  0  0  0  0  0  0  0
   43.8051   15.7678   -4.0724 C   0  0  0  0  0  0  0  0  0  0  0  0
   43.5116   14.4462   -4.7081 C   0  0  0  0  0  0  0  0  0  0  0  0
   42.1375   14.3787   -5.3331 C   0  0  0  0  0  0  0  0  0  0  0  0
   35.1841   14.5317   -7.3537 C   0  0  0  0  0  0  0  0  0  0  0  0
   35.4965   15.8068   -7.9629 N   0  0  0  0  0  0  0  0  0  0  0  0
   35.1168   17.0052   -7.2390 C   0  0  0  0  0  0  0  0  0  0  0  0
 21 22  1  0  0  0
 22 23  1  0  0  0
 22  1  1  0  0  0
  1  2  2  0  0  0
  2  3  1  0  0  0
  3  4  2  0  0  0
  4  5  1  0  0  0
  5  6  1  0  0  0
  6  7  1  0  0  0
  7  8  1  0  0  0
  8  9  2  0  0  0
  8 10  1  0  0  0
 10 15  1  0  0  0
 15 16  1  0  0  0
 16 17  1  0  0  0
 17 18  1  0  0  0
 18 19  1  0  0  0
 19 20  1  0  0  0
 10 11  1  0  0  0
 11 12  2  0  0  0
 12 13  1  0  0  0
 13 14  1  0  0  0
 14  1  1  0  0  0
 14  5  2  0  0  0
 13  7  2  0  0  0
 20 15  1  0  0  0
M  END
> <minimizedAffinity>
-4.84747

> <CNNscore>
0.2595036030

> <CNNaffinity>
4.9817595482

> <CNN_VS>
1.2927845716

> <CNNaffinity_variance>
0.3685835302

$$$$
[H]c1nc2sc3c(=O)n(C4([H])C([H])([H])C([H])([H])C([H])([H])C([H])([H])C4([H])[H])c([H])nc3c2c(N(C([H])([H])[H])C([H])([H])[H])c1[H]


 23 26  0  0  0  0  0  0  0  0999 V2000
   35.5918   11.9014  -15.8762 C   0  0  0  0  0  0  0  0  0  0  0  0
   35.6318   11.0825  -16.9866 C   0  0  0  0  0  0  0  0  0  0  0  0
   36.7716   10.7657  -17.6887 C   0  0  0  0  0  0  0  0  0  0  0  0
   37.9022   11.3192  -17.2190 N   0  0  0  0  0  0  0  0  0  0  0  0
   37.9196   12.1405  -16.1206 C   0  0  0  0  0  0  0  0  0  0  0  0
   39.1631   12.9822  -15.3101 S   0  0  0  0  0  0  0  0  0  0  0  0
   38.2398   13.7317  -14.0902 C   0  0  0  0  0  0  0  0  0  0  0  0
   38.5213   14.6011  -13.0183 C   0  0  0  0  0  0  0  0  0  0  0  0
   39.7212   14.9137  -12.8968 O   0  0  0  0  0  0  0  0  0  0  0  0
   37.5533   15.0452  -12.2036 N   0  0  0  0  0  0  0  0  0  0  0  0
   36.3124   14.6121  -12.4731 C   0  0  0  0  0  0  0  0  0  0  0  0
   36.0290   13.7926  -13.4787 N   0  0  0  0  0  0  0  0  0  0  0  0
   36.9691   13.3006  -14.3488 C   0  0  0  0  0  0  0  0  0  0  0  0
   36.7986   12.4697  -15.4072 C   0  0  0  0  0  0  0  0  0  0  0  0
   37.8822   15.9335  -11.1182 C   0  0  0  0  0  0  0  0  0  0  0  0
   36.7213   16.8106  -10.7197 C   0  0  0  0  0  0  0  0  0  0  0  0
   37.2094   17.7759   -9.6788 C   0  0  0  0  0  0  0  0  0  0  0  0
   38.6026   17.5376   -9.2202 C   0  0  0  0  0  0  0  0  0  0  0  0
   38.9397   16.1087   -8.9349 C   0  0  0  0  0  0  0  0  0  0  0  0
   38.2396   15.1367   -9.8561 C   0  0  0  0  0  0  0  0  0  0  0  0
   33.6806   13.3737  -15.0672 C   0  0  0  0  0  0  0  0  0  0  0  0
   34.3365   12.0967  -15.2504 N   0  0  0  0  0  0  0  0  0  0  0  0
   33.6546   10.9168  -14.7531 C   0  0  0  0  0  0  0  0  0  0  0  0
 21 22  1  0  0  0
 22 23  1  0  0  0
 22  1  1  0  0  0
  1  2  2  0  0  0
  2  3  1  0  0  0
  3  4  2  0  0  0
  4  5  1  0  0  0
  5  6  1  0  0  0
  6  7  1  0  0  0
  7  8  1  0  0  0
  8  9  2  0  0  0
  8 10  1  0  0  0
 10 15  1  0  0  0
 15 16  1  0  0  0
 16 17  1  0  0  0
 17 18  1  0  0  0
 18 19  1  0  0  0
 19 20  1  0  0  0
 10 11  1  0  0  0
 11 12  2  0  0  0
 12 13  1  0  0  0
 13 14  1  0  0  0
 14  1  1  0  0  0
 14  5  2  0  0  0
 13  7  2  0  0  0
 20 15  1  0  0  0
M  END
> <minimizedAffinity>
-7.25161

> <CNNscore>
0.2441986203

> <CNNaffinity>
6.2838182449

> <CNN_VS>
1.5344997644

> <CNNaffinity_variance>
0.2049580812

$$$$
[H]c1nc2sc3c(=O)n(C4([H])C([H])([H])C([H])([H])C([H])([H])C([H])([H])C4([H])[H])c([H])nc3c2c(N(C([H])([H])[H])C([H])([H])[H])c1[H]


 23 26  0  0  0  0  0  0  0  0999 V2000
   36.2228   11.1985  -16.8103 C   0  0  0  0  0  0  0  0  0  0  0  0
   34.8546   11.0272  -16.7460 C   0  0  0  0  0  0  0  0  0  0  0  0
   34.0227   11.6715  -15.8598 C   0  0  0  0  0  0  0  0  0  0  0  0
   34.6357   12.5188  -15.0163 N   0  0  0  0  0  0  0  0  0  0  0  0
   35.9914   12.7263  -15.0361 C   0  0  0  0  0  0  0  0  0  0  0  0
   37.0377   13.7047  -14.1089 S   0  0  0  0  0  0  0  0  0  0  0  0
   38.5203   13.2954  -14.8416 C   0  0  0  0  0  0  0  0  0  0  0  0
   39.8649   13.6679  -14.6482 C   0  0  0  0  0  0  0  0  0  0  0  0
   40.0544   14.4975  -13.7381 O   0  0  0  0  0  0  0  0  0  0  0  0
   40.8493   13.1544  -15.4001 N   0  0  0  0  0  0  0  0  0  0  0  0
   40.4740   12.2721  -16.3385 C   0  0  0  0  0  0  0  0  0  0  0  0
   39.2117   11.9097  -16.5348 N   0  0  0  0  0  0  0  0  0  0  0  0
   38.1571   12.3952  -15.8035 C   0  0  0  0  0  0  0  0  0  0  0  0
   36.8382   12.0965  -15.9080 C   0  0  0  0  0  0  0  0  0  0  0  0
   42.2121   13.5612  -15.1709 C   0  0  0  0  0  0  0  0  0  0  0  0
   42.6487   13.3348  -13.7448 C   0  0  0  0  0  0  0  0  0  0  0  0
   44.0274   13.9078  -13.5886 C   0  0  0  0  0  0  0  0  0  0  0  0
   44.6406   14.3948  -14.8516 C   0  0  0  0  0  0  0  0  0  0  0  0
   44.4884   13.4786  -16.0239 C   0  0  0  0  0  0  0  0  0  0  0  0
   43.1765   12.7285  -16.0265 C   0  0  0  0  0  0  0  0  0  0  0  0
   37.3662   11.0222  -19.0765 C   0  0  0  0  0  0  0  0  0  0  0  0
   36.9272   10.4815  -17.8078 N   0  0  0  0  0  0  0  0  0  0  0  0
   37.2324    9.0905  -17.5317 C   0  0  0  0  0  0  0  0  0  0  0  0
 21 22  1  0  0  0
 22 23  1  0  0  0
 22  1  1  0  0  0
  1  2  2  0  0  0
  2  3  1  0  0  0
  3  4  2  0  0  0
  4  5  1  0  0  0
  5  6  1  0  0  0
  6  7  1  0  0  0
  7  8  1  0  0  0
  8  9  2  0  0  0
  8 10  1  0  0  0
 10 15  1  0  0  0
 15 16  1  0  0  0
 16 17  1  0  0  0
 17 18  1  0  0  0
 18 19  1  0  0  0
 19 20  1  0  0  0
 10 11  1  0  0  0
 11 12  2  0  0  0
 12 13  1  0  0  0
 13 14  1  0  0  0
 14  1  1  0  0  0
 14  5  2  0  0  0
 13  7  2  0  0  0
 20 15  1  0  0  0
M  END
> <minimizedAffinity>
-6.57195

> <CNNscore>
0.2294564098

> <CNNaffinity>
6.4838819504

> <CNN_VS>
1.4877682924

> <CNNaffinity_variance>
0.2349495888

$$$$
[H]c1nc2sc3c(=O)n(C4([H])C([H])([H])C([H])([H])C([H])([H])C([H])([H])C4([H])[H])c([H])nc3c2c(N(C([H])([H])[H])C([H])([H])[H])c1[H]


 23 26  0  0  0  0  0  0  0  0999 V2000
   45.2687   14.0405  -13.9957 C   0  0  0  0  0  0  0  0  0  0  0  0
   46.6109   13.8494  -14.2553 C   0  0  0  0  0  0  0  0  0  0  0  0
   47.1114   13.1118  -15.3031 C   0  0  0  0  0  0  0  0  0  0  0  0
   46.1852   12.5577  -16.1033 N   0  0  0  0  0  0  0  0  0  0  0  0
   44.8391   12.7146  -15.8912 C   0  0  0  0  0  0  0  0  0  0  0  0
   43.4530   12.1407  -16.7045 S   0  0  0  0  0  0  0  0  0  0  0  0
   42.2481   12.8318  -15.7181 C   0  0  0  0  0  0  0  0  0  0  0  0
   40.8396   12.8256  -15.7117 C   0  0  0  0  0  0  0  0  0  0  0  0
   40.3130   12.1765  -16.6357 O   0  0  0  0  0  0  0  0  0  0  0  0
   40.1403   13.4772  -14.7712 N   0  0  0  0  0  0  0  0  0  0  0  0
   40.8621   14.1284  -13.8466 C   0  0  0  0  0  0  0  0  0  0  0  0
   42.1898   14.1452  -13.8375 N   0  0  0  0  0  0  0  0  0  0  0  0
   42.9663   13.5017  -14.7679 C   0  0  0  0  0  0  0  0  0  0  0  0
   44.3186   13.4431  -14.8558 C   0  0  0  0  0  0  0  0  0  0  0  0
   38.7004   13.4466  -14.7995 C   0  0  0  0  0  0  0  0  0  0  0  0
   38.1426   12.1309  -14.3164 C   0  0  0  0  0  0  0  0  0  0  0  0
   36.6542   12.1631  -14.5088 C   0  0  0  0  0  0  0  0  0  0  0  0
   36.1184   13.4721  -14.9644 C   0  0  0  0  0  0  0  0  0  0  0  0
   36.6684   14.6650  -14.2493 C   0  0  0  0  0  0  0  0  0  0  0  0
   38.1179   14.5052  -13.8530 C   0  0  0  0  0  0  0  0  0  0  0  0
   44.6789   14.3896  -11.5453 C   0  0  0  0  0  0  0  0  0  0  0  0
   44.9242   14.8586  -12.8923 N   0  0  0  0  0  0  0  0  0  0  0  0
   44.8088   16.2839  -13.1360 C   0  0  0  0  0  0  0  0  0  0  0  0
 21 22  1  0  0  0
 22 23  1  0  0  0
 22  1  1  0  0  0
  1  2  2  0  0  0
  2  3  1  0  0  0
  3  4  2  0  0  0
  4  5  1  0  0  0
  5  6  1  0  0  0
  6  7  1  0  0  0
  7  8  1  0  0  0
  8  9  2  0  0  0
  8 10  1  0  0  0
 10 15  1  0  0  0
 15 16  1  0  0  0
 16 17  1  0  0  0
 17 18  1  0  0  0
 18 19  1  0  0  0
 19 20  1  0  0  0
 10 11  1  0  0  0
 11 12  2  0  0  0
 12 13  1  0  0  0
 13 14  1  0  0  0
 14  1  1  0  0  0
 14  5  2  0  0  0
 13  7  2  0  0  0
 20 15  1  0  0  0
M  END
> <minimizedAffinity>
-7.29813

> <CNNscore>
0.2079457045

> <CNNaffinity>
5.9634060860

> <CNN_VS>
1.2400646210

> <CNNaffinity_variance>
0.0822477192

$$$$
[H]c1c([H])c(-c2c(C([H])([H])C([H])([H])[H])c(C3=NC4(C(=O)N3[H])C([H])([H])C([H])([H])C4([H])[H])nn2-c2c([H])c([H])c(Cl)c([H])c2Cl)c([H])c([H])c1Cl


 32 36  0  0  0  0  0  0  0  0999 V2000
   40.0543   12.5249  -16.2193 C   0  0  0  0  0  0  0  0  0  0  0  0
   41.0826   12.9378  -15.4277 C   0  0  0  0  0  0  0  0  0  0  0  0
   40.4523   13.3905  -14.2975 N   0  0  0  0  0  0  0  0  0  0  0  0
   39.1410   13.2634  -14.3812 N   0  0  0  0  0  0  0  0  0  0  0  0
   38.8268   12.7251  -15.5547 C   0  0  0  0  0  0  0  0  0  0  0  0
   42.5286   12.9221  -15.5704 C   0  0  0  0  0  0  0  0  0  0  0  0
   43.3205   13.3709  -14.5962 N   0  0  0  0  0  0  0  0  0  0  0  0
   44.6913   13.2687  -14.9328 C   0  0  0  0  0  0  0  0  0  0  0  0
   45.5842   12.5874  -13.9206 C   0  0  0  0  0  0  0  0  0  0  0  0
   46.1345   13.9309  -13.5458 C   0  0  0  0  0  0  0  0  0  0  0  0
   45.5225   14.5205  -14.7943 C   0  0  0  0  0  0  0  0  0  0  0  0
   44.7476   12.6407  -16.2616 C   0  0  0  0  0  0  0  0  0  0  0  0
   45.7255   12.3140  -16.9695 O   0  0  0  0  0  0  0  0  0  0  0  0
   43.3450   12.4648  -16.6094 N   0  0  0  0  0  0  0  0  0  0  0  0
   43.0915   12.0411  -17.5258 H   0  0  0  0  0  0  0  0  0  0  0  0
   38.2343   13.6452  -13.3457 C   0  0  0  0  0  0  0  0  0  0  0  0
   37.0805   12.9312  -13.0334 C   0  0  0  0  0  0  0  0  0  0  0  0
   36.2217   13.3476  -12.0486 C   0  0  0  0  0  0  0  0  0  0  0  0
   36.4798   14.4881  -11.3401 C   0  0  0  0  0  0  0  0  0  0  0  0
   35.4263   15.0766  -10.0693 Cl  0  0  0  0  0  0  0  0  0  0  0  0
   37.6072   15.2175  -11.6212 C   0  0  0  0  0  0  0  0  0  0  0  0
   38.4821   14.7846  -12.6322 C   0  0  0  0  0  0  0  0  0  0  0  0
   39.8875   15.7929  -12.9697 Cl  0  0  0  0  0  0  0  0  0  0  0  0
   37.5462   12.2397  -16.0279 C   0  0  0  0  0  0  0  0  0  0  0  0
   36.3814   12.8816  -15.7024 C   0  0  0  0  0  0  0  0  0  0  0  0
   35.1460   12.3501  -16.0498 C   0  0  0  0  0  0  0  0  0  0  0  0
   35.0281   11.1620  -16.7337 C   0  0  0  0  0  0  0  0  0  0  0  0
   33.4783   10.4793  -17.1800 Cl  0  0  0  0  0  0  0  0  0  0  0  0
   36.1938   10.5053  -17.0672 C   0  0  0  0  0  0  0  0  0  0  0  0
   37.4146   11.0464  -16.7132 C   0  0  0  0  0  0  0  0  0  0  0  0
   40.2686   13.3212  -18.5416 C   0  0  0  0  0  0  0  0  0  0  0  0
   40.2467   12.0571  -17.6306 C   0  0  0  0  0  0  0  0  0  0  0  0
 31 32  1  0  0  0
 32  1  1  0  0  0
  1  2  1  0  0  0
  2  6  1  0  0  0
  6  7  2  0  0  0
  7  8  1  0  0  0
  8  9  1  0  0  0
  9 10  1  0  0  0
 10 11  1  0  0  0
  8 12  1  0  0  0
 12 13  2  0  0  0
 12 14  1  0  0  0
  2  3  2  0  0  0
  3  4  1  0  0  0
  4 16  1  0  0  0
 16 17  2  0  0  0
 17 18  1  0  0  0
 18 19  2  0  0  0
 19 20  1  0  0  0
 19 21  1  0  0  0
 21 22  2  0  0  0
 22 23  1  0  0  0
  4  5  1  0  0  0
  5 24  1  0  0  0
 24 25  2  0  0  0
 25 26  1  0  0  0
 26 27  2  0  0  0
 27 28  1  0  0  0
 27 29  1  0  0  0
 29 30  2  0  0  0
  5  1  2  0  0  0
 30 24  1  0  0  0
 14  6  1  0  0  0
 22 16  1  0  0  0
 11  8  1  0  0  0
 14 15  1  0  0  0
M  END
> <minimizedAffinity>
-9.65777

> <CNNscore>
0.3546850383

> <CNNaffinity>
7.5067534447

> <CNN_VS>
2.6625330448

> <CNNaffinity_variance>
0.1322995126

$$$$
[H]c1c([H])c(-c2c(C([H])([H])C([H])([H])[H])c(C3=NC4(C(=O)N3[H])C([H])([H])C([H])([H])C4([H])[H])nn2-c2c([H])c([H])c(Cl)c([H])c2Cl)c([H])c([H])c1Cl


 32 36  0  0  0  0  0  0  0  0999 V2000
   39.9657   13.8450  -13.7261 C   0  0  0  0  0  0  0  0  0  0  0  0
   40.6355   13.2669  -14.7614 C   0  0  0  0  0  0  0  0  0  0  0  0
   39.6430   12.6490  -15.4772 N   0  0  0  0  0  0  0  0  0  0  0  0
   38.4551   12.8338  -14.9318 N   0  0  0  0  0  0  0  0  0  0  0  0
   38.5859   13.5761  -13.8375 C   0  0  0  0  0  0  0  0  0  0  0  0
   42.0284   13.2570  -15.1754 C   0  0  0  0  0  0  0  0  0  0  0  0
   42.9938   13.6626  -14.3502 N   0  0  0  0  0  0  0  0  0  0  0  0
   44.2755   13.5747  -14.9439 C   0  0  0  0  0  0  0  0  0  0  0  0
   45.3376   12.8496  -14.1488 C   0  0  0  0  0  0  0  0  0  0  0  0
   45.9602   14.1754  -13.8278 C   0  0  0  0  0  0  0  0  0  0  0  0
   45.1286   14.8190  -14.9117 C   0  0  0  0  0  0  0  0  0  0  0  0
   44.0744   13.0052  -16.2850 C   0  0  0  0  0  0  0  0  0  0  0  0
   44.8982   12.7093  -17.1783 O   0  0  0  0  0  0  0  0  0  0  0  0
   42.6299   12.8451  -16.3686 N   0  0  0  0  0  0  0  0  0  0  0  0
   42.2043   12.4618  -17.2378 H   0  0  0  0  0  0  0  0  0  0  0  0
   37.2396   12.3113  -15.4700 C   0  0  0  0  0  0  0  0  0  0  0  0
   35.9861   12.5578  -14.9164 C   0  0  0  0  0  0  0  0  0  0  0  0
   34.8453   12.0141  -15.4491 C   0  0  0  0  0  0  0  0  0  0  0  0
   34.9107   11.2067  -16.5505 C   0  0  0  0  0  0  0  0  0  0  0  0
   33.4936   10.4804  -17.2822 Cl  0  0  0  0  0  0  0  0  0  0  0  0
   36.1292   10.9413  -17.1222 C   0  0  0  0  0  0  0  0  0  0  0  0
   37.2938   11.5016  -16.5702 C   0  0  0  0  0  0  0  0  0  0  0  0
   38.8285   11.0837  -17.3289 Cl  0  0  0  0  0  0  0  0  0  0  0  0
   37.5606   14.1795  -13.0104 C   0  0  0  0  0  0  0  0  0  0  0  0
   37.0825   15.4343  -13.2779 C   0  0  0  0  0  0  0  0  0  0  0  0
   36.1921   16.0632  -12.4170 C   0  0  0  0  0  0  0  0  0  0  0  0
   35.7468   15.4642  -11.2612 C   0  0  0  0  0  0  0  0  0  0  0  0
   34.6236   16.2433  -10.1663 Cl  0  0  0  0  0  0  0  0  0  0  0  0
   36.2210   14.2004  -10.9800 C   0  0  0  0  0  0  0  0  0  0  0  0
   37.1072   13.5890  -11.8455 C   0  0  0  0  0  0  0  0  0  0  0  0
   40.6308   16.0690  -12.8987 C   0  0  0  0  0  0  0  0  0  0  0  0
   40.6572   14.5412  -12.5927 C   0  0  0  0  0  0  0  0  0  0  0  0
 31 32  1  0  0  0
 32  1  1  0  0  0
  1  2  1  0  0  0
  2  6  1  0  0  0
  6  7  2  0  0  0
  7  8  1  0  0  0
  8  9  1  0  0  0
  9 10  1  0  0  0
 10 11  1  0  0  0
  8 12  1  0  0  0
 12 13  2  0  0  0
 12 14  1  0  0  0
  2  3  2  0  0  0
  3  4  1  0  0  0
  4 16  1  0  0  0
 16 17  2  0  0  0
 17 18  1  0  0  0
 18 19  2  0  0  0
 19 20  1  0  0  0
 19 21  1  0  0  0
 21 22  2  0  0  0
 22 23  1  0  0  0
  4  5  1  0  0  0
  5 24  1  0  0  0
 24 25  2  0  0  0
 25 26  1  0  0  0
 26 27  2  0  0  0
 27 28  1  0  0  0
 27 29  1  0  0  0
 29 30  2  0  0  0
  5  1  2  0  0  0
 30 24  1  0  0  0
 14  6  1  0  0  0
 22 16  1  0  0  0
 11  8  1  0  0  0
 14 15  1  0  0  0
M  END
> <minimizedAffinity>
-7.98945

> <CNNscore>
0.2871656418

> <CNNaffinity>
7.4053945541

> <CNN_VS>
2.1265749931

> <CNNaffinity_variance>
0.1015539169

$$$$
[H]c1c([H])c(-c2c(C([H])([H])C([H])([H])[H])c(C3=NC4(C(=O)N3[H])C([H])([H])C([H])([H])C4([H])[H])nn2-c2c([H])c([H])c(Cl)c([H])c2Cl)c([H])c([H])c1Cl


 32 36  0  0  0  0  0  0  0  0999 V2000
   41.8562   13.6712  -14.2946 C   0  0  0  0  0  0  0  0  0  0  0  0
   40.6546   13.4540  -14.8975 C   0  0  0  0  0  0  0  0  0  0  0  0
   39.7697   14.1264  -14.0948 N   0  0  0  0  0  0  0  0  0  0  0  0
   40.3752   14.7156  -13.0805 N   0  0  0  0  0  0  0  0  0  0  0  0
   41.6802   14.4743  -13.1489 C   0  0  0  0  0  0  0  0  0  0  0  0
   40.2496   12.7608  -16.1087 C   0  0  0  0  0  0  0  0  0  0  0  0
   39.1403   12.0216  -16.1395 N   0  0  0  0  0  0  0  0  0  0  0  0
   38.9261   11.4331  -17.4085 C   0  0  0  0  0  0  0  0  0  0  0  0
   37.5587   11.6337  -18.0217 C   0  0  0  0  0  0  0  0  0  0  0  0
   37.2344   10.2073  -17.6922 C   0  0  0  0  0  0  0  0  0  0  0  0
   38.6993    9.9416  -17.4388 C   0  0  0  0  0  0  0  0  0  0  0  0
   40.0176   11.9038  -18.2748 C   0  0  0  0  0  0  0  0  0  0  0  0
   40.2509   11.6878  -19.4844 O   0  0  0  0  0  0  0  0  0  0  0  0
   40.8238   12.7246  -17.3831 N   0  0  0  0  0  0  0  0  0  0  0  0
   41.6858   13.1828  -17.7444 H   0  0  0  0  0  0  0  0  0  0  0  0
   39.7006   15.4932  -12.0905 C   0  0  0  0  0  0  0  0  0  0  0  0
   40.3398   16.4299  -11.2827 C   0  0  0  0  0  0  0  0  0  0  0  0
   39.6592   17.1368  -10.3246 C   0  0  0  0  0  0  0  0  0  0  0  0
   38.3199   16.9373  -10.1362 C   0  0  0  0  0  0  0  0  0  0  0  0
   37.3896   17.8061   -8.9316 Cl  0  0  0  0  0  0  0  0  0  0  0  0
   37.6572   16.0215  -10.9136 C   0  0  0  0  0  0  0  0  0  0  0  0
   38.3617   15.3006  -11.8929 C   0  0  0  0  0  0  0  0  0  0  0  0
   37.4571   14.1098  -12.8252 Cl  0  0  0  0  0  0  0  0  0  0  0  0
   42.7605   15.0442  -12.3696 C   0  0  0  0  0  0  0  0  0  0  0  0
   43.3529   16.2230  -12.7363 C   0  0  0  0  0  0  0  0  0  0  0  0
   44.4677   16.7072  -12.0640 C   0  0  0  0  0  0  0  0  0  0  0  0
   45.0304   16.0350  -11.0034 C   0  0  0  0  0  0  0  0  0  0  0  0
   46.4349   16.6327  -10.1448 Cl  0  0  0  0  0  0  0  0  0  0  0  0
   44.4434   14.8463  -10.6244 C   0  0  0  0  0  0  0  0  0  0  0  0
   43.3360   14.3775  -11.3041 C   0  0  0  0  0  0  0  0  0  0  0  0
   43.8124   13.9897  -15.7594 C   0  0  0  0  0  0  0  0  0  0  0  0
   43.1279   13.0203  -14.7494 C   0  0  0  0  0  0  0  0  0  0  0  0
 31 32  1  0  0  0
 32  1  1  0  0  0
  1  2  1  0  0  0
  2  6  1  0  0  0
  6  7  2  0  0  0
  7  8  1  0  0  0
  8  9  1  0  0  0
  9 10  1  0  0  0
 10 11  1  0  0  0
  8 12  1  0  0  0
 12 13  2  0  0  0
 12 14  1  0  0  0
  2  3  2  0  0  0
  3  4  1  0  0  0
  4 16  1  0  0  0
 16 17  2  0  0  0
 17 18  1  0  0  0
 18 19  2  0  0  0
 19 20  1  0  0  0
 19 21  1  0  0  0
 21 22  2  0  0  0
 22 23  1  0  0  0
  4  5  1  0  0  0
  5 24  1  0  0  0
 24 25  2  0  0  0
 25 26  1  0  0  0
 26 27  2  0  0  0
 27 28  1  0  0  0
 27 29  1  0  0  0
 29 30  2  0  0  0
  5  1  2  0  0  0
 30 24  1  0  0  0
 14  6  1  0  0  0
 22 16  1  0  0  0
 11  8  1  0  0  0
 14 15  1  0  0  0
M  END
> <minimizedAffinity>
-6.78017

> <CNNscore>
0.2029159516

> <CNNaffinity>
6.8154573441

> <CNN_VS>
1.3829649687

> <CNNaffinity_variance>
0.2384131402

$$$$
[H]c1c([H])c(-c2c(C([H])([H])C([H])([H])[H])c(C3=NC4(C(=O)N3[H])C([H])([H])C([H])([H])C4([H])[H])nn2-c2c([H])c([H])c(Cl)c([H])c2Cl)c([H])c([H])c1Cl


 32 36  0  0  0  0  0  0  0  0999 V2000
   42.5455   13.2928   -7.7969 C   0  0  0  0  0  0  0  0  0  0  0  0
   41.5130   14.1666   -7.6392 C   0  0  0  0  0  0  0  0  0  0  0  0
   41.7810   15.1456   -8.5608 N   0  0  0  0  0  0  0  0  0  0  0  0
   42.8867   14.8953   -9.2370 N   0  0  0  0  0  0  0  0  0  0  0  0
   43.4109   13.7507   -8.8118 C   0  0  0  0  0  0  0  0  0  0  0  0
   40.3278   14.1793   -6.7985 C   0  0  0  0  0  0  0  0  0  0  0  0
   39.1082   14.2618   -7.3309 N   0  0  0  0  0  0  0  0  0  0  0  0
   38.0938   14.2595   -6.3441 C   0  0  0  0  0  0  0  0  0  0  0  0
   36.9718   13.2640   -6.5342 C   0  0  0  0  0  0  0  0  0  0  0  0
   36.0794   14.3944   -6.9516 C   0  0  0  0  0  0  0  0  0  0  0  0
   37.0838   15.3792   -6.4020 C   0  0  0  0  0  0  0  0  0  0  0  0
   38.7744   14.1158   -5.0483 C   0  0  0  0  0  0  0  0  0  0  0  0
   38.3134   14.0330   -3.8886 O   0  0  0  0  0  0  0  0  0  0  0  0
   40.1840   14.0876   -5.4107 N   0  0  0  0  0  0  0  0  0  0  0  0
   40.9053   14.0015   -4.6651 H   0  0  0  0  0  0  0  0  0  0  0  0
   43.4015   15.7409  -10.2666 C   0  0  0  0  0  0  0  0  0  0  0  0
   42.8984   15.7639  -11.5646 C   0  0  0  0  0  0  0  0  0  0  0  0
   43.4397   16.5721  -12.5313 C   0  0  0  0  0  0  0  0  0  0  0  0
   44.4998   17.3854  -12.2415 C   0  0  0  0  0  0  0  0  0  0  0  0
   45.2389   18.4428  -13.4277 Cl  0  0  0  0  0  0  0  0  0  0  0  0
   45.0221   17.3884  -10.9729 C   0  0  0  0  0  0  0  0  0  0  0  0
   44.4623   16.5570   -9.9879 C   0  0  0  0  0  0  0  0  0  0  0  0
   45.2104   16.5792   -8.3924 Cl  0  0  0  0  0  0  0  0  0  0  0  0
   44.5117   12.9856   -9.3618 C   0  0  0  0  0  0  0  0  0  0  0  0
   44.3692   12.2741  -10.5228 C   0  0  0  0  0  0  0  0  0  0  0  0
   45.3809   11.4423  -10.9854 C   0  0  0  0  0  0  0  0  0  0  0  0
   46.5691   11.2912  -10.3083 C   0  0  0  0  0  0  0  0  0  0  0  0
   47.8547   10.2476  -10.8789 Cl  0  0  0  0  0  0  0  0  0  0  0  0
   46.7252   12.0021   -9.1372 C   0  0  0  0  0  0  0  0  0  0  0  0
   45.7089   12.8240   -8.6898 C   0  0  0  0  0  0  0  0  0  0  0  0
   43.5282   12.5950   -5.6474 C   0  0  0  0  0  0  0  0  0  0  0  0
   42.7532   12.1043   -6.9071 C   0  0  0  0  0  0  0  0  0  0  0  0
 31 32  1  0  0  0
 32  1  1  0  0  0
  1  2  1  0  0  0
  2  6  1  0  0  0
  6  7  2  0  0  0
  7  8  1  0  0  0
  8  9  1  0  0  0
  9 10  1  0  0  0
 10 11  1  0  0  0
  8 12  1  0  0  0
 12 13  2  0  0  0
 12 14  1  0  0  0
  2  3  2  0  0  0
  3  4  1  0  0  0
  4 16  1  0  0  0
 16 17  2  0  0  0
 17 18  1  0  0  0
 18 19  2  0  0  0
 19 20  1  0  0  0
 19 21  1  0  0  0
 21 22  2  0  0  0
 22 23  1  0  0  0
  4  5  1  0  0  0
  5 24  1  0  0  0
 24 25  2  0  0  0
 25 26  1  0  0  0
 26 27  2  0  0  0
 27 28  1  0  0  0
 27 29  1  0  0  0
 29 30  2  0  0  0
  5  1  2  0  0  0
 30 24  1  0  0  0
 14  6  1  0  0  0
 22 16  1  0  0  0
 11  8  1  0  0  0
 14 15  1  0  0  0
M  END
> <minimizedAffinity>
-5.44223

> <CNNscore>
0.1234825477

> <CNNaffinity>
5.7572093010

> <CNN_VS>
0.7109148502

> <CNNaffinity_variance>
0.3369458318

$$$$
[H]c1c([H])c(-c2c(C([H])([H])C([H])([H])[H])c(C3=NC4(C(=O)N3[H])C([H])([H])C([H])([H])C4([H])[H])nn2-c2c([H])c([H])c(Cl)c([H])c2Cl)c([H])c([H])c1Cl


 32 36  0  0  0  0  0  0  0  0999 V2000
   36.6953   15.5852  -11.2371 C   0  0  0  0  0  0  0  0  0  0  0  0
   37.6715   16.4143  -10.7744 C   0  0  0  0  0  0  0  0  0  0  0  0
   38.7633   16.0733  -11.5303 N   0  0  0  0  0  0  0  0  0  0  0  0
   38.4840   15.1146  -12.3936 N   0  0  0  0  0  0  0  0  0  0  0  0
   37.2077   14.7675  -12.2654 C   0  0  0  0  0  0  0  0  0  0  0  0
   37.7003   17.4764   -9.7832 C   0  0  0  0  0  0  0  0  0  0  0  0
   37.7009   17.1997   -8.4789 N   0  0  0  0  0  0  0  0  0  0  0  0
   37.7309   18.3707   -7.6848 C   0  0  0  0  0  0  0  0  0  0  0  0
   38.7922   18.4278   -6.6093 C   0  0  0  0  0  0  0  0  0  0  0  0
   37.7254   18.1798   -5.5851 C   0  0  0  0  0  0  0  0  0  0  0  0
   36.6711   18.4986   -6.6183 C   0  0  0  0  0  0  0  0  0  0  0  0
   37.7993   19.5049   -8.6186 C   0  0  0  0  0  0  0  0  0  0  0  0
   37.8741   20.7349   -8.4051 O   0  0  0  0  0  0  0  0  0  0  0  0
   37.7598   18.8661   -9.9260 N   0  0  0  0  0  0  0  0  0  0  0  0
   37.7843   19.4522  -10.7860 H   0  0  0  0  0  0  0  0  0  0  0  0
   39.4298   14.5692  -13.3145 C   0  0  0  0  0  0  0  0  0  0  0  0
   39.0763   13.7503  -14.3836 C   0  0  0  0  0  0  0  0  0  0  0  0
   40.0194   13.2249  -15.2294 C   0  0  0  0  0  0  0  0  0  0  0  0
   41.3464   13.4952  -15.0419 C   0  0  0  0  0  0  0  0  0  0  0  0
   42.6028   12.8580  -16.0844 Cl  0  0  0  0  0  0  0  0  0  0  0  0
   41.7316   14.2978  -13.9981 C   0  0  0  0  0  0  0  0  0  0  0  0
   40.7593   14.8319  -13.1354 C   0  0  0  0  0  0  0  0  0  0  0  0
   41.3280   15.8186  -11.7905 Cl  0  0  0  0  0  0  0  0  0  0  0  0
   36.4062   13.8949  -13.0994 C   0  0  0  0  0  0  0  0  0  0  0  0
   35.8029   14.3605  -14.2370 C   0  0  0  0  0  0  0  0  0  0  0  0
   34.9351   13.5608  -14.9696 C   0  0  0  0  0  0  0  0  0  0  0  0
   34.6388   12.2704  -14.5953 C   0  0  0  0  0  0  0  0  0  0  0  0
   33.5479   11.2492  -15.5087 Cl  0  0  0  0  0  0  0  0  0  0  0  0
   35.2397   11.7895  -13.4512 C   0  0  0  0  0  0  0  0  0  0  0  0
   36.0993   12.5978  -12.7328 C   0  0  0  0  0  0  0  0  0  0  0  0
   35.4788   14.7513   -9.2627 C   0  0  0  0  0  0  0  0  0  0  0  0
   35.3317   15.5040  -10.6193 C   0  0  0  0  0  0  0  0  0  0  0  0
 31 32  1  0  0  0
 32  1  1  0  0  0
  1  2  1  0  0  0
  2  6  1  0  0  0
  6  7  2  0  0  0
  7  8  1  0  0  0
  8  9  1  0  0  0
  9 10  1  0  0  0
 10 11  1  0  0  0
  8 12  1  0  0  0
 12 13  2  0  0  0
 12 14  1  0  0  0
  2  3  2  0  0  0
  3  4  1  0  0  0
  4 16  1  0  0  0
 16 17  2  0  0  0
 17 18  1  0  0  0
 18 19  2  0  0  0
 19 20  1  0  0  0
 19 21  1  0  0  0
 21 22  2  0  0  0
 22 23  1  0  0  0
  4  5  1  0  0  0
  5 24  1  0  0  0
 24 25  2  0  0  0
 25 26  1  0  0  0
 26 27  2  0  0  0
 27 28  1  0  0  0
 27 29  1  0  0  0
 29 30  2  0  0  0
  5  1  2  0  0  0
 30 24  1  0  0  0
 14  6  1  0  0  0
 22 16  1  0  0  0
 11  8  1  0  0  0
 14 15  1  0  0  0
M  END
> <minimizedAffinity>
-8.33208

> <CNNscore>
0.1215119809

> <CNNaffinity>
6.4953446388

> <CNN_VS>
0.7892621756

> <CNNaffinity_variance>
0.1052802578

$$$$
[H]c1c([H])c(-c2c(C([H])([H])C([H])([H])[H])c(C3=NC4(C(=O)N3[H])C([H])([H])C([H])([H])C4([H])[H])nn2-c2c([H])c([H])c(Cl)c([H])c2Cl)c([H])c([H])c1Cl


 32 36  0  0  0  0  0  0  0  0999 V2000
   43.9889   14.9700   -9.6819 C   0  0  0  0  0  0  0  0  0  0  0  0
   43.4068   13.7575   -9.4680 C   0  0  0  0  0  0  0  0  0  0  0  0
   43.5283   13.1280  -10.6799 N   0  0  0  0  0  0  0  0  0  0  0  0
   44.1401   13.8874  -11.5696 N   0  0  0  0  0  0  0  0  0  0  0  0
   44.4581   15.0496  -11.0094 C   0  0  0  0  0  0  0  0  0  0  0  0
   42.8136   13.1197   -8.3050 C   0  0  0  0  0  0  0  0  0  0  0  0
   43.5758   12.5945   -7.3453 N   0  0  0  0  0  0  0  0  0  0  0  0
   42.8055   12.0234   -6.3045 C   0  0  0  0  0  0  0  0  0  0  0  0
   43.1507   12.4545   -4.8969 C   0  0  0  0  0  0  0  0  0  0  0  0
   43.7981   11.1197   -4.6787 C   0  0  0  0  0  0  0  0  0  0  0  0
   43.1230   10.5979   -5.9248 C   0  0  0  0  0  0  0  0  0  0  0  0
   41.3963   12.2656   -6.6490 C   0  0  0  0  0  0  0  0  0  0  0  0
   40.3450   11.9806   -6.0344 O   0  0  0  0  0  0  0  0  0  0  0  0
   41.4769   12.9478   -7.9324 N   0  0  0  0  0  0  0  0  0  0  0  0
   40.6021   13.2320   -8.4197 H   0  0  0  0  0  0  0  0  0  0  0  0
   44.4108   13.4834  -12.9126 C   0  0  0  0  0  0  0  0  0  0  0  0
   45.6315   12.9555  -13.3245 C   0  0  0  0  0  0  0  0  0  0  0  0
   45.8593   12.6049  -14.6306 C   0  0  0  0  0  0  0  0  0  0  0  0
   44.8818   12.7669  -15.5726 C   0  0  0  0  0  0  0  0  0  0  0  0
   45.1051   12.3395  -17.2575 Cl  0  0  0  0  0  0  0  0  0  0  0  0
   43.6664   13.2849  -15.2030 C   0  0  0  0  0  0  0  0  0  0  0  0
   43.4409   13.6423  -13.8627 C   0  0  0  0  0  0  0  0  0  0  0  0
   41.8725   14.3419  -13.4669 Cl  0  0  0  0  0  0  0  0  0  0  0  0
   45.2811   16.1233  -11.5282 C   0  0  0  0  0  0  0  0  0  0  0  0
   46.6391   16.1223  -11.3536 C   0  0  0  0  0  0  0  0  0  0  0  0
   47.4146   17.2081  -11.7398 C   0  0  0  0  0  0  0  0  0  0  0  0
   46.8648   18.3313  -12.3136 C   0  0  0  0  0  0  0  0  0  0  0  0
   47.8289   19.7077  -12.8070 Cl  0  0  0  0  0  0  0  0  0  0  0  0
   45.4980   18.3450  -12.4948 C   0  0  0  0  0  0  0  0  0  0  0  0
   44.7405   17.2579  -12.1040 C   0  0  0  0  0  0  0  0  0  0  0  0
   45.2797   15.9133   -7.8065 C   0  0  0  0  0  0  0  0  0  0  0  0
   43.9865   16.0687   -8.6619 C   0  0  0  0  0  0  0  0  0  0  0  0
 31 32  1  0  0  0
 32  1  1  0  0  0
  1  2  1  0  0  0
  2  6  1  0  0  0
  6  7  2  0  0  0
  7  8  1  0  0  0
  8  9  1  0  0  0
  9 10  1  0  0  0
 10 11  1  0  0  0
  8 12  1  0  0  0
 12 13  2  0  0  0
 12 14  1  0  0  0
  2  3  2  0  0  0
  3  4  1  0  0  0
  4 16  1  0  0  0
 16 17  2  0  0  0
 17 18  1  0  0  0
 18 19  2  0  0  0
 19 20  1  0  0  0
 19 21  1  0  0  0
 21 22  2  0  0  0
 22 23  1  0  0  0
  4  5  1  0  0  0
  5 24  1  0  0  0
 24 25  2  0  0  0
 25 26  1  0  0  0
 26 27  2  0  0  0
 27 28  1  0  0  0
 27 29  1  0  0  0
 29 30  2  0  0  0
  5  1  2  0  0  0
 30 24  1  0  0  0
 14  6  1  0  0  0
 22 16  1  0  0  0
 11  8  1  0  0  0
 14 15  1  0  0  0
M  END
> <minimizedAffinity>
-6.55179

> <CNNscore>
0.1203427538

> <CNNaffinity>
5.7694878578

> <CNN_VS>
0.6943160295

> <CNNaffinity_variance>
0.0881923586

$$$$
[H]c1c([H])c(-c2c(C([H])([H])C([H])([H])[H])c(C3=NC4(C(=O)N3[H])C([H])([H])C([H])([H])C4([H])[H])nn2-c2c([H])c([H])c(Cl)c([H])c2Cl)c([H])c([H])c1Cl


 32 36  0  0  0  0  0  0  0  0999 V2000
   39.9776   15.5586  -12.3861 C   0  0  0  0  0  0  0  0  0  0  0  0
   39.0230   14.8453  -13.0452 C   0  0  0  0  0  0  0  0  0  0  0  0
   39.7435   14.1098  -13.9505 N   0  0  0  0  0  0  0  0  0  0  0  0
   41.0390   14.3455  -13.8558 N   0  0  0  0  0  0  0  0  0  0  0  0
   41.2531   15.2378  -12.8947 C   0  0  0  0  0  0  0  0  0  0  0  0
   37.5803   14.7347  -12.9107 C   0  0  0  0  0  0  0  0  0  0  0  0
   36.8842   13.8757  -13.6559 N   0  0  0  0  0  0  0  0  0  0  0  0
   35.4987   13.9236  -13.3720 C   0  0  0  0  0  0  0  0  0  0  0  0
   34.8249   12.6018  -13.0808 C   0  0  0  0  0  0  0  0  0  0  0  0
   34.1940   12.6578  -14.4399 C   0  0  0  0  0  0  0  0  0  0  0  0
   34.5687   14.1170  -14.5445 C   0  0  0  0  0  0  0  0  0  0  0  0
   35.3298   14.9041  -12.2888 C   0  0  0  0  0  0  0  0  0  0  0  0
   34.3047   15.2748  -11.6754 O   0  0  0  0  0  0  0  0  0  0  0  0
   36.6835   15.3876  -12.0595 N   0  0  0  0  0  0  0  0  0  0  0  0
   36.8542   16.1149  -11.3346 H   0  0  0  0  0  0  0  0  0  0  0  0
   42.0271   13.7116  -14.6693 C   0  0  0  0  0  0  0  0  0  0  0  0
   43.3879   13.7243  -14.3746 C   0  0  0  0  0  0  0  0  0  0  0  0
   44.3074   13.1257  -15.1974 C   0  0  0  0  0  0  0  0  0  0  0  0
   43.9064   12.4938  -16.3415 C   0  0  0  0  0  0  0  0  0  0  0  0
   45.0270   11.7086  -17.4365 Cl  0  0  0  0  0  0  0  0  0  0  0  0
   42.5734   12.4620  -16.6642 C   0  0  0  0  0  0  0  0  0  0  0  0
   41.6373   13.0782  -15.8163 C   0  0  0  0  0  0  0  0  0  0  0  0
   39.9473   13.0367  -16.3141 Cl  0  0  0  0  0  0  0  0  0  0  0  0
   42.5053   15.6756  -12.3120 C   0  0  0  0  0  0  0  0  0  0  0  0
   43.0061   15.0844  -11.1831 C   0  0  0  0  0  0  0  0  0  0  0  0
   44.1394   15.5822  -10.5529 C   0  0  0  0  0  0  0  0  0  0  0  0
   44.8132   16.6849  -11.0253 C   0  0  0  0  0  0  0  0  0  0  0  0
   46.2438   17.3240  -10.2430 Cl  0  0  0  0  0  0  0  0  0  0  0  0
   44.3188   17.2899  -12.1615 C   0  0  0  0  0  0  0  0  0  0  0  0
   43.1898   16.7835  -12.7757 C   0  0  0  0  0  0  0  0  0  0  0  0
   39.6212   15.9187   -9.9743 C   0  0  0  0  0  0  0  0  0  0  0  0
   39.6541   16.6119  -11.3695 C   0  0  0  0  0  0  0  0  0  0  0  0
 31 32  1  0  0  0
 32  1  1  0  0  0
  1  2  1  0  0  0
  2  6  1  0  0  0
  6  7  2  0  0  0
  7  8  1  0  0  0
  8  9  1  0  0  0
  9 10  1  0  0  0
 10 11  1  0  0  0
  8 12  1  0  0  0
 12 13  2  0  0  0
 12 14  1  0  0  0
  2  3  2  0  0  0
  3  4  1  0  0  0
  4 16  1  0  0  0
 16 17  2  0  0  0
 17 18  1  0  0  0
 18 19  2  0  0  0
 19 20  1  0  0  0
 19 21  1  0  0  0
 21 22  2  0  0  0
 22 23  1  0  0  0
  4  5  1  0  0  0
  5 24  1  0  0  0
 24 25  2  0  0  0
 25 26  1  0  0  0
 26 27  2  0  0  0
 27 28  1  0  0  0
 27 29  1  0  0  0
 29 30  2  0  0  0
  5  1  2  0  0  0
 30 24  1  0  0  0
 14  6  1  0  0  0
 22 16  1  0  0  0
 11  8  1  0  0  0
 14 15  1  0  0  0
M  END
> <minimizedAffinity>
-8.30759

> <CNNscore>
0.1005051881

> <CNNaffinity>
6.3394393921

> <CNN_VS>
0.6371465325

> <CNNaffinity_variance>
0.4076737761

$$$$
[H]c1c([H])c(-c2c(C([H])([H])C([H])([H])[H])c(C3=NC4(C(=O)N3[H])C([H])([H])C([H])([H])C4([H])[H])nn2-c2c([H])c([H])c(Cl)c([H])c2Cl)c([H])c([H])c1Cl


 32 36  0  0  0  0  0  0  0  0999 V2000
   41.0544   15.0352   -8.4126 C   0  0  0  0  0  0  0  0  0  0  0  0
   40.4651   15.7596   -9.4038 C   0  0  0  0  0  0  0  0  0  0  0  0
   41.5283   16.2209  -10.1361 N   0  0  0  0  0  0  0  0  0  0  0  0
   42.6814   15.8111   -9.6410 N   0  0  0  0  0  0  0  0  0  0  0  0
   42.4559   15.0628   -8.5664 C   0  0  0  0  0  0  0  0  0  0  0  0
   39.0836   16.0283   -9.7656 C   0  0  0  0  0  0  0  0  0  0  0  0
   38.1035   15.9150   -8.8688 N   0  0  0  0  0  0  0  0  0  0  0  0
   36.8367   16.2194   -9.4212 C   0  0  0  0  0  0  0  0  0  0  0  0
   35.9963   17.2239   -8.6657 C   0  0  0  0  0  0  0  0  0  0  0  0
   35.1302   16.0964   -8.1891 C   0  0  0  0  0  0  0  0  0  0  0  0
   35.7461   15.1938   -9.2317 C   0  0  0  0  0  0  0  0  0  0  0  0
   37.0751   16.6077  -10.8196 C   0  0  0  0  0  0  0  0  0  0  0  0
   36.2815   16.9893  -11.7077 O   0  0  0  0  0  0  0  0  0  0  0  0
   38.5140   16.4479  -10.9717 N   0  0  0  0  0  0  0  0  0  0  0  0
   38.9599   16.6504  -11.8903 H   0  0  0  0  0  0  0  0  0  0  0  0
   43.9526   16.1329  -10.2070 C   0  0  0  0  0  0  0  0  0  0  0  0
   44.7248   17.2158   -9.7952 C   0  0  0  0  0  0  0  0  0  0  0  0
   45.9289   17.5058  -10.3842 C   0  0  0  0  0  0  0  0  0  0  0  0
   46.4072   16.7295  -11.4029 C   0  0  0  0  0  0  0  0  0  0  0  0
   47.9369   17.0425  -12.1988 Cl  0  0  0  0  0  0  0  0  0  0  0  0
   45.6729   15.6545  -11.8354 C   0  0  0  0  0  0  0  0  0  0  0  0
   44.4397   15.3641  -11.2271 C   0  0  0  0  0  0  0  0  0  0  0  0
   43.5293   13.9951  -11.8616 Cl  0  0  0  0  0  0  0  0  0  0  0  0
   43.3840   14.2591   -7.7970 C   0  0  0  0  0  0  0  0  0  0  0  0
   43.6517   12.9614   -8.1418 C   0  0  0  0  0  0  0  0  0  0  0  0
   44.4432   12.1520   -7.3369 C   0  0  0  0  0  0  0  0  0  0  0  0
   44.9956   12.6070   -6.1618 C   0  0  0  0  0  0  0  0  0  0  0  0
   45.9964   11.5995   -5.1368 Cl  0  0  0  0  0  0  0  0  0  0  0  0
   44.7334   13.9122   -5.8029 C   0  0  0  0  0  0  0  0  0  0  0  0
   43.9432   14.7039   -6.6135 C   0  0  0  0  0  0  0  0  0  0  0  0
   40.3274   15.4415   -6.0931 C   0  0  0  0  0  0  0  0  0  0  0  0
   40.2864   14.4287   -7.2768 C   0  0  0  0  0  0  0  0  0  0  0  0
 31 32  1  0  0  0
 32  1  1  0  0  0
  1  2  1  0  0  0
  2  6  1  0  0  0
  6  7  2  0  0  0
  7  8  1  0  0  0
  8  9  1  0  0  0
  9 10  1  0  0  0
 10 11  1  0  0  0
  8 12  1  0  0  0
 12 13  2  0  0  0
 12 14  1  0  0  0
  2  3  2  0  0  0
  3  4  1  0  0  0
  4 16  1  0  0  0
 16 17  2  0  0  0
 17 18  1  0  0  0
 18 19  2  0  0  0
 19 20  1  0  0  0
 19 21  1  0  0  0
 21 22  2  0  0  0
 22 23  1  0  0  0
  4  5  1  0  0  0
  5 24  1  0  0  0
 24 25  2  0  0  0
 25 26  1  0  0  0
 26 27  2  0  0  0
 27 28  1  0  0  0
 27 29  1  0  0  0
 29 30  2  0  0  0
  5  1  2  0  0  0
 30 24  1  0  0  0
 14  6  1  0  0  0
 22 16  1  0  0  0
 11  8  1  0  0  0
 14 15  1  0  0  0
M  END
> <minimizedAffinity>
-5.49963

> <CNNscore>
0.0986791626

> <CNNaffinity>
5.8828296661

> <CNN_VS>
0.5805127025

> <CNNaffinity_variance>
0.3731368184

$$$$
[H]c1c([H])c(-c2c(C([H])([H])C([H])([H])[H])c(C3=NC4(C(=O)N3[H])C([H])([H])C([H])([H])C4([H])[H])nn2-c2c([H])c([H])c(Cl)c([H])c2Cl)c([H])c([H])c1Cl


 32 36  0  0  0  0  0  0  0  0999 V2000
   45.4113   14.5441   -9.1712 C   0  0  0  0  0  0  0  0  0  0  0  0
   44.9925   13.2706   -8.9317 C   0  0  0  0  0  0  0  0  0  0  0  0
   44.7935   12.7594  -10.1882 N   0  0  0  0  0  0  0  0  0  0  0  0
   45.0713   13.6433  -11.1285 N   0  0  0  0  0  0  0  0  0  0  0  0
   45.4670   14.7776  -10.5608 C   0  0  0  0  0  0  0  0  0  0  0  0
   44.8047   12.4859   -7.7232 C   0  0  0  0  0  0  0  0  0  0  0  0
   43.6129   12.4116   -7.1300 N   0  0  0  0  0  0  0  0  0  0  0  0
   43.6430   11.5999   -5.9712 C   0  0  0  0  0  0  0  0  0  0  0  0
   42.5917   10.5171   -5.8800 C   0  0  0  0  0  0  0  0  0  0  0  0
   41.8708   11.3444   -4.8581 C   0  0  0  0  0  0  0  0  0  0  0  0
   43.1010   12.2059   -4.7000 C   0  0  0  0  0  0  0  0  0  0  0  0
   45.0141   11.0783   -5.8643 C   0  0  0  0  0  0  0  0  0  0  0  0
   45.5285   10.2986   -5.0327 O   0  0  0  0  0  0  0  0  0  0  0  0
   45.6958   11.6922   -6.9945 N   0  0  0  0  0  0  0  0  0  0  0  0
   46.7059   11.4972   -7.1538 H   0  0  0  0  0  0  0  0  0  0  0  0
   44.9627   13.3804  -12.5282 C   0  0  0  0  0  0  0  0  0  0  0  0
   43.8129   13.6363  -13.2707 C   0  0  0  0  0  0  0  0  0  0  0  0
   43.7411   13.3437  -14.6086 C   0  0  0  0  0  0  0  0  0  0  0  0
   44.8094   12.7868  -15.2550 C   0  0  0  0  0  0  0  0  0  0  0  0
   44.7859   12.3888  -16.9615 Cl  0  0  0  0  0  0  0  0  0  0  0  0
   45.9587   12.5201  -14.5549 C   0  0  0  0  0  0  0  0  0  0  0  0
   46.0243   12.8223  -13.1840 C   0  0  0  0  0  0  0  0  0  0  0  0
   47.5152   12.4133  -12.3379 Cl  0  0  0  0  0  0  0  0  0  0  0  0
   46.0353   15.9609  -11.1742 C   0  0  0  0  0  0  0  0  0  0  0  0
   47.3901   16.1100  -11.3041 C   0  0  0  0  0  0  0  0  0  0  0  0
   47.9413   17.2940  -11.7771 C   0  0  0  0  0  0  0  0  0  0  0  0
   47.1626   18.3695  -12.1377 C   0  0  0  0  0  0  0  0  0  0  0  0
   47.8420   19.8684  -12.7368 Cl  0  0  0  0  0  0  0  0  0  0  0  0
   45.7964   18.2323  -12.0113 C   0  0  0  0  0  0  0  0  0  0  0  0
   45.2639   17.0489  -11.5379 C   0  0  0  0  0  0  0  0  0  0  0  0
   44.2545   16.1635   -7.7177 C   0  0  0  0  0  0  0  0  0  0  0  0
   45.6391   15.5478   -8.0811 C   0  0  0  0  0  0  0  0  0  0  0  0
 31 32  1  0  0  0
 32  1  1  0  0  0
  1  2  1  0  0  0
  2  6  1  0  0  0
  6  7  2  0  0  0
  7  8  1  0  0  0
  8  9  1  0  0  0
  9 10  1  0  0  0
 10 11  1  0  0  0
  8 12  1  0  0  0
 12 13  2  0  0  0
 12 14  1  0  0  0
  2  3  2  0  0  0
  3  4  1  0  0  0
  4 16  1  0  0  0
 16 17  2  0  0  0
 17 18  1  0  0  0
 18 19  2  0  0  0
 19 20  1  0  0  0
 19 21  1  0  0  0
 21 22  2  0  0  0
 22 23  1  0  0  0
  4  5  1  0  0  0
  5 24  1  0  0  0
 24 25  2  0  0  0
 25 26  1  0  0  0
 26 27  2  0  0  0
 27 28  1  0  0  0
 27 29  1  0  0  0
 29 30  2  0  0  0
  5  1  2  0  0  0
 30 24  1  0  0  0
 14  6  1  0  0  0
 22 16  1  0  0  0
 11  8  1  0  0  0
 14 15  1  0  0  0
M  END
> <minimizedAffinity>
-5.33084

> <CNNscore>
0.0968441367

> <CNNaffinity>
5.6857876778

> <CNN_VS>
0.5506352186

> <CNNaffinity_variance>
0.2921544313

$$$$
[H]c1nc(OC([H])([H])C([H])([H])Oc2nc([H])c(Br)c([H])n2)c(-c2c([H])c([H])c(C([H])([H])[H])c([H])c2[H])c(N([H])S(=O)(=O)c2c([H])c([H])c(Cl)c([H])c2[H])n1


 36 39  0  0  0  0  0  0  0  0999 V2000
   45.5117   15.7145  -12.8458 C   0  0  0  0  0  0  0  0  0  0  0  0
   46.6842   15.1065  -13.1332 C   0  0  0  0  0  0  0  0  0  0  0  0
   47.1594   15.1881  -14.5090 N   0  0  0  0  0  0  0  0  0  0  0  0
   46.4979   15.8176  -15.4350 C   0  0  0  0  0  0  0  0  0  0  0  0
   45.3363   16.4243  -15.1631 N   0  0  0  0  0  0  0  0  0  0  0  0
   44.8549   16.3836  -13.9812 C   0  0  0  0  0  0  0  0  0  0  0  0
   44.3888   15.6946   -7.2822 C   0  0  0  0  0  0  0  0  0  0  0  0
   44.4253   15.7702   -8.7567 C   0  0  0  0  0  0  0  0  0  0  0  0
   44.2010   14.7337   -9.5811 C   0  0  0  0  0  0  0  0  0  0  0  0
   44.3993   14.7035  -10.9298 C   0  0  0  0  0  0  0  0  0  0  0  0
   44.8821   15.8667  -11.5786 C   0  0  0  0  0  0  0  0  0  0  0  0
   45.0881   16.9630  -10.7546 C   0  0  0  0  0  0  0  0  0  0  0  0
   44.8836   16.9968   -9.3718 C   0  0  0  0  0  0  0  0  0  0  0  0
   47.4169   14.3551  -12.2395 N   0  0  0  0  0  0  0  0  0  0  0  0
   47.6877   13.4183  -12.2818 H   0  0  0  0  0  0  0  0  0  0  0  0
   47.8745   15.2106  -10.7337 S   0  0  0  0  0  0  0  0  0  0  0  0
   49.3600   15.6168  -11.0668 O   0  0  0  0  0  0  0  0  0  0  0  0
   47.1566   16.5052  -10.6257 O   0  0  0  0  0  0  0  0  0  0  0  0
   47.9136   14.2775   -9.3311 C   0  0  0  0  0  0  0  0  0  0  0  0
   46.7919   13.7795   -8.7940 C   0  0  0  0  0  0  0  0  0  0  0  0
   46.6194   13.1093   -7.6525 C   0  0  0  0  0  0  0  0  0  0  0  0
   47.7403   12.8955   -6.8798 C   0  0  0  0  0  0  0  0  0  0  0  0
   47.6509   12.0362   -5.3437 Cl  0  0  0  0  0  0  0  0  0  0  0  0
   49.0152   13.3785   -7.2852 C   0  0  0  0  0  0  0  0  0  0  0  0
   49.0748   14.0657   -8.5235 C   0  0  0  0  0  0  0  0  0  0  0  0
   43.6564   16.8968  -13.5831 O   0  0  0  0  0  0  0  0  0  0  0  0
   42.5297   16.5359  -13.1577 C   0  0  0  0  0  0  0  0  0  0  0  0
   41.8420   15.8937  -12.0526 C   0  0  0  0  0  0  0  0  0  0  0  0
   40.6230   15.8152  -11.6561 O   0  0  0  0  0  0  0  0  0  0  0  0
   39.4179   15.7456  -11.2635 C   0  0  0  0  0  0  0  0  0  0  0  0
   38.4111   15.1882  -12.1787 N   0  0  0  0  0  0  0  0  0  0  0  0
   37.1306   15.0411  -11.8437 C   0  0  0  0  0  0  0  0  0  0  0  0
   36.7015   15.4279  -10.5676 C   0  0  0  0  0  0  0  0  0  0  0  0
   34.8639   15.2596  -10.1104 Br  0  0  0  0  0  0  0  0  0  0  0  0
   37.6150   15.9635   -9.6984 C   0  0  0  0  0  0  0  0  0  0  0  0
   38.8170   16.0836  -10.0877 N   0  0  0  0  0  0  0  0  0  0  0  0
  7  8  1  0  0  0
  8  9  2  0  0  0
  9 10  1  0  0  0
 10 11  2  0  0  0
 11  1  1  0  0  0
  1  2  1  0  0  0
  2 14  1  0  0  0
 14 16  1  0  0  0
 16 17  2  0  0  0
 16 18  2  0  0  0
 16 19  1  0  0  0
 19 20  2  0  0  0
 20 21  1  0  0  0
 21 22  2  0  0  0
 22 23  1  0  0  0
 22 24  1  0  0  0
 24 25  2  0  0  0
  2  3  2  0  0  0
  3  4  1  0  0  0
  4  5  2  0  0  0
  5  6  1  0  0  0
  6 26  1  0  0  0
 26 27  1  0  0  0
 27 28  1  0  0  0
 28 29  1  0  0  0
 29 30  1  0  0  0
 30 31  2  0  0  0
 31 32  1  0  0  0
 32 33  2  0  0  0
 33 34  1  0  0  0
 33 35  1  0  0  0
 35 36  2  0  0  0
 11 12  1  0  0  0
 12 13  2  0  0  0
 13  8  1  0  0  0
  6  1  2  0  0  0
 36 30  1  0  0  0
 25 19  1  0  0  0
 14 15  1  0  0  0
M  END
> <minimizedAffinity>
-2.01051

> <CNNscore>
0.3698493540

> <CNNaffinity>
6.3000955582

> <CNN_VS>
2.3300862312

> <CNNaffinity_variance>
1.4102178812

$$$$
[H]c1nc(OC([H])([H])C([H])([H])Oc2nc([H])c(Br)c([H])n2)c(-c2c([H])c([H])c(C([H])([H])[H])c([H])c2[H])c(N([H])S(=O)(=O)c2c([H])c([H])c(Cl)c([H])c2[H])n1


 36 39  0  0  0  0  0  0  0  0999 V2000
   37.1662   12.0909  -15.5486 C   0  0  0  0  0  0  0  0  0  0  0  0
   38.4213   11.7269  -15.8939 C   0  0  0  0  0  0  0  0  0  0  0  0
   38.5794   10.9547  -17.1203 N   0  0  0  0  0  0  0  0  0  0  0  0
   37.5670   10.6224  -17.8660 C   0  0  0  0  0  0  0  0  0  0  0  0
   36.3195   10.9772  -17.5354 N   0  0  0  0  0  0  0  0  0  0  0  0
   36.1062   11.6452  -16.4683 C   0  0  0  0  0  0  0  0  0  0  0  0
   37.0794   15.3331  -10.8907 C   0  0  0  0  0  0  0  0  0  0  0  0
   36.8362   14.5058  -12.0897 C   0  0  0  0  0  0  0  0  0  0  0  0
   36.7302   13.1667  -12.0857 C   0  0  0  0  0  0  0  0  0  0  0  0
   36.6893   12.3462  -13.1741 C   0  0  0  0  0  0  0  0  0  0  0  0
   36.7516   12.9193  -14.4682 C   0  0  0  0  0  0  0  0  0  0  0  0
   36.8255   14.3038  -14.5006 C   0  0  0  0  0  0  0  0  0  0  0  0
   36.8657   15.1472  -13.3861 C   0  0  0  0  0  0  0  0  0  0  0  0
   39.5445   11.9675  -15.1320 N   0  0  0  0  0  0  0  0  0  0  0  0
   39.8343   11.5574  -14.2950 H   0  0  0  0  0  0  0  0  0  0  0  0
   40.5919   13.2912  -15.7316 S   0  0  0  0  0  0  0  0  0  0  0  0
   40.2415   13.2699  -17.2677 O   0  0  0  0  0  0  0  0  0  0  0  0
   40.0955   14.6085  -15.2613 O   0  0  0  0  0  0  0  0  0  0  0  0
   42.2533   13.0449  -15.5941 C   0  0  0  0  0  0  0  0  0  0  0  0
   42.9592   13.5953  -14.5973 C   0  0  0  0  0  0  0  0  0  0  0  0
   44.2768   13.5902  -14.3835 C   0  0  0  0  0  0  0  0  0  0  0  0
   45.0573   12.9449  -15.3182 C   0  0  0  0  0  0  0  0  0  0  0  0
   46.8116   12.8744  -15.1638 Cl  0  0  0  0  0  0  0  0  0  0  0  0
   44.4761   12.3242  -16.4583 C   0  0  0  0  0  0  0  0  0  0  0  0
   43.0645   12.3854  -16.5701 C   0  0  0  0  0  0  0  0  0  0  0  0
   34.8877   12.0121  -15.9795 O   0  0  0  0  0  0  0  0  0  0  0  0
   34.3541   12.5199  -14.9606 C   0  0  0  0  0  0  0  0  0  0  0  0
   33.3436   13.4583  -14.5081 C   0  0  0  0  0  0  0  0  0  0  0  0
   33.0567   14.0253  -13.3921 O   0  0  0  0  0  0  0  0  0  0  0  0
   32.7767   14.5925  -12.2915 C   0  0  0  0  0  0  0  0  0  0  0  0
   31.4027   14.4914  -11.7778 N   0  0  0  0  0  0  0  0  0  0  0  0
   31.0233   15.0212  -10.6164 C   0  0  0  0  0  0  0  0  0  0  0  0
   31.9582   15.7098   -9.8328 C   0  0  0  0  0  0  0  0  0  0  0  0
   31.4006   16.5046   -8.1983 Br  0  0  0  0  0  0  0  0  0  0  0  0
   33.2427   15.8318  -10.2930 C   0  0  0  0  0  0  0  0  0  0  0  0
   33.5323   15.3103  -11.4133 N   0  0  0  0  0  0  0  0  0  0  0  0
  7  8  1  0  0  0
  8  9  2  0  0  0
  9 10  1  0  0  0
 10 11  2  0  0  0
 11  1  1  0  0  0
  1  2  1  0  0  0
  2 14  1  0  0  0
 14 16  1  0  0  0
 16 17  2  0  0  0
 16 18  2  0  0  0
 16 19  1  0  0  0
 19 20  2  0  0  0
 20 21  1  0  0  0
 21 22  2  0  0  0
 22 23  1  0  0  0
 22 24  1  0  0  0
 24 25  2  0  0  0
  2  3  2  0  0  0
  3  4  1  0  0  0
  4  5  2  0  0  0
  5  6  1  0  0  0
  6 26  1  0  0  0
 26 27  1  0  0  0
 27 28  1  0  0  0
 28 29  1  0  0  0
 29 30  1  0  0  0
 30 31  2  0  0  0
 31 32  1  0  0  0
 32 33  2  0  0  0
 33 34  1  0  0  0
 33 35  1  0  0  0
 35 36  2  0  0  0
 11 12  1  0  0  0
 12 13  2  0  0  0
 13  8  1  0  0  0
  6  1  2  0  0  0
 36 30  1  0  0  0
 25 19  1  0  0  0
 14 15  1  0  0  0
M  END
> <minimizedAffinity>
-8.49089

> <CNNscore>
0.2538076341

> <CNNaffinity>
7.2427940369

> <CNN_VS>
1.8382763863

> <CNNaffinity_variance>
0.1627102047

$$$$
[H]c1nc(OC([H])([H])C([H])([H])Oc2nc([H])c(Br)c([H])n2)c(-c2c([H])c([H])c(C([H])([H])[H])c([H])c2[H])c(N([H])S(=O)(=O)c2c([H])c([H])c(Cl)c([H])c2[H])n1


 36 39  0  0  0  0  0  0  0  0999 V2000
   40.2942   14.0785  -14.4907 C   0  0  0  0  0  0  0  0  0  0  0  0
   39.2469   14.8371  -14.0972 C   0  0  0  0  0  0  0  0  0  0  0  0
   39.4641   15.7476  -12.9795 N   0  0  0  0  0  0  0  0  0  0  0  0
   40.6117   15.8422  -12.3750 C   0  0  0  0  0  0  0  0  0  0  0  0
   41.6565   15.0972  -12.7555 N   0  0  0  0  0  0  0  0  0  0  0  0
   41.5345   14.2700  -13.7205 C   0  0  0  0  0  0  0  0  0  0  0  0
   39.1213   11.0690  -19.1578 C   0  0  0  0  0  0  0  0  0  0  0  0
   39.6495   11.7062  -17.9346 C   0  0  0  0  0  0  0  0  0  0  0  0
   39.3687   11.3079  -16.6829 C   0  0  0  0  0  0  0  0  0  0  0  0
   39.6772   11.9631  -15.5275 C   0  0  0  0  0  0  0  0  0  0  0  0
   40.3764   13.1930  -15.6018 C   0  0  0  0  0  0  0  0  0  0  0  0
   40.7098   13.6092  -16.8820 C   0  0  0  0  0  0  0  0  0  0  0  0
   40.3963   12.9381  -18.0679 C   0  0  0  0  0  0  0  0  0  0  0  0
   37.9766   14.7537  -14.6258 N   0  0  0  0  0  0  0  0  0  0  0  0
   37.5980   15.1790  -15.4186 H   0  0  0  0  0  0  0  0  0  0  0  0
   36.8237   13.7760  -13.6648 S   0  0  0  0  0  0  0  0  0  0  0  0
   37.8192   12.8736  -12.8415 O   0  0  0  0  0  0  0  0  0  0  0  0
   36.1536   14.6123  -12.6380 O   0  0  0  0  0  0  0  0  0  0  0  0
   35.8173   12.7434  -14.5369 C   0  0  0  0  0  0  0  0  0  0  0  0
   36.1511   12.3154  -15.7617 C   0  0  0  0  0  0  0  0  0  0  0  0
   35.4481   11.5829  -16.6284 C   0  0  0  0  0  0  0  0  0  0  0  0
   34.1792   11.2087  -16.2427 C   0  0  0  0  0  0  0  0  0  0  0  0
   33.1399   10.2518  -17.2965 Cl  0  0  0  0  0  0  0  0  0  0  0  0
   33.6499   11.5978  -14.9811 C   0  0  0  0  0  0  0  0  0  0  0  0
   34.4960   12.3649  -14.1416 C   0  0  0  0  0  0  0  0  0  0  0  0
   42.4908   13.4062  -14.1648 O   0  0  0  0  0  0  0  0  0  0  0  0
   43.6671   13.3919  -14.6085 C   0  0  0  0  0  0  0  0  0  0  0  0
   45.0624   13.2537  -14.2335 C   0  0  0  0  0  0  0  0  0  0  0  0
   45.7167   12.5346  -13.3944 O   0  0  0  0  0  0  0  0  0  0  0  0
   46.3584   11.8177  -12.5664 C   0  0  0  0  0  0  0  0  0  0  0  0
   45.6708   11.3636  -11.3485 N   0  0  0  0  0  0  0  0  0  0  0  0
   46.2486   10.5792  -10.4407 C   0  0  0  0  0  0  0  0  0  0  0  0
   47.5698   10.1556  -10.6341 C   0  0  0  0  0  0  0  0  0  0  0  0
   48.4059    9.0746   -9.3125 Br  0  0  0  0  0  0  0  0  0  0  0  0
   48.2400   10.5747  -11.7530 C   0  0  0  0  0  0  0  0  0  0  0  0
   47.6308   11.3293  -12.5716 N   0  0  0  0  0  0  0  0  0  0  0  0
  7  8  1  0  0  0
  8  9  2  0  0  0
  9 10  1  0  0  0
 10 11  2  0  0  0
 11  1  1  0  0  0
  1  2  1  0  0  0
  2 14  1  0  0  0
 14 16  1  0  0  0
 16 17  2  0  0  0
 16 18  2  0  0  0
 16 19  1  0  0  0
 19 20  2  0  0  0
 20 21  1  0  0  0
 21 22  2  0  0  0
 22 23  1  0  0  0
 22 24  1  0  0  0
 24 25  2  0  0  0
  2  3  2  0  0  0
  3  4  1  0  0  0
  4  5  2  0  0  0
  5  6  1  0  0  0
  6 26  1  0  0  0
 26 27  1  0  0  0
 27 28  1  0  0  0
 28 29  1  0  0  0
 29 30  1  0  0  0
 30 31  2  0  0  0
 31 32  1  0  0  0
 32 33  2  0  0  0
 33 34  1  0  0  0
 33 35  1  0  0  0
 35 36  2  0  0  0
 11 12  1  0  0  0
 12 13  2  0  0  0
 13  8  1  0  0  0
  6  1  2  0  0  0
 36 30  1  0  0  0
 25 19  1  0  0  0
 14 15  1  0  0  0
M  END
> <minimizedAffinity>
-8.71900

> <CNNscore>
0.2514255345

> <CNNaffinity>
6.8646302223

> <CNN_VS>
1.7259433270

> <CNNaffinity_variance>
0.1823828667

$$$$
[H]c1nc(OC([H])([H])C([H])([H])Oc2nc([H])c(Br)c([H])n2)c(-c2c([H])c([H])c(C([H])([H])[H])c([H])c2[H])c(N([H])S(=O)(=O)c2c([H])c([H])c(Cl)c([H])c2[H])n1


 36 39  0  0  0  0  0  0  0  0999 V2000
   40.0366   14.8706   -7.3824 C   0  0  0  0  0  0  0  0  0  0  0  0
   41.1633   14.5389   -6.7134 C   0  0  0  0  0  0  0  0  0  0  0  0
   42.4361   14.8547   -7.3506 N   0  0  0  0  0  0  0  0  0  0  0  0
   42.5048   15.4338   -8.5130 C   0  0  0  0  0  0  0  0  0  0  0  0
   41.3966   15.7679   -9.1851 N   0  0  0  0  0  0  0  0  0  0  0  0
   40.2474   15.5109   -8.6915 C   0  0  0  0  0  0  0  0  0  0  0  0
   35.3401   13.6225   -4.4498 C   0  0  0  0  0  0  0  0  0  0  0  0
   36.3933   14.0391   -5.3976 C   0  0  0  0  0  0  0  0  0  0  0  0
   36.9417   13.2423   -6.3297 C   0  0  0  0  0  0  0  0  0  0  0  0
   38.0327   13.5159   -7.1005 C   0  0  0  0  0  0  0  0  0  0  0  0
   38.6860   14.7635   -6.9469 C   0  0  0  0  0  0  0  0  0  0  0  0
   38.1179   15.6196   -6.0154 C   0  0  0  0  0  0  0  0  0  0  0  0
   36.9982   15.3420   -5.2253 C   0  0  0  0  0  0  0  0  0  0  0  0
   41.1915   13.8584   -5.5150 N   0  0  0  0  0  0  0  0  0  0  0  0
   41.0393   14.1814   -4.6066 H   0  0  0  0  0  0  0  0  0  0  0  0
   41.6557   12.1328   -5.6395 S   0  0  0  0  0  0  0  0  0  0  0  0
   40.7803   11.5095   -4.4871 O   0  0  0  0  0  0  0  0  0  0  0  0
   41.1095   11.5297   -6.8808 O   0  0  0  0  0  0  0  0  0  0  0  0
   43.2652   11.7694   -5.2974 C   0  0  0  0  0  0  0  0  0  0  0  0
   43.9622   12.4740   -4.3959 C   0  0  0  0  0  0  0  0  0  0  0  0
   45.2536   12.3948   -4.0674 C   0  0  0  0  0  0  0  0  0  0  0  0
   46.0150   11.4715   -4.7508 C   0  0  0  0  0  0  0  0  0  0  0  0
   47.7356   11.2730   -4.4247 Cl  0  0  0  0  0  0  0  0  0  0  0  0
   45.4429   10.6524   -5.7632 C   0  0  0  0  0  0  0  0  0  0  0  0
   44.0581   10.8195   -6.0146 C   0  0  0  0  0  0  0  0  0  0  0  0
   39.0454   15.7335   -9.2945 O   0  0  0  0  0  0  0  0  0  0  0  0
   38.5453   15.9689  -10.4237 C   0  0  0  0  0  0  0  0  0  0  0  0
   38.4168   15.4666  -11.7794 C   0  0  0  0  0  0  0  0  0  0  0  0
   37.5646   14.7405  -12.4084 O   0  0  0  0  0  0  0  0  0  0  0  0
   36.7204   14.0291  -13.0350 C   0  0  0  0  0  0  0  0  0  0  0  0
   36.9101   13.8200  -14.4780 N   0  0  0  0  0  0  0  0  0  0  0  0
   36.0992   13.0606  -15.2123 C   0  0  0  0  0  0  0  0  0  0  0  0
   35.0105   12.4230  -14.6036 C   0  0  0  0  0  0  0  0  0  0  0  0
   33.8287   11.3782  -15.6647 Br  0  0  0  0  0  0  0  0  0  0  0  0
   34.8009   12.6110  -13.2629 C   0  0  0  0  0  0  0  0  0  0  0  0
   35.6081   13.3556  -12.6266 N   0  0  0  0  0  0  0  0  0  0  0  0
  7  8  1  0  0  0
  8  9  2  0  0  0
  9 10  1  0  0  0
 10 11  2  0  0  0
 11  1  1  0  0  0
  1  2  1  0  0  0
  2 14  1  0  0  0
 14 16  1  0  0  0
 16 17  2  0  0  0
 16 18  2  0  0  0
 16 19  1  0  0  0
 19 20  2  0  0  0
 20 21  1  0  0  0
 21 22  2  0  0  0
 22 23  1  0  0  0
 22 24  1  0  0  0
 24 25  2  0  0  0
  2  3  2  0  0  0
  3  4  1  0  0  0
  4  5  2  0  0  0
  5  6  1  0  0  0
  6 26  1  0  0  0
 26 27  1  0  0  0
 27 28  1  0  0  0
 28 29  1  0  0  0
 29 30  1  0  0  0
 30 31  2  0  0  0
 31 32  1  0  0  0
 32 33  2  0  0  0
 33 34  1  0  0  0
 33 35  1  0  0  0
 35 36  2  0  0  0
 11 12  1  0  0  0
 12 13  2  0  0  0
 13  8  1  0  0  0
  6  1  2  0  0  0
 36 30  1  0  0  0
 25 19  1  0  0  0
 14 15  1  0  0  0
M  END
> <minimizedAffinity>
-6.79952

> <CNNscore>
0.2155117244

> <CNNaffinity>
5.8428835869

> <CNN_VS>
1.2592098713

> <CNNaffinity_variance>
0.3572883010

$$$$
[H]c1nc(OC([H])([H])C([H])([H])Oc2nc([H])c(Br)c([H])n2)c(-c2c([H])c([H])c(C([H])([H])[H])c([H])c2[H])c(N([H])S(=O)(=O)c2c([H])c([H])c(Cl)c([H])c2[H])n1


 36 39  0  0  0  0  0  0  0  0999 V2000
   38.4939   14.9154  -12.7972 C   0  0  0  0  0  0  0  0  0  0  0  0
   39.5819   15.2214  -13.5386 C   0  0  0  0  0  0  0  0  0  0  0  0
   40.6726   15.9188  -12.8681 N   0  0  0  0  0  0  0  0  0  0  0  0
   40.6204   16.2394  -11.6088 C   0  0  0  0  0  0  0  0  0  0  0  0
   39.5491   15.9414  -10.8638 N   0  0  0  0  0  0  0  0  0  0  0  0
   38.5521   15.3408  -11.3888 C   0  0  0  0  0  0  0  0  0  0  0  0
   34.7800   11.7189  -15.6616 C   0  0  0  0  0  0  0  0  0  0  0  0
   35.5497   12.5769  -14.7383 C   0  0  0  0  0  0  0  0  0  0  0  0
   35.6220   13.9157  -14.8200 C   0  0  0  0  0  0  0  0  0  0  0  0
   36.4541   14.7344  -14.1152 C   0  0  0  0  0  0  0  0  0  0  0  0
   37.3484   14.1614  -13.1778 C   0  0  0  0  0  0  0  0  0  0  0  0
   37.2687   12.7829  -13.0483 C   0  0  0  0  0  0  0  0  0  0  0  0
   36.4151   11.9417  -13.7685 C   0  0  0  0  0  0  0  0  0  0  0  0
   39.6980   14.9899  -14.8924 N   0  0  0  0  0  0  0  0  0  0  0  0
   39.3100   15.4727  -15.6468 H   0  0  0  0  0  0  0  0  0  0  0  0
   40.6429   13.5320  -15.3289 S   0  0  0  0  0  0  0  0  0  0  0  0
   41.9144   14.1920  -15.9852 O   0  0  0  0  0  0  0  0  0  0  0  0
   41.1656   12.8607  -14.1128 O   0  0  0  0  0  0  0  0  0  0  0  0
   39.9533   12.5176  -16.4844 C   0  0  0  0  0  0  0  0  0  0  0  0
   40.4583   12.4265  -17.7220 C   0  0  0  0  0  0  0  0  0  0  0  0
   39.9971   11.7599  -18.7826 C   0  0  0  0  0  0  0  0  0  0  0  0
   38.8187   11.0647  -18.6176 C   0  0  0  0  0  0  0  0  0  0  0  0
   38.0932   10.1533  -19.9401 Cl  0  0  0  0  0  0  0  0  0  0  0  0
   38.1298   11.0713  -17.3732 C   0  0  0  0  0  0  0  0  0  0  0  0
   38.7244   11.8056  -16.3167 C   0  0  0  0  0  0  0  0  0  0  0  0
   37.3771   15.0388  -10.7672 O   0  0  0  0  0  0  0  0  0  0  0  0
   36.8340   15.0661   -9.6336 C   0  0  0  0  0  0  0  0  0  0  0  0
   36.0889   15.8994   -8.7079 C   0  0  0  0  0  0  0  0  0  0  0  0
   34.8543   16.0178   -8.3748 O   0  0  0  0  0  0  0  0  0  0  0  0
   33.6330   16.1407   -8.0510 C   0  0  0  0  0  0  0  0  0  0  0  0
   32.6091   15.9762   -9.0934 N   0  0  0  0  0  0  0  0  0  0  0  0
   31.3032   16.0505   -8.8435 C   0  0  0  0  0  0  0  0  0  0  0  0
   30.8626   16.2954   -7.5365 C   0  0  0  0  0  0  0  0  0  0  0  0
   28.9989   16.4473   -7.1933 Br  0  0  0  0  0  0  0  0  0  0  0  0
   31.7947   16.4668   -6.5473 C   0  0  0  0  0  0  0  0  0  0  0  0
   33.0228   16.3925   -6.8586 N   0  0  0  0  0  0  0  0  0  0  0  0
  7  8  1  0  0  0
  8  9  2  0  0  0
  9 10  1  0  0  0
 10 11  2  0  0  0
 11  1  1  0  0  0
  1  2  1  0  0  0
  2 14  1  0  0  0
 14 16  1  0  0  0
 16 17  2  0  0  0
 16 18  2  0  0  0
 16 19  1  0  0  0
 19 20  2  0  0  0
 20 21  1  0  0  0
 21 22  2  0  0  0
 22 23  1  0  0  0
 22 24  1  0  0  0
 24 25  2  0  0  0
  2  3  2  0  0  0
  3  4  1  0  0  0
  4  5  2  0  0  0
  5  6  1  0  0  0
  6 26  1  0  0  0
 26 27  1  0  0  0
 27 28  1  0  0  0
 28 29  1  0  0  0
 29 30  1  0  0  0
 30 31  2  0  0  0
 31 32  1  0  0  0
 32 33  2  0  0  0
 33 34  1  0  0  0
 33 35  1  0  0  0
 35 36  2  0  0  0
 11 12  1  0  0  0
 12 13  2  0  0  0
 13  8  1  0  0  0
  6  1  2  0  0  0
 36 30  1  0  0  0
 25 19  1  0  0  0
 14 15  1  0  0  0
M  END
> <minimizedAffinity>
-7.53720

> <CNNscore>
0.2031752914

> <CNNaffinity>
6.4973726273

> <CNN_VS>
1.3201055527

> <CNNaffinity_variance>
0.2978721559

$$$$
[H]c1nc(OC([H])([H])C([H])([H])Oc2nc([H])c(Br)c([H])n2)c(-c2c([H])c([H])c(C([H])([H])[H])c([H])c2[H])c(N([H])S(=O)(=O)c2c([H])c([H])c(Cl)c([H])c2[H])n1


 36 39  0  0  0  0  0  0  0  0999 V2000
   40.3060   14.0520  -14.5739 C   0  0  0  0  0  0  0  0  0  0  0  0
   39.2611   14.8086  -14.1705 C   0  0  0  0  0  0  0  0  0  0  0  0
   39.4855   15.7151  -13.0509 N   0  0  0  0  0  0  0  0  0  0  0  0
   40.6371   15.8079  -12.4538 C   0  0  0  0  0  0  0  0  0  0  0  0
   41.6796   15.0648  -12.8441 N   0  0  0  0  0  0  0  0  0  0  0  0
   41.5514   14.2412  -13.8114 C   0  0  0  0  0  0  0  0  0  0  0  0
   39.1045   11.0628  -19.2468 C   0  0  0  0  0  0  0  0  0  0  0  0
   39.6399   11.6943  -18.0238 C   0  0  0  0  0  0  0  0  0  0  0  0
   39.3645   11.2917  -16.7722 C   0  0  0  0  0  0  0  0  0  0  0  0
   39.6799   11.9418  -15.6158 C   0  0  0  0  0  0  0  0  0  0  0  0
   40.3810   13.1706  -15.6888 C   0  0  0  0  0  0  0  0  0  0  0  0
   40.7090   13.5912  -16.9690 C   0  0  0  0  0  0  0  0  0  0  0  0
   40.3884   12.9253  -18.1560 C   0  0  0  0  0  0  0  0  0  0  0  0
   37.9873   14.7266  -14.6908 N   0  0  0  0  0  0  0  0  0  0  0  0
   37.6056   15.1476  -15.4845 H   0  0  0  0  0  0  0  0  0  0  0  0
   36.8362   13.7610  -13.7155 S   0  0  0  0  0  0  0  0  0  0  0  0
   37.8324   12.8522  -12.9003 O   0  0  0  0  0  0  0  0  0  0  0  0
   36.1837   14.6055  -12.6840 O   0  0  0  0  0  0  0  0  0  0  0  0
   35.8121   12.7349  -14.5746 C   0  0  0  0  0  0  0  0  0  0  0  0
   36.1266   12.3065  -15.8045 C   0  0  0  0  0  0  0  0  0  0  0  0
   35.4076   11.5789  -16.6621 C   0  0  0  0  0  0  0  0  0  0  0  0
   34.1421   11.2110  -16.2592 C   0  0  0  0  0  0  0  0  0  0  0  0
   33.0831   10.2610  -17.2994 Cl  0  0  0  0  0  0  0  0  0  0  0  0
   33.6327   11.6016  -14.9899 C   0  0  0  0  0  0  0  0  0  0  0  0
   34.4944   12.3631  -14.1614 C   0  0  0  0  0  0  0  0  0  0  0  0
   42.5051   13.3794  -14.2653 O   0  0  0  0  0  0  0  0  0  0  0  0
   43.7189   13.3458  -14.5911 C   0  0  0  0  0  0  0  0  0  0  0  0
   44.8590   14.1645  -14.9610 C   0  0  0  0  0  0  0  0  0  0  0  0
   45.4547   15.1840  -14.4560 O   0  0  0  0  0  0  0  0  0  0  0  0
   46.0441   16.1878  -13.9499 C   0  0  0  0  0  0  0  0  0  0  0  0
   46.9641   16.9632  -14.7951 N   0  0  0  0  0  0  0  0  0  0  0  0
   47.5992   18.0517  -14.3647 C   0  0  0  0  0  0  0  0  0  0  0  0
   47.3967   18.4961  -13.0518 C   0  0  0  0  0  0  0  0  0  0  0  0
   48.3415   20.0230  -12.4274 Br  0  0  0  0  0  0  0  0  0  0  0  0
   46.5555   17.7852  -12.2369 C   0  0  0  0  0  0  0  0  0  0  0  0
   45.9908   16.7518  -12.7102 N   0  0  0  0  0  0  0  0  0  0  0  0
  7  8  1  0  0  0
  8  9  2  0  0  0
  9 10  1  0  0  0
 10 11  2  0  0  0
 11  1  1  0  0  0
  1  2  1  0  0  0
  2 14  1  0  0  0
 14 16  1  0  0  0
 16 17  2  0  0  0
 16 18  2  0  0  0
 16 19  1  0  0  0
 19 20  2  0  0  0
 20 21  1  0  0  0
 21 22  2  0  0  0
 22 23  1  0  0  0
 22 24  1  0  0  0
 24 25  2  0  0  0
  2  3  2  0  0  0
  3  4  1  0  0  0
  4  5  2  0  0  0
  5  6  1  0  0  0
  6 26  1  0  0  0
 26 27  1  0  0  0
 27 28  1  0  0  0
 28 29  1  0  0  0
 29 30  1  0  0  0
 30 31  2  0  0  0
 31 32  1  0  0  0
 32 33  2  0  0  0
 33 34  1  0  0  0
 33 35  1  0  0  0
 35 36  2  0  0  0
 11 12  1  0  0  0
 12 13  2  0  0  0
 13  8  1  0  0  0
  6  1  2  0  0  0
 36 30  1  0  0  0
 25 19  1  0  0  0
 14 15  1  0  0  0
M  END
> <minimizedAffinity>
-8.44185

> <CNNscore>
0.1796474457

> <CNNaffinity>
6.8689169884

> <CNN_VS>
1.2339833975

> <CNNaffinity_variance>
0.0938055664

$$$$
[H]c1nc(OC([H])([H])C([H])([H])Oc2nc([H])c(Br)c([H])n2)c(-c2c([H])c([H])c(C([H])([H])[H])c([H])c2[H])c(N([H])S(=O)(=O)c2c([H])c([H])c(Cl)c([H])c2[H])n1


 36 39  0  0  0  0  0  0  0  0999 V2000
   41.2560   13.9701  -14.3587 C   0  0  0  0  0  0  0  0  0  0  0  0
   42.5174   13.6194  -14.0226 C   0  0  0  0  0  0  0  0  0  0  0  0
   43.0906   14.2433  -12.8361 N   0  0  0  0  0  0  0  0  0  0  0  0
   42.4303   15.1021  -12.1166 C   0  0  0  0  0  0  0  0  0  0  0  0
   41.1806   15.4572  -12.4384 N   0  0  0  0  0  0  0  0  0  0  0  0
   40.6200   14.9583  -13.4715 C   0  0  0  0  0  0  0  0  0  0  0  0
   39.2932   10.9495  -18.7449 C   0  0  0  0  0  0  0  0  0  0  0  0
   39.5817   11.8794  -17.6344 C   0  0  0  0  0  0  0  0  0  0  0  0
   40.2998   13.0087  -17.7498 C   0  0  0  0  0  0  0  0  0  0  0  0
   40.7472   13.8010  -16.7343 C   0  0  0  0  0  0  0  0  0  0  0  0
   40.4393   13.4435  -15.3984 C   0  0  0  0  0  0  0  0  0  0  0  0
   39.6679   12.3001  -15.2534 C   0  0  0  0  0  0  0  0  0  0  0  0
   39.2065   11.4873  -16.2933 C   0  0  0  0  0  0  0  0  0  0  0  0
   43.3200   12.7775  -14.7622 N   0  0  0  0  0  0  0  0  0  0  0  0
   43.1446   11.8777  -15.0974 H   0  0  0  0  0  0  0  0  0  0  0  0
   44.9663   13.4025  -15.0905 S   0  0  0  0  0  0  0  0  0  0  0  0
   45.1932   12.8751  -16.5579 O   0  0  0  0  0  0  0  0  0  0  0  0
   44.9494   14.8799  -15.2313 O   0  0  0  0  0  0  0  0  0  0  0  0
   46.2044   12.7735  -14.1360 C   0  0  0  0  0  0  0  0  0  0  0  0
   45.9492   12.2026  -12.9512 C   0  0  0  0  0  0  0  0  0  0  0  0
   46.7965   11.7421  -12.0281 C   0  0  0  0  0  0  0  0  0  0  0  0
   48.1418   11.8735  -12.2961 C   0  0  0  0  0  0  0  0  0  0  0  0
   49.3672   11.3194  -11.1570 Cl  0  0  0  0  0  0  0  0  0  0  0  0
   48.5953   12.4812  -13.4995 C   0  0  0  0  0  0  0  0  0  0  0  0
   47.6006   12.9205  -14.4087 C   0  0  0  0  0  0  0  0  0  0  0  0
   39.3850   15.2801  -13.9505 O   0  0  0  0  0  0  0  0  0  0  0  0
   38.1646   15.1470  -13.6793 C   0  0  0  0  0  0  0  0  0  0  0  0
   37.1269   14.1775  -13.3794 C   0  0  0  0  0  0  0  0  0  0  0  0
   36.3337   13.4432  -14.0728 O   0  0  0  0  0  0  0  0  0  0  0  0
   35.5436   12.7222  -14.7563 C   0  0  0  0  0  0  0  0  0  0  0  0
   36.0102   12.1971  -16.0480 N   0  0  0  0  0  0  0  0  0  0  0  0
   35.2679   11.4033  -16.8176 C   0  0  0  0  0  0  0  0  0  0  0  0
   33.9820   11.0394  -16.3975 C   0  0  0  0  0  0  0  0  0  0  0  0
   32.9085    9.9444  -17.5212 Br  0  0  0  0  0  0  0  0  0  0  0  0
   33.5154   11.5251  -15.2045 C   0  0  0  0  0  0  0  0  0  0  0  0
   34.2733   12.2847  -14.5267 N   0  0  0  0  0  0  0  0  0  0  0  0
  7  8  1  0  0  0
  8  9  2  0  0  0
  9 10  1  0  0  0
 10 11  2  0  0  0
 11  1  1  0  0  0
  1  2  1  0  0  0
  2 14  1  0  0  0
 14 16  1  0  0  0
 16 17  2  0  0  0
 16 18  2  0  0  0
 16 19  1  0  0  0
 19 20  2  0  0  0
 20 21  1  0  0  0
 21 22  2  0  0  0
 22 23  1  0  0  0
 22 24  1  0  0  0
 24 25  2  0  0  0
  2  3  2  0  0  0
  3  4  1  0  0  0
  4  5  2  0  0  0
  5  6  1  0  0  0
  6 26  1  0  0  0
 26 27  1  0  0  0
 27 28  1  0  0  0
 28 29  1  0  0  0
 29 30  1  0  0  0
 30 31  2  0  0  0
 31 32  1  0  0  0
 32 33  2  0  0  0
 33 34  1  0  0  0
 33 35  1  0  0  0
 35 36  2  0  0  0
 11 12  1  0  0  0
 12 13  2  0  0  0
 13  8  1  0  0  0
  6  1  2  0  0  0
 36 30  1  0  0  0
 25 19  1  0  0  0
 14 15  1  0  0  0
M  END
> <minimizedAffinity>
-7.38704

> <CNNscore>
0.1588506252

> <CNNaffinity>
6.7050476074

> <CNN_VS>
1.0651010275

> <CNNaffinity_variance>
0.3105270267

$$$$
[H]c1nc(OC([H])([H])C([H])([H])Oc2nc([H])c(Br)c([H])n2)c(-c2c([H])c([H])c(C([H])([H])[H])c([H])c2[H])c(N([H])S(=O)(=O)c2c([H])c([H])c(Cl)c([H])c2[H])n1


 36 39  0  0  0  0  0  0  0  0999 V2000
   38.6618   14.7846  -13.0542 C   0  0  0  0  0  0  0  0  0  0  0  0
   39.8400   15.2067  -13.5647 C   0  0  0  0  0  0  0  0  0  0  0  0
   40.7390   15.9220  -12.6671 N   0  0  0  0  0  0  0  0  0  0  0  0
   40.4384   16.1519  -11.4228 C   0  0  0  0  0  0  0  0  0  0  0  0
   39.2753   15.7386  -10.9053 N   0  0  0  0  0  0  0  0  0  0  0  0
   38.4351   15.1154  -11.6374 C   0  0  0  0  0  0  0  0  0  0  0  0
   33.8791   11.9491  -14.1949 C   0  0  0  0  0  0  0  0  0  0  0  0
   35.2164   12.5713  -14.1196 C   0  0  0  0  0  0  0  0  0  0  0  0
   36.2601   12.0611  -13.4453 C   0  0  0  0  0  0  0  0  0  0  0  0
   37.4504   12.6765  -13.1926 C   0  0  0  0  0  0  0  0  0  0  0  0
   37.6610   13.9897  -13.6805 C   0  0  0  0  0  0  0  0  0  0  0  0
   36.6115   14.5264  -14.4111 C   0  0  0  0  0  0  0  0  0  0  0  0
   35.3910   13.8965  -14.6732 C   0  0  0  0  0  0  0  0  0  0  0  0
   40.2138   15.0759  -14.8850 N   0  0  0  0  0  0  0  0  0  0  0  0
   40.0705   15.6777  -15.6400 H   0  0  0  0  0  0  0  0  0  0  0  0
   41.0171   13.5270  -15.2904 S   0  0  0  0  0  0  0  0  0  0  0  0
   42.3120   14.0502  -16.0201 O   0  0  0  0  0  0  0  0  0  0  0  0
   41.5299   12.8643  -14.0654 O   0  0  0  0  0  0  0  0  0  0  0  0
   40.2012   12.5279  -16.3748 C   0  0  0  0  0  0  0  0  0  0  0  0
   40.6504   12.3406  -17.6230 C   0  0  0  0  0  0  0  0  0  0  0  0
   40.0951   11.6719  -18.6361 C   0  0  0  0  0  0  0  0  0  0  0  0
   38.8686   11.0894  -18.4005 C   0  0  0  0  0  0  0  0  0  0  0  0
   38.0195   10.1889  -19.6551 Cl  0  0  0  0  0  0  0  0  0  0  0  0
   38.2292   11.2090  -17.1356 C   0  0  0  0  0  0  0  0  0  0  0  0
   38.9230   11.9333  -16.1341 C   0  0  0  0  0  0  0  0  0  0  0  0
   37.1927   14.7002  -11.2603 O   0  0  0  0  0  0  0  0  0  0  0  0
   36.2918   14.9465  -10.4187 C   0  0  0  0  0  0  0  0  0  0  0  0
   36.0184   15.5811   -9.1423 C   0  0  0  0  0  0  0  0  0  0  0  0
   36.0656   16.7820   -8.6896 O   0  0  0  0  0  0  0  0  0  0  0  0
   36.1115   17.9718   -8.2497 C   0  0  0  0  0  0  0  0  0  0  0  0
   37.2563   18.8159   -8.6226 N   0  0  0  0  0  0  0  0  0  0  0  0
   37.3739   20.0862   -8.2407 C   0  0  0  0  0  0  0  0  0  0  0  0
   36.3743   20.6648   -7.4481 C   0  0  0  0  0  0  0  0  0  0  0  0
   36.5696   22.4642   -6.8664 Br  0  0  0  0  0  0  0  0  0  0  0  0
   35.3026   19.8979   -7.0736 C   0  0  0  0  0  0  0  0  0  0  0  0
   35.2600   18.6916   -7.4658 N   0  0  0  0  0  0  0  0  0  0  0  0
  7  8  1  0  0  0
  8  9  2  0  0  0
  9 10  1  0  0  0
 10 11  2  0  0  0
 11  1  1  0  0  0
  1  2  1  0  0  0
  2 14  1  0  0  0
 14 16  1  0  0  0
 16 17  2  0  0  0
 16 18  2  0  0  0
 16 19  1  0  0  0
 19 20  2  0  0  0
 20 21  1  0  0  0
 21 22  2  0  0  0
 22 23  1  0  0  0
 22 24  1  0  0  0
 24 25  2  0  0  0
  2  3  2  0  0  0
  3  4  1  0  0  0
  4  5  2  0  0  0
  5  6  1  0  0  0
  6 26  1  0  0  0
 26 27  1  0  0  0
 27 28  1  0  0  0
 28 29  1  0  0  0
 29 30  1  0  0  0
 30 31  2  0  0  0
 31 32  1  0  0  0
 32 33  2  0  0  0
 33 34  1  0  0  0
 33 35  1  0  0  0
 35 36  2  0  0  0
 11 12  1  0  0  0
 12 13  2  0  0  0
 13  8  1  0  0  0
  6  1  2  0  0  0
 36 30  1  0  0  0
 25 19  1  0  0  0
 14 15  1  0  0  0
M  END
> <minimizedAffinity>
-7.56371

> <CNNscore>
0.1531740129

> <CNNaffinity>
6.6398100853

> <CNN_VS>
1.0170463324

> <CNNaffinity_variance>
0.3170106113

$$$$
[H]c1nc(OC([H])([H])C([H])([H])Oc2nc([H])c(Br)c([H])n2)c(-c2c([H])c([H])c(C([H])([H])[H])c([H])c2[H])c(N([H])S(=O)(=O)c2c([H])c([H])c(Cl)c([H])c2[H])n1


 36 39  0  0  0  0  0  0  0  0999 V2000
   40.2042   14.2023  -14.3834 C   0  0  0  0  0  0  0  0  0  0  0  0
   39.1047   14.9016  -14.0242 C   0  0  0  0  0  0  0  0  0  0  0  0
   39.2350   15.8201  -12.8996 N   0  0  0  0  0  0  0  0  0  0  0  0
   40.3552   15.9758  -12.2576 C   0  0  0  0  0  0  0  0  0  0  0  0
   41.4511   15.2899  -12.6039 N   0  0  0  0  0  0  0  0  0  0  0  0
   41.4062   14.4595  -13.5728 C   0  0  0  0  0  0  0  0  0  0  0  0
   39.3642   11.1729  -19.1091 C   0  0  0  0  0  0  0  0  0  0  0  0
   39.8102   11.8233  -17.8605 C   0  0  0  0  0  0  0  0  0  0  0  0
   39.4846   11.4098  -16.6246 C   0  0  0  0  0  0  0  0  0  0  0  0
   39.7138   12.0706  -15.4541 C   0  0  0  0  0  0  0  0  0  0  0  0
   40.3711   13.3251  -15.4916 C   0  0  0  0  0  0  0  0  0  0  0  0
   40.7500   13.7584  -16.7533 C   0  0  0  0  0  0  0  0  0  0  0  0
   40.5177   13.0817  -17.9546 C   0  0  0  0  0  0  0  0  0  0  0  0
   37.8589   14.7500  -14.5943 N   0  0  0  0  0  0  0  0  0  0  0  0
   37.4902   15.1410  -15.4092 H   0  0  0  0  0  0  0  0  0  0  0  0
   36.7168   13.7423  -13.6516 S   0  0  0  0  0  0  0  0  0  0  0  0
   37.7222   12.8418  -12.8384 O   0  0  0  0  0  0  0  0  0  0  0  0
   36.0318   14.5539  -12.6148 O   0  0  0  0  0  0  0  0  0  0  0  0
   35.7276   12.7087  -14.5421 C   0  0  0  0  0  0  0  0  0  0  0  0
   36.0916   12.2685  -15.7539 C   0  0  0  0  0  0  0  0  0  0  0  0
   35.4075   11.5332  -16.6333 C   0  0  0  0  0  0  0  0  0  0  0  0
   34.1263   11.1700  -16.2789 C   0  0  0  0  0  0  0  0  0  0  0  0
   33.1097   10.2108  -17.3526 Cl  0  0  0  0  0  0  0  0  0  0  0  0
   33.5658   11.5728  -15.0353 C   0  0  0  0  0  0  0  0  0  0  0  0
   34.3938   12.3416  -14.1795 C   0  0  0  0  0  0  0  0  0  0  0  0
   42.4225   13.6503  -13.9858 O   0  0  0  0  0  0  0  0  0  0  0  0
   43.6338   13.4048  -13.7554 C   0  0  0  0  0  0  0  0  0  0  0  0
   44.5727   12.9821  -12.7324 C   0  0  0  0  0  0  0  0  0  0  0  0
   44.5456   12.8798  -11.4526 O   0  0  0  0  0  0  0  0  0  0  0  0
   44.5241   12.7847  -10.1869 C   0  0  0  0  0  0  0  0  0  0  0  0
   43.3573   13.3092   -9.4619 N   0  0  0  0  0  0  0  0  0  0  0  0
   43.2277   13.2223   -8.1394 C   0  0  0  0  0  0  0  0  0  0  0  0
   44.2357   12.6079   -7.3853 C   0  0  0  0  0  0  0  0  0  0  0  0
   44.0681   12.5282   -5.4932 Br  0  0  0  0  0  0  0  0  0  0  0  0
   45.3412   12.1224   -8.0327 C   0  0  0  0  0  0  0  0  0  0  0  0
   45.4029   12.2479   -9.2941 N   0  0  0  0  0  0  0  0  0  0  0  0
  7  8  1  0  0  0
  8  9  2  0  0  0
  9 10  1  0  0  0
 10 11  2  0  0  0
 11  1  1  0  0  0
  1  2  1  0  0  0
  2 14  1  0  0  0
 14 16  1  0  0  0
 16 17  2  0  0  0
 16 18  2  0  0  0
 16 19  1  0  0  0
 19 20  2  0  0  0
 20 21  1  0  0  0
 21 22  2  0  0  0
 22 23  1  0  0  0
 22 24  1  0  0  0
 24 25  2  0  0  0
  2  3  2  0  0  0
  3  4  1  0  0  0
  4  5  2  0  0  0
  5  6  1  0  0  0
  6 26  1  0  0  0
 26 27  1  0  0  0
 27 28  1  0  0  0
 28 29  1  0  0  0
 29 30  1  0  0  0
 30 31  2  0  0  0
 31 32  1  0  0  0
 32 33  2  0  0  0
 33 34  1  0  0  0
 33 35  1  0  0  0
 35 36  2  0  0  0
 11 12  1  0  0  0
 12 13  2  0  0  0
 13  8  1  0  0  0
  6  1  2  0  0  0
 36 30  1  0  0  0
 25 19  1  0  0  0
 14 15  1  0  0  0
M  END
> <minimizedAffinity>
-8.05521

> <CNNscore>
0.1509188712

> <CNNaffinity>
6.8916220665

> <CNN_VS>
1.0400757790

> <CNNaffinity_variance>
0.1312526166

$$$$
[H]c1nc(N([H])[C@@]([H])(c2c([H])c([H])c(Cl)c([H])c2[H])C([H])([H])N([H])C([H])([H])[H])c2nc([H])c([H])c(C(=O)N([H])[H])c2n1


 29 31  0  0  0  0  0  0  0  0999 V2000
   38.7616   12.5540  -16.4230 C   0  0  0  0  0  0  0  0  0  0  0  0
   39.1835   11.6481  -17.3235 N   0  0  0  0  0  0  0  0  0  0  0  0
   38.3318   10.7194  -17.8385 C   0  0  0  0  0  0  0  0  0  0  0  0
   37.0305   10.6707  -17.4664 N   0  0  0  0  0  0  0  0  0  0  0  0
   36.5603   11.5442  -16.5783 C   0  0  0  0  0  0  0  0  0  0  0  0
   35.2346   11.4958  -16.1988 C   0  0  0  0  0  0  0  0  0  0  0  0
   34.8219   12.4319  -15.2762 C   0  0  0  0  0  0  0  0  0  0  0  0
   35.6998   13.3605  -14.7692 C   0  0  0  0  0  0  0  0  0  0  0  0
   36.9810   13.3766  -15.1621 N   0  0  0  0  0  0  0  0  0  0  0  0
   37.4369   12.4948  -16.0524 C   0  0  0  0  0  0  0  0  0  0  0  0
   34.2908   10.5187  -16.7292 C   0  0  0  0  0  0  0  0  0  0  0  0
   34.5854    9.1489  -16.6304 N   0  0  0  0  0  0  0  0  0  0  0  0
   33.2077   10.8757  -17.2790 O   0  0  0  0  0  0  0  0  0  0  0  0
   34.3388    8.5499  -17.4678 H   0  0  0  0  0  0  0  0  0  0  0  0
   35.0205    8.7580  -15.7797 H   0  0  0  0  0  0  0  0  0  0  0  0
   39.6635   13.5188  -15.8966 N   0  0  0  0  0  0  0  0  0  0  0  0
   39.8167   14.3879  -16.4614 H   0  0  0  0  0  0  0  0  0  0  0  0
   40.3477   13.3246  -14.6382 C   0  0  0  0  0  0  0  0  0  0  0  0
   41.7904   13.2158  -14.8569 C   0  0  0  0  0  0  0  0  0  0  0  0
   42.3647   12.7541  -16.0210 C   0  0  0  0  0  0  0  0  0  0  0  0
   43.7322   12.6720  -16.1759 C   0  0  0  0  0  0  0  0  0  0  0  0
   44.5665   13.0566  -15.1521 C   0  0  0  0  0  0  0  0  0  0  0  0
   46.3105   12.9532  -15.3463 Cl  0  0  0  0  0  0  0  0  0  0  0  0
   44.0154   13.5233  -13.9747 C   0  0  0  0  0  0  0  0  0  0  0  0
   42.6499   13.5943  -13.8480 C   0  0  0  0  0  0  0  0  0  0  0  0
   39.9402   14.4168  -13.6808 C   0  0  0  0  0  0  0  0  0  0  0  0
   38.2750   15.1816  -12.1153 C   0  0  0  0  0  0  0  0  0  0  0  0
   38.7854   14.1000  -12.9027 N   0  0  0  0  0  0  0  0  0  0  0  0
   38.0414   13.7622  -13.5262 H   0  0  0  0  0  0  0  0  0  0  0  0
 27 28  1  0  0  0
 28 26  1  0  0  0
 26 18  1  0  0  0
 18 16  1  0  0  0
 16  1  1  0  0  0
  1  2  2  0  0  0
  2  3  1  0  0  0
  3  4  2  0  0  0
  4  5  1  0  0  0
  5  6  2  0  0  0
  6 11  1  0  0  0
 11 12  1  0  0  0
 11 13  2  0  0  0
  6  7  1  0  0  0
  7  8  2  0  0  0
  8  9  1  0  0  0
  9 10  2  0  0  0
 18 19  1  0  0  0
 19 20  2  0  0  0
 20 21  1  0  0  0
 21 22  2  0  0  0
 22 23  1  0  0  0
 22 24  1  0  0  0
 24 25  2  0  0  0
 10  1  1  0  0  0
 25 19  1  0  0  0
 10  5  1  0  0  0
 28 29  1  0  0  0
 16 17  1  0  0  0
 12 14  1  0  0  0
 12 15  1  0  0  0
M  END
> <minimizedAffinity>
-7.59302

> <CNNscore>
0.6165558100

> <CNNaffinity>
6.9508833885

> <CNN_VS>
4.2856073380

> <CNNaffinity_variance>
0.4252754152

$$$$
[H]c1nc(N([H])[C@@]([H])(c2c([H])c([H])c(Cl)c([H])c2[H])C([H])([H])N([H])C([H])([H])[H])c2nc([H])c([H])c(C(=O)N([H])[H])c2n1


 29 31  0  0  0  0  0  0  0  0999 V2000
   38.7097   13.2418  -13.8705 C   0  0  0  0  0  0  0  0  0  0  0  0
   39.8450   13.9480  -13.7213 N   0  0  0  0  0  0  0  0  0  0  0  0
   40.7955   13.9653  -14.6955 C   0  0  0  0  0  0  0  0  0  0  0  0
   40.6368   13.2750  -15.8499 N   0  0  0  0  0  0  0  0  0  0  0  0
   39.5317   12.5595  -16.0497 C   0  0  0  0  0  0  0  0  0  0  0  0
   39.3688   11.8562  -17.2255 C   0  0  0  0  0  0  0  0  0  0  0  0
   38.1998   11.1398  -17.3595 C   0  0  0  0  0  0  0  0  0  0  0  0
   37.2536   11.1366  -16.3621 C   0  0  0  0  0  0  0  0  0  0  0  0
   37.4472   11.8326  -15.2332 N   0  0  0  0  0  0  0  0  0  0  0  0
   38.5595   12.5443  -15.0480 C   0  0  0  0  0  0  0  0  0  0  0  0
   40.3619   11.8516  -18.2935 C   0  0  0  0  0  0  0  0  0  0  0  0
   41.7277   11.8214  -17.9671 N   0  0  0  0  0  0  0  0  0  0  0  0
   40.0223   11.8741  -19.5128 O   0  0  0  0  0  0  0  0  0  0  0  0
   42.3686   12.4245  -18.5555 H   0  0  0  0  0  0  0  0  0  0  0  0
   42.0767   11.2373  -17.1906 H   0  0  0  0  0  0  0  0  0  0  0  0
   37.7259   13.2363  -12.8443 N   0  0  0  0  0  0  0  0  0  0  0  0
   37.7768   12.4643  -12.1376 H   0  0  0  0  0  0  0  0  0  0  0  0
   36.6930   14.2443  -12.7648 C   0  0  0  0  0  0  0  0  0  0  0  0
   36.9529   15.1498  -11.6452 C   0  0  0  0  0  0  0  0  0  0  0  0
   36.1008   16.1579  -11.2505 C   0  0  0  0  0  0  0  0  0  0  0  0
   36.3934   16.9842  -10.1863 C   0  0  0  0  0  0  0  0  0  0  0  0
   37.5641   16.8155   -9.4840 C   0  0  0  0  0  0  0  0  0  0  0  0
   37.9403   17.8672   -8.1267 Cl  0  0  0  0  0  0  0  0  0  0  0  0
   38.4353   15.8117   -9.8597 C   0  0  0  0  0  0  0  0  0  0  0  0
   38.1182   15.0036  -10.9238 C   0  0  0  0  0  0  0  0  0  0  0  0
   36.5643   14.9260  -14.1044 C   0  0  0  0  0  0  0  0  0  0  0  0
   34.4451   13.7785  -14.1388 C   0  0  0  0  0  0  0  0  0  0  0  0
   35.4583   14.4654  -14.8817 N   0  0  0  0  0  0  0  0  0  0  0  0
   35.0312   15.2647  -15.3666 H   0  0  0  0  0  0  0  0  0  0  0  0
 27 28  1  0  0  0
 28 26  1  0  0  0
 26 18  1  0  0  0
 18 16  1  0  0  0
 16  1  1  0  0  0
  1  2  2  0  0  0
  2  3  1  0  0  0
  3  4  2  0  0  0
  4  5  1  0  0  0
  5  6  2  0  0  0
  6 11  1  0  0  0
 11 12  1  0  0  0
 11 13  2  0  0  0
  6  7  1  0  0  0
  7  8  2  0  0  0
  8  9  1  0  0  0
  9 10  2  0  0  0
 18 19  1  0  0  0
 19 20  2  0  0  0
 20 21  1  0  0  0
 21 22  2  0  0  0
 22 23  1  0  0  0
 22 24  1  0  0  0
 24 25  2  0  0  0
 10  1  1  0  0  0
 25 19  1  0  0  0
 10  5  1  0  0  0
 28 29  1  0  0  0
 16 17  1  0  0  0
 12 14  1  0  0  0
 12 15  1  0  0  0
M  END
> <minimizedAffinity>
-7.33900

> <CNNscore>
0.5818539858

> <CNNaffinity>
6.5338706970

> <CNN_VS>
3.8017587662

> <CNNaffinity_variance>
0.4008213580

$$$$
[H]c1nc(N([H])[C@@]([H])(c2c([H])c([H])c(Cl)c([H])c2[H])C([H])([H])N([H])C([H])([H])[H])c2nc([H])c([H])c(C(=O)N([H])[H])c2n1


 29 31  0  0  0  0  0  0  0  0999 V2000
   32.4502   15.1284  -11.6949 C   0  0  0  0  0  0  0  0  0  0  0  0
   31.3265   14.6654  -12.2717 N   0  0  0  0  0  0  0  0  0  0  0  0
   30.1528   14.6147  -11.5842 C   0  0  0  0  0  0  0  0  0  0  0  0
   30.0696   15.0268  -10.2967 N   0  0  0  0  0  0  0  0  0  0  0  0
   31.1517   15.4943   -9.6775 C   0  0  0  0  0  0  0  0  0  0  0  0
   31.0681   15.9149   -8.3661 C   0  0  0  0  0  0  0  0  0  0  0  0
   32.2292   16.3858   -7.7934 C   0  0  0  0  0  0  0  0  0  0  0  0
   33.4036   16.4277   -8.5070 C   0  0  0  0  0  0  0  0  0  0  0  0
   33.4460   16.0104   -9.7799 N   0  0  0  0  0  0  0  0  0  0  0  0
   32.3535   15.5445  -10.3861 C   0  0  0  0  0  0  0  0  0  0  0  0
   29.8296   15.8789   -7.5969 C   0  0  0  0  0  0  0  0  0  0  0  0
   29.4987   14.7214   -6.8734 N   0  0  0  0  0  0  0  0  0  0  0  0
   29.0416   16.8693   -7.5649 O   0  0  0  0  0  0  0  0  0  0  0  0
   28.4809   14.4305   -6.8850 H   0  0  0  0  0  0  0  0  0  0  0  0
   30.2200   14.1897   -6.3607 H   0  0  0  0  0  0  0  0  0  0  0  0
   33.6675   15.1770  -12.4278 N   0  0  0  0  0  0  0  0  0  0  0  0
   33.7772   15.9550  -13.1210 H   0  0  0  0  0  0  0  0  0  0  0  0
   34.7183   14.2030  -12.2372 C   0  0  0  0  0  0  0  0  0  0  0  0
   34.9221   13.4302  -13.4629 C   0  0  0  0  0  0  0  0  0  0  0  0
   36.0996   13.4082  -14.1778 C   0  0  0  0  0  0  0  0  0  0  0  0
   36.2395   12.6613  -15.3282 C   0  0  0  0  0  0  0  0  0  0  0  0
   35.1864   11.9088  -15.7941 C   0  0  0  0  0  0  0  0  0  0  0  0
   35.3614   10.9553  -17.2604 Cl  0  0  0  0  0  0  0  0  0  0  0  0
   33.9951   11.9138  -15.0952 C   0  0  0  0  0  0  0  0  0  0  0  0
   33.8840   12.6672  -13.9525 C   0  0  0  0  0  0  0  0  0  0  0  0
   35.9531   14.9025  -11.7255 C   0  0  0  0  0  0  0  0  0  0  0  0
   36.6403   17.0234  -10.8099 C   0  0  0  0  0  0  0  0  0  0  0  0
   35.8841   16.3266  -11.8064 N   0  0  0  0  0  0  0  0  0  0  0  0
   36.2027   16.6270  -12.7364 H   0  0  0  0  0  0  0  0  0  0  0  0
 27 28  1  0  0  0
 28 26  1  0  0  0
 26 18  1  0  0  0
 18 16  1  0  0  0
 16  1  1  0  0  0
  1  2  2  0  0  0
  2  3  1  0  0  0
  3  4  2  0  0  0
  4  5  1  0  0  0
  5  6  2  0  0  0
  6 11  1  0  0  0
 11 12  1  0  0  0
 11 13  2  0  0  0
  6  7  1  0  0  0
  7  8  2  0  0  0
  8  9  1  0  0  0
  9 10  2  0  0  0
 18 19  1  0  0  0
 19 20  2  0  0  0
 20 21  1  0  0  0
 21 22  2  0  0  0
 22 23  1  0  0  0
 22 24  1  0  0  0
 24 25  2  0  0  0
 10  1  1  0  0  0
 25 19  1  0  0  0
 10  5  1  0  0  0
 28 29  1  0  0  0
 16 17  1  0  0  0
 12 14  1  0  0  0
 12 15  1  0  0  0
M  END
> <minimizedAffinity>
-7.20123

> <CNNscore>
0.5075102448

> <CNNaffinity>
6.0325922966

> <CNN_VS>
3.0616023540

> <CNNaffinity_variance>
0.2299538404

$$$$
[H]c1nc(N([H])[C@@]([H])(c2c([H])c([H])c(Cl)c([H])c2[H])C([H])([H])N([H])C([H])([H])[H])c2nc([H])c([H])c(C(=O)N([H])[H])c2n1


 29 31  0  0  0  0  0  0  0  0999 V2000
   39.2264   13.3136  -14.3421 C   0  0  0  0  0  0  0  0  0  0  0  0
   40.5114   13.6944  -14.4588 N   0  0  0  0  0  0  0  0  0  0  0  0
   41.2448   13.3666  -15.5577 C   0  0  0  0  0  0  0  0  0  0  0  0
   40.7121   12.6469  -16.5739 N   0  0  0  0  0  0  0  0  0  0  0  0
   39.4445   12.2445  -16.5099 C   0  0  0  0  0  0  0  0  0  0  0  0
   38.9006   11.5116  -17.5447 C   0  0  0  0  0  0  0  0  0  0  0  0
   37.5838   11.1314  -17.4067 C   0  0  0  0  0  0  0  0  0  0  0  0
   36.8621   11.4736  -16.2876 C   0  0  0  0  0  0  0  0  0  0  0  0
   37.4249   12.1870  -15.3024 N   0  0  0  0  0  0  0  0  0  0  0  0
   38.6959   12.5825  -15.3812 C   0  0  0  0  0  0  0  0  0  0  0  0
   39.6523   11.1429  -18.7389 C   0  0  0  0  0  0  0  0  0  0  0  0
   38.9611   10.8145  -19.9167 N   0  0  0  0  0  0  0  0  0  0  0  0
   40.9179   11.1114  -18.7405 O   0  0  0  0  0  0  0  0  0  0  0  0
   39.3459   10.0063  -20.4818 H   0  0  0  0  0  0  0  0  0  0  0  0
   38.1217   11.3413  -20.2058 H   0  0  0  0  0  0  0  0  0  0  0  0
   38.4736   13.6662  -13.1888 N   0  0  0  0  0  0  0  0  0  0  0  0
   38.2104   12.8913  -12.5346 H   0  0  0  0  0  0  0  0  0  0  0  0
   38.0799   15.0300  -12.9159 C   0  0  0  0  0  0  0  0  0  0  0  0
   36.6710   15.0827  -12.5247 C   0  0  0  0  0  0  0  0  0  0  0  0
   35.6708   14.3558  -13.1324 C   0  0  0  0  0  0  0  0  0  0  0  0
   34.3567   14.4416  -12.7240 C   0  0  0  0  0  0  0  0  0  0  0  0
   34.0114   15.2704  -11.6819 C   0  0  0  0  0  0  0  0  0  0  0  0
   32.3370   15.3823  -11.1585 Cl  0  0  0  0  0  0  0  0  0  0  0  0
   34.9958   16.0098  -11.0558 C   0  0  0  0  0  0  0  0  0  0  0  0
   36.2964   15.9046  -11.4836 C   0  0  0  0  0  0  0  0  0  0  0  0
   39.0319   15.6267  -11.9092 C   0  0  0  0  0  0  0  0  0  0  0  0
   41.3631   16.1939  -11.6798 C   0  0  0  0  0  0  0  0  0  0  0  0
   40.1863   16.2301  -12.4947 N   0  0  0  0  0  0  0  0  0  0  0  0
   40.3883   15.7706  -13.3916 H   0  0  0  0  0  0  0  0  0  0  0  0
 27 28  1  0  0  0
 28 26  1  0  0  0
 26 18  1  0  0  0
 18 16  1  0  0  0
 16  1  1  0  0  0
  1  2  2  0  0  0
  2  3  1  0  0  0
  3  4  2  0  0  0
  4  5  1  0  0  0
  5  6  2  0  0  0
  6 11  1  0  0  0
 11 12  1  0  0  0
 11 13  2  0  0  0
  6  7  1  0  0  0
  7  8  2  0  0  0
  8  9  1  0  0  0
  9 10  2  0  0  0
 18 19  1  0  0  0
 19 20  2  0  0  0
 20 21  1  0  0  0
 21 22  2  0  0  0
 22 23  1  0  0  0
 22 24  1  0  0  0
 24 25  2  0  0  0
 10  1  1  0  0  0
 25 19  1  0  0  0
 10  5  1  0  0  0
 28 29  1  0  0  0
 16 17  1  0  0  0
 12 14  1  0  0  0
 12 15  1  0  0  0
M  END
> <minimizedAffinity>
-7.95052

> <CNNscore>
0.4437053800

> <CNNaffinity>
6.6366920471

> <CNN_VS>
2.9447360039

> <CNNaffinity_variance>
0.6228064299

$$$$
[H]c1nc(N([H])[C@@]([H])(c2c([H])c([H])c(Cl)c([H])c2[H])C([H])([H])N([H])C([H])([H])[H])c2nc([H])c([H])c(C(=O)N([H])[H])c2n1


 29 31  0  0  0  0  0  0  0  0999 V2000
   38.5634   13.6789  -13.7810 C   0  0  0  0  0  0  0  0  0  0  0  0
   39.6876   14.3971  -13.6079 N   0  0  0  0  0  0  0  0  0  0  0  0
   40.6961   14.3556  -14.5212 C   0  0  0  0  0  0  0  0  0  0  0  0
   40.6083   13.5924  -15.6366 N   0  0  0  0  0  0  0  0  0  0  0  0
   39.5173   12.8618  -15.8576 C   0  0  0  0  0  0  0  0  0  0  0  0
   39.4266   12.0842  -16.9938 C   0  0  0  0  0  0  0  0  0  0  0  0
   38.2678   11.3566  -17.1532 C   0  0  0  0  0  0  0  0  0  0  0  0
   37.2621   11.4138  -16.2175 C   0  0  0  0  0  0  0  0  0  0  0  0
   37.3863   12.1810  -15.1256 N   0  0  0  0  0  0  0  0  0  0  0  0
   38.4855   12.9070  -14.9185 C   0  0  0  0  0  0  0  0  0  0  0  0
   40.4834   12.0149  -17.9964 C   0  0  0  0  0  0  0  0  0  0  0  0
   41.8254   11.9720  -17.5842 N   0  0  0  0  0  0  0  0  0  0  0  0
   40.2203   11.9924  -19.2346 O   0  0  0  0  0  0  0  0  0  0  0  0
   42.5146   12.5370  -18.1557 H   0  0  0  0  0  0  0  0  0  0  0  0
   42.1129   11.4147  -16.7641 H   0  0  0  0  0  0  0  0  0  0  0  0
   37.5184   13.7354  -12.8187 N   0  0  0  0  0  0  0  0  0  0  0  0
   37.1127   12.8235  -12.4998 H   0  0  0  0  0  0  0  0  0  0  0  0
   37.0251   14.9882  -12.2931 C   0  0  0  0  0  0  0  0  0  0  0  0
   35.5667   14.9516  -12.1796 C   0  0  0  0  0  0  0  0  0  0  0  0
   34.7417   14.2420  -13.0245 C   0  0  0  0  0  0  0  0  0  0  0  0
   33.3713   14.2406  -12.8732 C   0  0  0  0  0  0  0  0  0  0  0  0
   32.7892   14.9614  -11.8564 C   0  0  0  0  0  0  0  0  0  0  0  0
   31.0424   14.9619  -11.6605 Cl  0  0  0  0  0  0  0  0  0  0  0  0
   33.5946   15.6812  -10.9956 C   0  0  0  0  0  0  0  0  0  0  0  0
   34.9566   15.6645  -11.1700 C   0  0  0  0  0  0  0  0  0  0  0  0
   37.7456   15.3014  -11.0053 C   0  0  0  0  0  0  0  0  0  0  0  0
   38.8014   17.2683  -10.0969 C   0  0  0  0  0  0  0  0  0  0  0  0
   38.7670   16.2901  -11.1419 N   0  0  0  0  0  0  0  0  0  0  0  0
   39.6820   15.8245  -11.1922 H   0  0  0  0  0  0  0  0  0  0  0  0
 27 28  1  0  0  0
 28 26  1  0  0  0
 26 18  1  0  0  0
 18 16  1  0  0  0
 16  1  1  0  0  0
  1  2  2  0  0  0
  2  3  1  0  0  0
  3  4  2  0  0  0
  4  5  1  0  0  0
  5  6  2  0  0  0
  6 11  1  0  0  0
 11 12  1  0  0  0
 11 13  2  0  0  0
  6  7  1  0  0  0
  7  8  2  0  0  0
  8  9  1  0  0  0
  9 10  2  0  0  0
 18 19  1  0  0  0
 19 20  2  0  0  0
 20 21  1  0  0  0
 21 22  2  0  0  0
 22 23  1  0  0  0
 22 24  1  0  0  0
 24 25  2  0  0  0
 10  1  1  0  0  0
 25 19  1  0  0  0
 10  5  1  0  0  0
 28 29  1  0  0  0
 16 17  1  0  0  0
 12 14  1  0  0  0
 12 15  1  0  0  0
M  END
> <minimizedAffinity>
-7.54673

> <CNNscore>
0.3955474198

> <CNNaffinity>
6.2664175034

> <CNN_VS>
2.4786653519

> <CNNaffinity_variance>
0.4611923099

$$$$
[H]c1nc(N([H])[C@@]([H])(c2c([H])c([H])c(Cl)c([H])c2[H])C([H])([H])N([H])C([H])([H])[H])c2nc([H])c([H])c(C(=O)N([H])[H])c2n1


 29 31  0  0  0  0  0  0  0  0999 V2000
   37.8457   13.7641  -14.9502 C   0  0  0  0  0  0  0  0  0  0  0  0
   37.0457   14.4576  -14.1202 N   0  0  0  0  0  0  0  0  0  0  0  0
   35.7176   14.1749  -14.0245 C   0  0  0  0  0  0  0  0  0  0  0  0
   35.1507   13.1876  -14.7580 N   0  0  0  0  0  0  0  0  0  0  0  0
   35.8967   12.4697  -15.5952 C   0  0  0  0  0  0  0  0  0  0  0  0
   35.3203   11.4633  -16.3427 C   0  0  0  0  0  0  0  0  0  0  0  0
   36.1559   10.7646  -17.1861 C   0  0  0  0  0  0  0  0  0  0  0  0
   37.4945   11.0678  -17.2667 C   0  0  0  0  0  0  0  0  0  0  0  0
   38.0188   12.0528  -16.5244 N   0  0  0  0  0  0  0  0  0  0  0  0
   37.2582   12.7630  -15.6906 C   0  0  0  0  0  0  0  0  0  0  0  0
   33.9030   11.1284  -16.2665 C   0  0  0  0  0  0  0  0  0  0  0  0
   33.2945   10.9795  -15.0094 N   0  0  0  0  0  0  0  0  0  0  0  0
   33.2041   10.9678  -17.3099 O   0  0  0  0  0  0  0  0  0  0  0  0
   32.5958   10.1901  -14.9120 H   0  0  0  0  0  0  0  0  0  0  0  0
   33.5253   11.6133  -14.2279 H   0  0  0  0  0  0  0  0  0  0  0  0
   39.2313   14.0705  -15.0365 N   0  0  0  0  0  0  0  0  0  0  0  0
   39.5986   14.3628  -15.9733 H   0  0  0  0  0  0  0  0  0  0  0  0
   40.1093   13.9873  -13.8913 C   0  0  0  0  0  0  0  0  0  0  0  0
   41.4702   13.6608  -14.3182 C   0  0  0  0  0  0  0  0  0  0  0  0
   42.5932   13.8609  -13.5456 C   0  0  0  0  0  0  0  0  0  0  0  0
   43.8549   13.5348  -13.9959 C   0  0  0  0  0  0  0  0  0  0  0  0
   44.0209   12.9930  -15.2493 C   0  0  0  0  0  0  0  0  0  0  0  0
   45.6280   12.5760  -15.8266 Cl  0  0  0  0  0  0  0  0  0  0  0  0
   42.9107   12.7822  -16.0435 C   0  0  0  0  0  0  0  0  0  0  0  0
   41.6661   13.1166  -15.5693 C   0  0  0  0  0  0  0  0  0  0  0  0
   39.9933   15.2581  -13.0868 C   0  0  0  0  0  0  0  0  0  0  0  0
   39.3336   16.1633  -10.9528 C   0  0  0  0  0  0  0  0  0  0  0  0
   39.1566   15.1373  -11.9358 N   0  0  0  0  0  0  0  0  0  0  0  0
   38.1730   15.1281  -12.2338 H   0  0  0  0  0  0  0  0  0  0  0  0
 27 28  1  0  0  0
 28 26  1  0  0  0
 26 18  1  0  0  0
 18 16  1  0  0  0
 16  1  1  0  0  0
  1  2  2  0  0  0
  2  3  1  0  0  0
  3  4  2  0  0  0
  4  5  1  0  0  0
  5  6  2  0  0  0
  6 11  1  0  0  0
 11 12  1  0  0  0
 11 13  2  0  0  0
  6  7  1  0  0  0
  7  8  2  0  0  0
  8  9  1  0  0  0
  9 10  2  0  0  0
 18 19  1  0  0  0
 19 20  2  0  0  0
 20 21  1  0  0  0
 21 22  2  0  0  0
 22 23  1  0  0  0
 22 24  1  0  0  0
 24 25  2  0  0  0
 10  1  1  0  0  0
 25 19  1  0  0  0
 10  5  1  0  0  0
 28 29  1  0  0  0
 16 17  1  0  0  0
 12 14  1  0  0  0
 12 15  1  0  0  0
M  END
> <minimizedAffinity>
-7.94162

> <CNNscore>
0.3627098203

> <CNNaffinity>
6.6440973282

> <CNN_VS>
2.4098794460

> <CNNaffinity_variance>
0.2969948649

$$$$
[H]c1nc(N([H])[C@@]([H])(c2c([H])c([H])c(Cl)c([H])c2[H])C([H])([H])N([H])C([H])([H])[H])c2nc([H])c([H])c(C(=O)N([H])[H])c2n1


 29 31  0  0  0  0  0  0  0  0999 V2000
   38.0684   12.0485  -15.7621 C   0  0  0  0  0  0  0  0  0  0  0  0
   37.2211   11.4183  -16.5955 N   0  0  0  0  0  0  0  0  0  0  0  0
   35.8739   11.5764  -16.4803 C   0  0  0  0  0  0  0  0  0  0  0  0
   35.3349   12.3718  -15.5258 N   0  0  0  0  0  0  0  0  0  0  0  0
   36.1281   13.0193  -14.6746 C   0  0  0  0  0  0  0  0  0  0  0  0
   35.5802   13.8302  -13.7021 C   0  0  0  0  0  0  0  0  0  0  0  0
   36.4641   14.4670  -12.8589 C   0  0  0  0  0  0  0  0  0  0  0  0
   37.8211   14.2922  -12.9937 C   0  0  0  0  0  0  0  0  0  0  0  0
   38.3167   13.4962  -13.9512 N   0  0  0  0  0  0  0  0  0  0  0  0
   37.5090   12.8542  -14.7960 C   0  0  0  0  0  0  0  0  0  0  0  0
   34.1434   14.0275  -13.5480 C   0  0  0  0  0  0  0  0  0  0  0  0
   33.3617   14.3250  -14.6763 N   0  0  0  0  0  0  0  0  0  0  0  0
   33.5806   13.9368  -12.4176 O   0  0  0  0  0  0  0  0  0  0  0  0
   32.5960   15.0443  -14.5455 H   0  0  0  0  0  0  0  0  0  0  0  0
   33.5347   13.8599  -15.5815 H   0  0  0  0  0  0  0  0  0  0  0  0
   39.4729   11.8744  -15.8975 N   0  0  0  0  0  0  0  0  0  0  0  0
   39.8844   10.9912  -15.5120 H   0  0  0  0  0  0  0  0  0  0  0  0
   40.3115   12.8633  -16.5363 C   0  0  0  0  0  0  0  0  0  0  0  0
   41.5513   13.0420  -15.7801 C   0  0  0  0  0  0  0  0  0  0  0  0
   41.6134   13.5645  -14.5068 C   0  0  0  0  0  0  0  0  0  0  0  0
   42.8095   13.7113  -13.8371 C   0  0  0  0  0  0  0  0  0  0  0  0
   43.9872   13.3319  -14.4380 C   0  0  0  0  0  0  0  0  0  0  0  0
   45.5141   13.5176  -13.5870 Cl  0  0  0  0  0  0  0  0  0  0  0  0
   43.9519   12.8050  -15.7143 C   0  0  0  0  0  0  0  0  0  0  0  0
   42.7463   12.6703  -16.3577 C   0  0  0  0  0  0  0  0  0  0  0  0
   40.5096   12.4828  -17.9826 C   0  0  0  0  0  0  0  0  0  0  0  0
   39.3527   10.9820  -19.4718 C   0  0  0  0  0  0  0  0  0  0  0  0
   40.1333   11.1380  -18.2816 N   0  0  0  0  0  0  0  0  0  0  0  0
   40.9801   10.5610  -18.3610 H   0  0  0  0  0  0  0  0  0  0  0  0
 27 28  1  0  0  0
 28 26  1  0  0  0
 26 18  1  0  0  0
 18 16  1  0  0  0
 16  1  1  0  0  0
  1  2  2  0  0  0
  2  3  1  0  0  0
  3  4  2  0  0  0
  4  5  1  0  0  0
  5  6  2  0  0  0
  6 11  1  0  0  0
 11 12  1  0  0  0
 11 13  2  0  0  0
  6  7  1  0  0  0
  7  8  2  0  0  0
  8  9  1  0  0  0
  9 10  2  0  0  0
 18 19  1  0  0  0
 19 20  2  0  0  0
 20 21  1  0  0  0
 21 22  2  0  0  0
 22 23  1  0  0  0
 22 24  1  0  0  0
 24 25  2  0  0  0
 10  1  1  0  0  0
 25 19  1  0  0  0
 10  5  1  0  0  0
 28 29  1  0  0  0
 16 17  1  0  0  0
 12 14  1  0  0  0
 12 15  1  0  0  0
M  END
> <minimizedAffinity>
-7.59474

> <CNNscore>
0.3427160680

> <CNNaffinity>
6.7918119431

> <CNN_VS>
2.3276631832

> <CNNaffinity_variance>
0.1221539378

$$$$
[H]c1nc(N([H])[C@@]([H])(c2c([H])c([H])c(Cl)c([H])c2[H])C([H])([H])N([H])C([H])([H])[H])c2nc([H])c([H])c(C(=O)N([H])[H])c2n1


 29 31  0  0  0  0  0  0  0  0999 V2000
   38.9166   12.7846  -15.0346 C   0  0  0  0  0  0  0  0  0  0  0  0
   39.1533   13.7271  -14.1044 N   0  0  0  0  0  0  0  0  0  0  0  0
   38.1301   14.3387  -13.4470 C   0  0  0  0  0  0  0  0  0  0  0  0
   36.8379   14.0238  -13.7021 N   0  0  0  0  0  0  0  0  0  0  0  0
   36.5471   13.0974  -14.6133 C   0  0  0  0  0  0  0  0  0  0  0  0
   35.2309   12.7754  -14.8737 C   0  0  0  0  0  0  0  0  0  0  0  0
   35.0093   11.8080  -15.8289 C   0  0  0  0  0  0  0  0  0  0  0  0
   36.0583   11.2037  -16.4806 C   0  0  0  0  0  0  0  0  0  0  0  0
   37.3243   11.5428  -16.2006 N   0  0  0  0  0  0  0  0  0  0  0  0
   37.5992   12.4728  -15.2853 C   0  0  0  0  0  0  0  0  0  0  0  0
   34.1078   13.4056  -14.1893 C   0  0  0  0  0  0  0  0  0  0  0  0
   33.6372   14.6514  -14.6359 N   0  0  0  0  0  0  0  0  0  0  0  0
   33.5438   12.8554  -13.1983 O   0  0  0  0  0  0  0  0  0  0  0  0
   33.3596   15.3482  -13.8888 H   0  0  0  0  0  0  0  0  0  0  0  0
   33.5702   14.8650  -15.6437 H   0  0  0  0  0  0  0  0  0  0  0  0
   39.9967   12.1537  -15.7104 N   0  0  0  0  0  0  0  0  0  0  0  0
   40.1492   11.1346  -15.5207 H   0  0  0  0  0  0  0  0  0  0  0  0
   40.8569   12.8727  -16.6229 C   0  0  0  0  0  0  0  0  0  0  0  0
   42.2349   12.8677  -16.1312 C   0  0  0  0  0  0  0  0  0  0  0  0
   42.6458   13.4880  -14.9716 C   0  0  0  0  0  0  0  0  0  0  0  0
   43.9587   13.4524  -14.5522 C   0  0  0  0  0  0  0  0  0  0  0  0
   44.9026   12.7843  -15.2971 C   0  0  0  0  0  0  0  0  0  0  0  0
   46.5774   12.7369  -14.7653 Cl  0  0  0  0  0  0  0  0  0  0  0  0
   44.5161   12.1540  -16.4637 C   0  0  0  0  0  0  0  0  0  0  0  0
   43.2015   12.2059  -16.8574 C   0  0  0  0  0  0  0  0  0  0  0  0
   40.6854   12.3084  -18.0113 C   0  0  0  0  0  0  0  0  0  0  0  0
   39.2301   10.9635  -19.3832 C   0  0  0  0  0  0  0  0  0  0  0  0
   39.7681   11.2161  -18.0805 N   0  0  0  0  0  0  0  0  0  0  0  0
   40.2326   10.3642  -17.7414 H   0  0  0  0  0  0  0  0  0  0  0  0
 27 28  1  0  0  0
 28 26  1  0  0  0
 26 18  1  0  0  0
 18 16  1  0  0  0
 16  1  1  0  0  0
  1  2  2  0  0  0
  2  3  1  0  0  0
  3  4  2  0  0  0
  4  5  1  0  0  0
  5  6  2  0  0  0
  6 11  1  0  0  0
 11 12  1  0  0  0
 11 13  2  0  0  0
  6  7  1  0  0  0
  7  8  2  0  0  0
  8  9  1  0  0  0
  9 10  2  0  0  0
 18 19  1  0  0  0
 19 20  2  0  0  0
 20 21  1  0  0  0
 21 22  2  0  0  0
 22 23  1  0  0  0
 22 24  1  0  0  0
 24 25  2  0  0  0
 10  1  1  0  0  0
 25 19  1  0  0  0
 10  5  1  0  0  0
 28 29  1  0  0  0
 16 17  1  0  0  0
 12 14  1  0  0  0
 12 15  1  0  0  0
M  END
> <minimizedAffinity>
-7.58997

> <CNNscore>
0.3419033289

> <CNNaffinity>
6.6851129532

> <CNN_VS>
2.2856624126

> <CNNaffinity_variance>
0.0370606184

$$$$
[H]c1nc(N([H])[C@@]([H])(c2c([H])c([H])c(Cl)c([H])c2[H])C([H])([H])N([H])C([H])([H])[H])c2nc([H])c([H])c(C(=O)N([H])[H])c2n1


 29 31  0  0  0  0  0  0  0  0999 V2000
   39.8565   13.1755  -15.8202 C   0  0  0  0  0  0  0  0  0  0  0  0
   39.6935   12.5005  -16.9724 N   0  0  0  0  0  0  0  0  0  0  0  0
   40.7575   11.9605  -17.6275 C   0  0  0  0  0  0  0  0  0  0  0  0
   42.0181   12.0806  -17.1472 N   0  0  0  0  0  0  0  0  0  0  0  0
   42.2362   12.7385  -16.0103 C   0  0  0  0  0  0  0  0  0  0  0  0
   43.5200   12.8611  -15.5199 C   0  0  0  0  0  0  0  0  0  0  0  0
   43.6662   13.5553  -14.3390 C   0  0  0  0  0  0  0  0  0  0  0  0
   42.5770   14.0925  -13.6946 C   0  0  0  0  0  0  0  0  0  0  0  0
   41.3444   13.9527  -14.2018 N   0  0  0  0  0  0  0  0  0  0  0  0
   41.1423   13.2910  -15.3417 C   0  0  0  0  0  0  0  0  0  0  0  0
   44.6848   12.2950  -16.1904 C   0  0  0  0  0  0  0  0  0  0  0  0
   44.6869   12.1764  -17.5899 N   0  0  0  0  0  0  0  0  0  0  0  0
   45.6987   11.9061  -15.5397 O   0  0  0  0  0  0  0  0  0  0  0  0
   45.1108   11.2925  -17.9896 H   0  0  0  0  0  0  0  0  0  0  0  0
   44.2920   12.9197  -18.1878 H   0  0  0  0  0  0  0  0  0  0  0  0
   38.7343   13.7314  -15.1472 N   0  0  0  0  0  0  0  0  0  0  0  0
   38.7112   14.7730  -15.0364 H   0  0  0  0  0  0  0  0  0  0  0  0
   37.6630   12.9092  -14.6317 C   0  0  0  0  0  0  0  0  0  0  0  0
   37.0689   13.5330  -13.4490 C   0  0  0  0  0  0  0  0  0  0  0  0
   35.7148   13.5919  -13.2021 C   0  0  0  0  0  0  0  0  0  0  0  0
   35.2061   14.1919  -12.0698 C   0  0  0  0  0  0  0  0  0  0  0  0
   36.0564   14.7545  -11.1464 C   0  0  0  0  0  0  0  0  0  0  0  0
   35.4113   15.5203   -9.7016 Cl  0  0  0  0  0  0  0  0  0  0  0  0
   37.4186   14.7085  -11.3706 C   0  0  0  0  0  0  0  0  0  0  0  0
   37.8973   14.1045  -12.5072 C   0  0  0  0  0  0  0  0  0  0  0  0
   36.6858   12.6174  -15.7432 C   0  0  0  0  0  0  0  0  0  0  0  0
   35.8090   10.9330  -17.2274 C   0  0  0  0  0  0  0  0  0  0  0  0
   36.8616   11.3334  -16.3431 N   0  0  0  0  0  0  0  0  0  0  0  0
   37.7513   11.3209  -16.8576 H   0  0  0  0  0  0  0  0  0  0  0  0
 27 28  1  0  0  0
 28 26  1  0  0  0
 26 18  1  0  0  0
 18 16  1  0  0  0
 16  1  1  0  0  0
  1  2  2  0  0  0
  2  3  1  0  0  0
  3  4  2  0  0  0
  4  5  1  0  0  0
  5  6  2  0  0  0
  6 11  1  0  0  0
 11 12  1  0  0  0
 11 13  2  0  0  0
  6  7  1  0  0  0
  7  8  2  0  0  0
  8  9  1  0  0  0
  9 10  2  0  0  0
 18 19  1  0  0  0
 19 20  2  0  0  0
 20 21  1  0  0  0
 21 22  2  0  0  0
 22 23  1  0  0  0
 22 24  1  0  0  0
 24 25  2  0  0  0
 10  1  1  0  0  0
 25 19  1  0  0  0
 10  5  1  0  0  0
 28 29  1  0  0  0
 16 17  1  0  0  0
 12 14  1  0  0  0
 12 15  1  0  0  0
M  END
> <minimizedAffinity>
-7.05366

> <CNNscore>
0.3367706239

> <CNNaffinity>
6.5657758713

> <CNN_VS>
2.2111604214

> <CNNaffinity_variance>
0.4483062625

$$$$
[H]Oc1c(OC([H])([H])[H])c(OC([H])([H])[H])c2c3c1-c1c([H])c([H])c([H])c([H])c1C([H])([H])[C@@]3([H])N([H])C([H])([H])C2([H])[H]


 24 27  0  0  0  0  0  0  0  0999 V2000
   37.2242   11.2234  -16.8918 C   0  0  0  0  0  0  0  0  0  0  0  0
   38.2479   11.9214  -16.2657 C   0  0  0  0  0  0  0  0  0  0  0  0
   39.5046   11.6727  -16.7487 O   0  0  0  0  0  0  0  0  0  0  0  0
   37.9211   12.7810  -15.2416 C   0  0  0  0  0  0  0  0  0  0  0  0
   36.6193   12.9598  -14.8299 C   0  0  0  0  0  0  0  0  0  0  0  0
   35.6227   12.2423  -15.4836 C   0  0  0  0  0  0  0  0  0  0  0  0
   35.9032   11.3780  -16.5068 C   0  0  0  0  0  0  0  0  0  0  0  0
   34.2336   12.4386  -15.0339 C   0  0  0  0  0  0  0  0  0  0  0  0
   33.9330   13.7975  -14.5310 C   0  0  0  0  0  0  0  0  0  0  0  0
   34.9735   14.4959  -13.9036 N   0  0  0  0  0  0  0  0  0  0  0  0
   36.2239   13.8069  -13.7294 C   0  0  0  0  0  0  0  0  0  0  0  0
   37.2283   14.7873  -13.2776 C   0  0  0  0  0  0  0  0  0  0  0  0
   38.6222   14.4911  -13.6202 C   0  0  0  0  0  0  0  0  0  0  0  0
   39.6403   15.2041  -12.9613 C   0  0  0  0  0  0  0  0  0  0  0  0
   40.9569   15.0285  -13.2601 C   0  0  0  0  0  0  0  0  0  0  0  0
   41.2598   14.1237  -14.2352 C   0  0  0  0  0  0  0  0  0  0  0  0
   40.2958   13.3798  -14.9296 C   0  0  0  0  0  0  0  0  0  0  0  0
   38.9801   13.5733  -14.6106 C   0  0  0  0  0  0  0  0  0  0  0  0
   39.7293   11.0475  -17.4928 H   0  0  0  0  0  0  0  0  0  0  0  0
   34.7046   14.8735  -12.9524 H   0  0  0  0  0  0  0  0  0  0  0  0
   37.7866   10.7240  -19.2440 C   0  0  0  0  0  0  0  0  0  0  0  0
   37.5257   10.3551  -17.9215 O   0  0  0  0  0  0  0  0  0  0  0  0
   34.8773   10.6828  -17.1306 O   0  0  0  0  0  0  0  0  0  0  0  0
   34.5290    9.3911  -16.6889 C   0  0  0  0  0  0  0  0  0  0  0  0
 21 22  1  0  0  0
 22  1  1  0  0  0
  1  2  2  0  0  0
  2  3  1  0  0  0
  2  4  1  0  0  0
  4  5  2  0  0  0
  5  6  1  0  0  0
  6  7  2  0  0  0
  7 23  1  0  0  0
 23 24  1  0  0  0
  6  8  1  0  0  0
  8  9  1  0  0  0
  9 10  1  0  0  0
 10 11  1  0  0  0
 11 12  1  0  0  0
 12 13  1  0  0  0
 13 14  2  0  0  0
 14 15  1  0  0  0
 15 16  2  0  0  0
 16 17  1  0  0  0
 17 18  2  0  0  0
  7  1  1  0  0  0
 18 13  1  0  0  0
 18  4  1  0  0  0
 11  5  1  0  0  0
  3 19  1  0  0  0
 10 20  1  0  0  0
M  END
> <minimizedAffinity>
-8.37913

> <CNNscore>
0.8347321749

> <CNNaffinity>
6.6028199196

> <CNN_VS>
5.5115861893

> <CNNaffinity_variance>
0.2335660905

$$$$
[H]Oc1c(OC([H])([H])[H])c(OC([H])([H])[H])c2c3c1-c1c([H])c([H])c([H])c([H])c1C([H])([H])[C@@]3([H])N([H])C([H])([H])C2([H])[H]


 24 27  0  0  0  0  0  0  0  0999 V2000
   38.0273   11.2432  -17.5141 C   0  0  0  0  0  0  0  0  0  0  0  0
   39.3228   11.5878  -17.1538 C   0  0  0  0  0  0  0  0  0  0  0  0
   40.3067   11.0885  -17.9643 O   0  0  0  0  0  0  0  0  0  0  0  0
   39.5028   12.3810  -16.0433 C   0  0  0  0  0  0  0  0  0  0  0  0
   38.4405   12.8323  -15.2923 C   0  0  0  0  0  0  0  0  0  0  0  0
   37.1581   12.4654  -15.6874 C   0  0  0  0  0  0  0  0  0  0  0  0
   36.9339   11.6791  -16.7847 C   0  0  0  0  0  0  0  0  0  0  0  0
   36.0286   12.9512  -14.8758 C   0  0  0  0  0  0  0  0  0  0  0  0
   36.2404   14.2765  -14.2526 C   0  0  0  0  0  0  0  0  0  0  0  0
   37.5520   14.6172  -13.8954 N   0  0  0  0  0  0  0  0  0  0  0  0
   38.5720   13.6222  -14.0907 C   0  0  0  0  0  0  0  0  0  0  0  0
   39.8834   14.2627  -13.8808 C   0  0  0  0  0  0  0  0  0  0  0  0
   41.0165   13.6676  -14.5948 C   0  0  0  0  0  0  0  0  0  0  0  0
   42.3190   14.0243  -14.2007 C   0  0  0  0  0  0  0  0  0  0  0  0
   43.4236   13.5596  -14.8468 C   0  0  0  0  0  0  0  0  0  0  0  0
   43.2212   12.7234  -15.9056 C   0  0  0  0  0  0  0  0  0  0  0  0
   41.9519   12.3274  -16.3496 C   0  0  0  0  0  0  0  0  0  0  0  0
   40.8580   12.8069  -15.6836 C   0  0  0  0  0  0  0  0  0  0  0  0
   40.1639   10.5148  -18.7678 H   0  0  0  0  0  0  0  0  0  0  0  0
   37.6374   14.9405  -12.8916 H   0  0  0  0  0  0  0  0  0  0  0  0
   37.7512   10.9007  -19.9442 C   0  0  0  0  0  0  0  0  0  0  0  0
   37.8200   10.4486  -18.6235 O   0  0  0  0  0  0  0  0  0  0  0  0
   35.6376   11.3375  -17.1422 O   0  0  0  0  0  0  0  0  0  0  0  0
   35.1005   10.0960  -16.7486 C   0  0  0  0  0  0  0  0  0  0  0  0
 21 22  1  0  0  0
 22  1  1  0  0  0
  1  2  2  0  0  0
  2  3  1  0  0  0
  2  4  1  0  0  0
  4  5  2  0  0  0
  5  6  1  0  0  0
  6  7  2  0  0  0
  7 23  1  0  0  0
 23 24  1  0  0  0
  6  8  1  0  0  0
  8  9  1  0  0  0
  9 10  1  0  0  0
 10 11  1  0  0  0
 11 12  1  0  0  0
 12 13  1  0  0  0
 13 14  2  0  0  0
 14 15  1  0  0  0
 15 16  2  0  0  0
 16 17  1  0  0  0
 17 18  2  0  0  0
  7  1  1  0  0  0
 18 13  1  0  0  0
 18  4  1  0  0  0
 11  5  1  0  0  0
  3 19  1  0  0  0
 10 20  1  0  0  0
M  END
> <minimizedAffinity>
-8.48747

> <CNNscore>
0.7447869778

> <CNNaffinity>
6.5144934654

> <CNN_VS>
4.8519101143

> <CNNaffinity_variance>
0.3710144162

$$$$
[H]Oc1c(OC([H])([H])[H])c(OC([H])([H])[H])c2c3c1-c1c([H])c([H])c([H])c([H])c1C([H])([H])[C@@]3([H])N([H])C([H])([H])C2([H])[H]


 24 27  0  0  0  0  0  0  0  0999 V2000
   39.6846   12.2213  -16.4874 C   0  0  0  0  0  0  0  0  0  0  0  0
   38.3751   11.7663  -16.5601 C   0  0  0  0  0  0  0  0  0  0  0  0
   38.1564   10.7578  -17.4598 O   0  0  0  0  0  0  0  0  0  0  0  0
   37.4341   12.3512  -15.7433 C   0  0  0  0  0  0  0  0  0  0  0  0
   37.7592   13.3643  -14.8691 C   0  0  0  0  0  0  0  0  0  0  0  0
   39.0826   13.7908  -14.8261 C   0  0  0  0  0  0  0  0  0  0  0  0
   40.0499   13.2368  -15.6198 C   0  0  0  0  0  0  0  0  0  0  0  0
   39.4196   14.8770  -13.8895 C   0  0  0  0  0  0  0  0  0  0  0  0
   38.6149   14.8940  -12.6477 C   0  0  0  0  0  0  0  0  0  0  0  0
   37.2952   14.4296  -12.7299 N   0  0  0  0  0  0  0  0  0  0  0  0
   36.8061   14.0488  -14.0277 C   0  0  0  0  0  0  0  0  0  0  0  0
   35.5057   13.3773  -13.8485 C   0  0  0  0  0  0  0  0  0  0  0  0
   35.1341   12.4007  -14.8760 C   0  0  0  0  0  0  0  0  0  0  0  0
   33.7973   11.9663  -14.9356 C   0  0  0  0  0  0  0  0  0  0  0  0
   33.3822   11.0214  -15.8235 C   0  0  0  0  0  0  0  0  0  0  0  0
   34.3209   10.5023  -16.6664 C   0  0  0  0  0  0  0  0  0  0  0  0
   35.6678   10.8908  -16.6609 C   0  0  0  0  0  0  0  0  0  0  0  0
   36.0601   11.8423  -15.7604 C   0  0  0  0  0  0  0  0  0  0  0  0
   38.8472   10.3409  -18.0463 H   0  0  0  0  0  0  0  0  0  0  0  0
   36.5905   15.1115  -12.3325 H   0  0  0  0  0  0  0  0  0  0  0  0
   40.7259   11.7895  -18.6846 C   0  0  0  0  0  0  0  0  0  0  0  0
   40.6470   11.6513  -17.2961 O   0  0  0  0  0  0  0  0  0  0  0  0
   41.3577   13.6935  -15.5437 O   0  0  0  0  0  0  0  0  0  0  0  0
   42.2291   13.1796  -14.5632 C   0  0  0  0  0  0  0  0  0  0  0  0
 21 22  1  0  0  0
 22  1  1  0  0  0
  1  2  2  0  0  0
  2  3  1  0  0  0
  2  4  1  0  0  0
  4  5  2  0  0  0
  5  6  1  0  0  0
  6  7  2  0  0  0
  7 23  1  0  0  0
 23 24  1  0  0  0
  6  8  1  0  0  0
  8  9  1  0  0  0
  9 10  1  0  0  0
 10 11  1  0  0  0
 11 12  1  0  0  0
 12 13  1  0  0  0
 13 14  2  0  0  0
 14 15  1  0  0  0
 15 16  2  0  0  0
 16 17  1  0  0  0
 17 18  2  0  0  0
  7  1  1  0  0  0
 18 13  1  0  0  0
 18  4  1  0  0  0
 11  5  1  0  0  0
  3 19  1  0  0  0
 10 20  1  0  0  0
M  END
> <minimizedAffinity>
-8.71815

> <CNNscore>
0.7380167842

> <CNNaffinity>
6.3168792725

> <CNN_VS>
4.6619629860

> <CNNaffinity_variance>
0.2280746251

$$$$
[H]Oc1c(OC([H])([H])[H])c(OC([H])([H])[H])c2c3c1-c1c([H])c([H])c([H])c([H])c1C([H])([H])[C@@]3([H])N([H])C([H])([H])C2([H])[H]


 24 27  0  0  0  0  0  0  0  0999 V2000
   35.2913   12.0911  -15.3271 C   0  0  0  0  0  0  0  0  0  0  0  0
   36.3832   11.8523  -16.1503 C   0  0  0  0  0  0  0  0  0  0  0  0
   36.0956   11.2325  -17.3366 O   0  0  0  0  0  0  0  0  0  0  0  0
   37.6278   12.2488  -15.7159 C   0  0  0  0  0  0  0  0  0  0  0  0
   37.8102   12.8673  -14.4992 C   0  0  0  0  0  0  0  0  0  0  0  0
   36.6902   13.0891  -13.7044 C   0  0  0  0  0  0  0  0  0  0  0  0
   35.4350   12.7118  -14.0976 C   0  0  0  0  0  0  0  0  0  0  0  0
   36.8964   13.7490  -12.4035 C   0  0  0  0  0  0  0  0  0  0  0  0
   38.0064   14.7272  -12.3757 C   0  0  0  0  0  0  0  0  0  0  0  0
   39.1030   14.4797  -13.2126 N   0  0  0  0  0  0  0  0  0  0  0  0
   39.0960   13.2573  -13.9704 C   0  0  0  0  0  0  0  0  0  0  0  0
   40.2024   13.3148  -14.9433 C   0  0  0  0  0  0  0  0  0  0  0  0
   40.0274   12.5324  -16.1701 C   0  0  0  0  0  0  0  0  0  0  0  0
   41.1531   12.2942  -16.9795 C   0  0  0  0  0  0  0  0  0  0  0  0
   41.0661   11.6243  -18.1616 C   0  0  0  0  0  0  0  0  0  0  0  0
   39.8312   11.1851  -18.5401 C   0  0  0  0  0  0  0  0  0  0  0  0
   38.6699   11.3872  -17.7815 C   0  0  0  0  0  0  0  0  0  0  0  0
   38.7833   12.0621  -16.5975 C   0  0  0  0  0  0  0  0  0  0  0  0
   35.1885   10.9503  -17.6412 H   0  0  0  0  0  0  0  0  0  0  0  0
   40.0292   14.5102  -12.7021 H   0  0  0  0  0  0  0  0  0  0  0  0
   33.3809   10.5266  -15.3592 C   0  0  0  0  0  0  0  0  0  0  0  0
   34.0326   11.7029  -15.7395 O   0  0  0  0  0  0  0  0  0  0  0  0
   34.3460   12.9530  -13.2725 O   0  0  0  0  0  0  0  0  0  0  0  0
   33.5697   14.1152  -13.4496 C   0  0  0  0  0  0  0  0  0  0  0  0
 21 22  1  0  0  0
 22  1  1  0  0  0
  1  2  2  0  0  0
  2  3  1  0  0  0
  2  4  1  0  0  0
  4  5  2  0  0  0
  5  6  1  0  0  0
  6  7  2  0  0  0
  7 23  1  0  0  0
 23 24  1  0  0  0
  6  8  1  0  0  0
  8  9  1  0  0  0
  9 10  1  0  0  0
 10 11  1  0  0  0
 11 12  1  0  0  0
 12 13  1  0  0  0
 13 14  2  0  0  0
 14 15  1  0  0  0
 15 16  2  0  0  0
 16 17  1  0  0  0
 17 18  2  0  0  0
  7  1  1  0  0  0
 18 13  1  0  0  0
 18  4  1  0  0  0
 11  5  1  0  0  0
  3 19  1  0  0  0
 10 20  1  0  0  0
M  END
> <minimizedAffinity>
-9.07259

> <CNNscore>
0.6180319190

> <CNNaffinity>
6.2600989342

> <CNN_VS>
3.8689410686

> <CNNaffinity_variance>
0.1733863354

$$$$
[H]Oc1c(OC([H])([H])[H])c(OC([H])([H])[H])c2c3c1-c1c([H])c([H])c([H])c([H])c1C([H])([H])[C@@]3([H])N([H])C([H])([H])C2([H])[H]


 24 27  0  0  0  0  0  0  0  0999 V2000
   38.0613   12.6063  -14.6156 C   0  0  0  0  0  0  0  0  0  0  0  0
   38.4038   13.5723  -13.6793 C   0  0  0  0  0  0  0  0  0  0  0  0
   39.7451   13.8178  -13.5575 O   0  0  0  0  0  0  0  0  0  0  0  0
   37.3933   14.1848  -12.9732 C   0  0  0  0  0  0  0  0  0  0  0  0
   36.0691   13.8633  -13.1721 C   0  0  0  0  0  0  0  0  0  0  0  0
   35.7680   12.8907  -14.1200 C   0  0  0  0  0  0  0  0  0  0  0  0
   36.7410   12.2574  -14.8444 C   0  0  0  0  0  0  0  0  0  0  0  0
   34.3486   12.5521  -14.3234 C   0  0  0  0  0  0  0  0  0  0  0  0
   33.4096   13.6777  -14.1205 C   0  0  0  0  0  0  0  0  0  0  0  0
   33.7653   14.6499  -13.1759 N   0  0  0  0  0  0  0  0  0  0  0  0
   34.9731   14.4344  -12.4254 C   0  0  0  0  0  0  0  0  0  0  0  0
   35.2759   15.6698  -11.6796 C   0  0  0  0  0  0  0  0  0  0  0  0
   36.6880   15.9091  -11.3689 C   0  0  0  0  0  0  0  0  0  0  0  0
   37.0065   16.8848  -10.4067 C   0  0  0  0  0  0  0  0  0  0  0  0
   38.2936   17.2061  -10.1002 C   0  0  0  0  0  0  0  0  0  0  0  0
   39.2788   16.5396  -10.7681 C   0  0  0  0  0  0  0  0  0  0  0  0
   39.0313   15.5566  -11.7364 C   0  0  0  0  0  0  0  0  0  0  0  0
   37.7302   15.2509  -12.0261 C   0  0  0  0  0  0  0  0  0  0  0  0
   40.4689   13.3678  -14.0759 H   0  0  0  0  0  0  0  0  0  0  0  0
   33.0022   14.8382  -12.4676 H   0  0  0  0  0  0  0  0  0  0  0  0
   39.6023   12.4373  -16.5379 C   0  0  0  0  0  0  0  0  0  0  0  0
   39.0561   11.9772  -15.3366 O   0  0  0  0  0  0  0  0  0  0  0  0
   36.3948   11.2931  -15.7800 O   0  0  0  0  0  0  0  0  0  0  0  0
   36.0806   11.6709  -17.1003 C   0  0  0  0  0  0  0  0  0  0  0  0
 21 22  1  0  0  0
 22  1  1  0  0  0
  1  2  2  0  0  0
  2  3  1  0  0  0
  2  4  1  0  0  0
  4  5  2  0  0  0
  5  6  1  0  0  0
  6  7  2  0  0  0
  7 23  1  0  0  0
 23 24  1  0  0  0
  6  8  1  0  0  0
  8  9  1  0  0  0
  9 10  1  0  0  0
 10 11  1  0  0  0
 11 12  1  0  0  0
 12 13  1  0  0  0
 13 14  2  0  0  0
 14 15  1  0  0  0
 15 16  2  0  0  0
 16 17  1  0  0  0
 17 18  2  0  0  0
  7  1  1  0  0  0
 18 13  1  0  0  0
 18  4  1  0  0  0
 11  5  1  0  0  0
  3 19  1  0  0  0
 10 20  1  0  0  0
M  END
> <minimizedAffinity>
-7.82879

> <CNNscore>
0.5611733794

> <CNNaffinity>
5.7530503273

> <CNN_VS>
3.2284586430

> <CNNaffinity_variance>
0.1873605847

$$$$
[H]Oc1c(OC([H])([H])[H])c(OC([H])([H])[H])c2c3c1-c1c([H])c([H])c([H])c([H])c1C([H])([H])[C@@]3([H])N([H])C([H])([H])C2([H])[H]


 24 27  0  0  0  0  0  0  0  0999 V2000
   38.9350   14.1837  -14.4872 C   0  0  0  0  0  0  0  0  0  0  0  0
   37.6590   13.6585  -14.6388 C   0  0  0  0  0  0  0  0  0  0  0  0
   36.6929   14.2377  -13.8607 O   0  0  0  0  0  0  0  0  0  0  0  0
   37.4787   12.6290  -15.5346 C   0  0  0  0  0  0  0  0  0  0  0  0
   38.5223   12.1156  -16.2718 C   0  0  0  0  0  0  0  0  0  0  0  0
   39.7852   12.6703  -16.0912 C   0  0  0  0  0  0  0  0  0  0  0  0
   40.0088   13.6948  -15.2120 C   0  0  0  0  0  0  0  0  0  0  0  0
   40.8954   12.1122  -16.8827 C   0  0  0  0  0  0  0  0  0  0  0  0
   40.5104   11.6147  -18.2221 C   0  0  0  0  0  0  0  0  0  0  0  0
   39.2191   11.0894  -18.3665 N   0  0  0  0  0  0  0  0  0  0  0  0
   38.4022   11.0043  -17.1859 C   0  0  0  0  0  0  0  0  0  0  0  0
   37.0308   10.6569  -17.6015 C   0  0  0  0  0  0  0  0  0  0  0  0
   35.9525   11.1066  -16.7168 C   0  0  0  0  0  0  0  0  0  0  0  0
   34.6719   10.5484  -16.8837 C   0  0  0  0  0  0  0  0  0  0  0  0
   33.6045   10.9507  -16.1405 C   0  0  0  0  0  0  0  0  0  0  0  0
   33.8223   11.9283  -15.2142 C   0  0  0  0  0  0  0  0  0  0  0  0
   35.0716   12.5255  -14.9960 C   0  0  0  0  0  0  0  0  0  0  0  0
   36.1285   12.1038  -15.7545 C   0  0  0  0  0  0  0  0  0  0  0  0
   36.8356   14.9846  -13.2151 H   0  0  0  0  0  0  0  0  0  0  0  0
   39.2100   10.1275  -18.8071 H   0  0  0  0  0  0  0  0  0  0  0  0
   39.2919   15.0769  -12.2127 C   0  0  0  0  0  0  0  0  0  0  0  0
   39.1423   15.2165  -13.5952 O   0  0  0  0  0  0  0  0  0  0  0  0
   41.2853   14.2178  -15.0639 O   0  0  0  0  0  0  0  0  0  0  0  0
   42.1675   13.6682  -14.1128 C   0  0  0  0  0  0  0  0  0  0  0  0
 21 22  1  0  0  0
 22  1  1  0  0  0
  1  2  2  0  0  0
  2  3  1  0  0  0
  2  4  1  0  0  0
  4  5  2  0  0  0
  5  6  1  0  0  0
  6  7  2  0  0  0
  7 23  1  0  0  0
 23 24  1  0  0  0
  6  8  1  0  0  0
  8  9  1  0  0  0
  9 10  1  0  0  0
 10 11  1  0  0  0
 11 12  1  0  0  0
 12 13  1  0  0  0
 13 14  2  0  0  0
 14 15  1  0  0  0
 15 16  2  0  0  0
 16 17  1  0  0  0
 17 18  2  0  0  0
  7  1  1  0  0  0
 18 13  1  0  0  0
 18  4  1  0  0  0
 11  5  1  0  0  0
  3 19  1  0  0  0
 10 20  1  0  0  0
M  END
> <minimizedAffinity>
-9.27937

> <CNNscore>
0.5605046153

> <CNNaffinity>
6.3912172318

> <CNN_VS>
3.5823068619

> <CNNaffinity_variance>
0.1565819085

$$$$
[H]Oc1c(OC([H])([H])[H])c(OC([H])([H])[H])c2c3c1-c1c([H])c([H])c([H])c([H])c1C([H])([H])[C@@]3([H])N([H])C([H])([H])C2([H])[H]


 24 27  0  0  0  0  0  0  0  0999 V2000
   40.0710   14.7180  -13.7131 C   0  0  0  0  0  0  0  0  0  0  0  0
   39.8064   13.7893  -14.7103 C   0  0  0  0  0  0  0  0  0  0  0  0
   40.8994   13.3620  -15.4153 O   0  0  0  0  0  0  0  0  0  0  0  0
   38.5035   13.3876  -14.8995 C   0  0  0  0  0  0  0  0  0  0  0  0
   37.4718   13.8812  -14.1326 C   0  0  0  0  0  0  0  0  0  0  0  0
   37.7792   14.8095  -13.1432 C   0  0  0  0  0  0  0  0  0  0  0  0
   39.0603   15.2357  -12.9207 C   0  0  0  0  0  0  0  0  0  0  0  0
   36.6680   15.3334  -12.3299 C   0  0  0  0  0  0  0  0  0  0  0  0
   35.5631   14.3756  -12.1029 C   0  0  0  0  0  0  0  0  0  0  0  0
   35.3055   13.4395  -13.1136 N   0  0  0  0  0  0  0  0  0  0  0  0
   36.0824   13.5358  -14.3201 C   0  0  0  0  0  0  0  0  0  0  0  0
   35.8212   12.3321  -15.1307 C   0  0  0  0  0  0  0  0  0  0  0  0
   36.8954   11.9157  -16.0364 C   0  0  0  0  0  0  0  0  0  0  0  0
   36.5967   10.9829  -17.0464 C   0  0  0  0  0  0  0  0  0  0  0  0
   37.5487   10.5033  -17.8933 C   0  0  0  0  0  0  0  0  0  0  0  0
   38.8215   10.9651  -17.7268 C   0  0  0  0  0  0  0  0  0  0  0  0
   39.1870   11.8941  -16.7428 C   0  0  0  0  0  0  0  0  0  0  0  0
   38.2127   12.3618  -15.9048 C   0  0  0  0  0  0  0  0  0  0  0  0
   41.8400   13.6600  -15.2683 H   0  0  0  0  0  0  0  0  0  0  0  0
   34.2905   13.4204  -13.4117 H   0  0  0  0  0  0  0  0  0  0  0  0
   42.3119   14.4886  -12.7009 C   0  0  0  0  0  0  0  0  0  0  0  0
   41.3693   15.1372  -13.5033 O   0  0  0  0  0  0  0  0  0  0  0  0
   39.3211   16.1634  -11.9225 O   0  0  0  0  0  0  0  0  0  0  0  0
   39.5225   15.7350  -10.5956 C   0  0  0  0  0  0  0  0  0  0  0  0
 21 22  1  0  0  0
 22  1  1  0  0  0
  1  2  2  0  0  0
  2  3  1  0  0  0
  2  4  1  0  0  0
  4  5  2  0  0  0
  5  6  1  0  0  0
  6  7  2  0  0  0
  7 23  1  0  0  0
 23 24  1  0  0  0
  6  8  1  0  0  0
  8  9  1  0  0  0
  9 10  1  0  0  0
 10 11  1  0  0  0
 11 12  1  0  0  0
 12 13  1  0  0  0
 13 14  2  0  0  0
 14 15  1  0  0  0
 15 16  2  0  0  0
 16 17  1  0  0  0
 17 18  2  0  0  0
  7  1  1  0  0  0
 18 13  1  0  0  0
 18  4  1  0  0  0
 11  5  1  0  0  0
  3 19  1  0  0  0
 10 20  1  0  0  0
M  END
> <minimizedAffinity>
-8.72155

> <CNNscore>
0.5360745788

> <CNNaffinity>
5.8975191116

> <CNN_VS>
3.1615099907

> <CNNaffinity_variance>
0.1264524162

$$$$
[H]Oc1c(OC([H])([H])[H])c(OC([H])([H])[H])c2c3c1-c1c([H])c([H])c([H])c([H])c1C([H])([H])[C@@]3([H])N([H])C([H])([H])C2([H])[H]


 24 27  0  0  0  0  0  0  0  0999 V2000
   38.3419   12.0755  -16.1694 C   0  0  0  0  0  0  0  0  0  0  0  0
   37.9825   12.9574  -15.1595 C   0  0  0  0  0  0  0  0  0  0  0  0
   38.9949   13.7493  -14.6882 O   0  0  0  0  0  0  0  0  0  0  0  0
   36.6746   12.9611  -14.7303 C   0  0  0  0  0  0  0  0  0  0  0  0
   35.7291   12.1197  -15.2728 C   0  0  0  0  0  0  0  0  0  0  0  0
   36.1296   11.2516  -16.2834 C   0  0  0  0  0  0  0  0  0  0  0  0
   37.4189   11.2155  -16.7404 C   0  0  0  0  0  0  0  0  0  0  0  0
   35.1111   10.3537  -16.8553 C   0  0  0  0  0  0  0  0  0  0  0  0
   33.7411   10.9123  -16.8844 C   0  0  0  0  0  0  0  0  0  0  0  0
   33.3883   11.8044  -15.8628 N   0  0  0  0  0  0  0  0  0  0  0  0
   34.3577   12.0435  -14.8275 C   0  0  0  0  0  0  0  0  0  0  0  0
   33.8828   13.1729  -14.0070 C   0  0  0  0  0  0  0  0  0  0  0  0
   34.9167   13.9649  -13.3350 C   0  0  0  0  0  0  0  0  0  0  0  0
   34.5265   14.8414  -12.3061 C   0  0  0  0  0  0  0  0  0  0  0  0
   35.4162   15.6518  -11.6694 C   0  0  0  0  0  0  0  0  0  0  0  0
   36.7187   15.5839  -12.0692 C   0  0  0  0  0  0  0  0  0  0  0  0
   37.1746   14.7330  -13.0857 C   0  0  0  0  0  0  0  0  0  0  0  0
   36.2620   13.9280  -13.7095 C   0  0  0  0  0  0  0  0  0  0  0  0
   39.9398   13.7383  -15.0080 H   0  0  0  0  0  0  0  0  0  0  0  0
   32.4877   11.5401  -15.3745 H   0  0  0  0  0  0  0  0  0  0  0  0
   40.1921   12.9122  -17.5748 C   0  0  0  0  0  0  0  0  0  0  0  0
   39.6472   12.0521  -16.6174 O   0  0  0  0  0  0  0  0  0  0  0  0
   37.7741   10.3332  -17.7506 O   0  0  0  0  0  0  0  0  0  0  0  0
   37.7603   10.7560  -19.0944 C   0  0  0  0  0  0  0  0  0  0  0  0
 21 22  1  0  0  0
 22  1  1  0  0  0
  1  2  2  0  0  0
  2  3  1  0  0  0
  2  4  1  0  0  0
  4  5  2  0  0  0
  5  6  1  0  0  0
  6  7  2  0  0  0
  7 23  1  0  0  0
 23 24  1  0  0  0
  6  8  1  0  0  0
  8  9  1  0  0  0
  9 10  1  0  0  0
 10 11  1  0  0  0
 11 12  1  0  0  0
 12 13  1  0  0  0
 13 14  2  0  0  0
 14 15  1  0  0  0
 15 16  2  0  0  0
 16 17  1  0  0  0
 17 18  2  0  0  0
  7  1  1  0  0  0
 18 13  1  0  0  0
 18  4  1  0  0  0
 11  5  1  0  0  0
  3 19  1  0  0  0
 10 20  1  0  0  0
M  END
> <minimizedAffinity>
-8.35856

> <CNNscore>
0.5245885849

> <CNNaffinity>
6.1161108017

> <CNN_VS>
3.2084419727

> <CNNaffinity_variance>
0.1113450527

$$$$
[H]Oc1c(OC([H])([H])[H])c(OC([H])([H])[H])c2c3c1-c1c([H])c([H])c([H])c([H])c1C([H])([H])[C@@]3([H])N([H])C([H])([H])C2([H])[H]


 24 27  0  0  0  0  0  0  0  0999 V2000
   40.0551   13.7996  -15.0815 C   0  0  0  0  0  0  0  0  0  0  0  0
   38.7244   13.5077  -14.8153 C   0  0  0  0  0  0  0  0  0  0  0  0
   38.1761   14.1901  -13.7626 O   0  0  0  0  0  0  0  0  0  0  0  0
   38.0867   12.5830  -15.6110 C   0  0  0  0  0  0  0  0  0  0  0  0
   38.7319   11.9496  -16.6496 C   0  0  0  0  0  0  0  0  0  0  0  0
   40.0650   12.2708  -16.8839 C   0  0  0  0  0  0  0  0  0  0  0  0
   40.7368   13.1844  -16.1179 C   0  0  0  0  0  0  0  0  0  0  0  0
   40.7469   11.5858  -17.9957 C   0  0  0  0  0  0  0  0  0  0  0  0
   39.8738   11.2474  -19.1416 C   0  0  0  0  0  0  0  0  0  0  0  0
   38.5311   10.9575  -18.8637 N   0  0  0  0  0  0  0  0  0  0  0  0
   38.1298   10.9355  -17.4827 C   0  0  0  0  0  0  0  0  0  0  0  0
   36.6585   10.8516  -17.4343 C   0  0  0  0  0  0  0  0  0  0  0  0
   36.0163   11.4187  -16.2453 C   0  0  0  0  0  0  0  0  0  0  0  0
   34.6705   11.0962  -15.9923 C   0  0  0  0  0  0  0  0  0  0  0  0
   33.9849   11.6239  -14.9410 C   0  0  0  0  0  0  0  0  0  0  0  0
   34.6578   12.4892  -14.1289 C   0  0  0  0  0  0  0  0  0  0  0  0
   35.9978   12.8522  -14.3230 C   0  0  0  0  0  0  0  0  0  0  0  0
   36.6652   12.3080  -15.3854 C   0  0  0  0  0  0  0  0  0  0  0  0
   38.6484   14.8592  -13.1932 H   0  0  0  0  0  0  0  0  0  0  0  0
   38.2095   10.0412  -19.2836 H   0  0  0  0  0  0  0  0  0  0  0  0
   41.5112   14.4245  -13.1873 C   0  0  0  0  0  0  0  0  0  0  0  0
   40.7172   14.7231  -14.2979 O   0  0  0  0  0  0  0  0  0  0  0  0
   42.0665   13.4742  -16.3876 O   0  0  0  0  0  0  0  0  0  0  0  0
   43.0886   12.6735  -15.8408 C   0  0  0  0  0  0  0  0  0  0  0  0
 21 22  1  0  0  0
 22  1  1  0  0  0
  1  2  2  0  0  0
  2  3  1  0  0  0
  2  4  1  0  0  0
  4  5  2  0  0  0
  5  6  1  0  0  0
  6  7  2  0  0  0
  7 23  1  0  0  0
 23 24  1  0  0  0
  6  8  1  0  0  0
  8  9  1  0  0  0
  9 10  1  0  0  0
 10 11  1  0  0  0
 11 12  1  0  0  0
 12 13  1  0  0  0
 13 14  2  0  0  0
 14 15  1  0  0  0
 15 16  2  0  0  0
 16 17  1  0  0  0
 17 18  2  0  0  0
  7  1  1  0  0  0
 18 13  1  0  0  0
 18  4  1  0  0  0
 11  5  1  0  0  0
  3 19  1  0  0  0
 10 20  1  0  0  0
M  END
> <minimizedAffinity>
-9.03195

> <CNNscore>
0.5101991892

> <CNNaffinity>
6.3616380692

> <CNN_VS>
3.2457025051

> <CNNaffinity_variance>
0.0787710249

$$$$
[H]c1c([H])c([H])c(N([H])[C@@]2([H])c3c([H])c(-c4c([H])c([H])c(C(F)(F)F)c([H])c4[H])c([H])c([H])c3N(C(=O)C([H])([H])[H])[C@@]([H])(C([H])([H])[H])C2([H])[H])c([H])c1[H]


 32 35  0  0  0  0  0  0  0  0999 V2000
   34.3976    8.4454  -18.6978 C   0  0  0  0  0  0  0  0  0  0  0  0
   33.6859    8.7473  -17.4491 C   0  0  0  0  0  0  0  0  0  0  0  0
   32.5543    8.1793  -17.2733 O   0  0  0  0  0  0  0  0  0  0  0  0
   34.1800    9.6225  -16.4609 N   0  0  0  0  0  0  0  0  0  0  0  0
   35.4875   10.1456  -16.3635 C   0  0  0  0  0  0  0  0  0  0  0  0
   36.5571    9.3931  -16.8357 C   0  0  0  0  0  0  0  0  0  0  0  0
   37.8074    9.9622  -16.7940 C   0  0  0  0  0  0  0  0  0  0  0  0
   38.0756   11.2298  -16.3140 C   0  0  0  0  0  0  0  0  0  0  0  0
   36.9995   11.9455  -15.8473 C   0  0  0  0  0  0  0  0  0  0  0  0
   35.7081   11.4084  -15.8701 C   0  0  0  0  0  0  0  0  0  0  0  0
   34.6526   12.2433  -15.2825 C   0  0  0  0  0  0  0  0  0  0  0  0
   33.2823   11.6372  -15.4089 C   0  0  0  0  0  0  0  0  0  0  0  0
   33.2541   10.1461  -15.4362 C   0  0  0  0  0  0  0  0  0  0  0  0
   33.4310    9.4292  -14.1505 C   0  0  0  0  0  0  0  0  0  0  0  0
   39.4222   11.8112  -16.3223 C   0  0  0  0  0  0  0  0  0  0  0  0
   40.5271   11.0076  -16.5699 C   0  0  0  0  0  0  0  0  0  0  0  0
   41.8111   11.4995  -16.6435 C   0  0  0  0  0  0  0  0  0  0  0  0
   42.0080   12.8607  -16.4573 C   0  0  0  0  0  0  0  0  0  0  0  0
   40.9355   13.6886  -16.2065 C   0  0  0  0  0  0  0  0  0  0  0  0
   39.6489   13.1496  -16.1412 C   0  0  0  0  0  0  0  0  0  0  0  0
   43.4197   13.3789  -16.5542 C   0  0  0  0  0  0  0  0  0  0  0  0
   43.7704   14.0219  -15.3787 F   0  0  0  0  0  0  0  0  0  0  0  0
   43.5818   14.2572  -17.5827 F   0  0  0  0  0  0  0  0  0  0  0  0
   44.2513   12.2652  -16.6347 F   0  0  0  0  0  0  0  0  0  0  0  0
   34.9747   12.4200  -13.8516 N   0  0  0  0  0  0  0  0  0  0  0  0
   35.4730   11.6290  -13.3873 H   0  0  0  0  0  0  0  0  0  0  0  0
   34.6092   13.6104  -13.1620 C   0  0  0  0  0  0  0  0  0  0  0  0
   35.5615   14.5823  -12.8992 C   0  0  0  0  0  0  0  0  0  0  0  0
   35.1572   15.7426  -12.2850 C   0  0  0  0  0  0  0  0  0  0  0  0
   33.8624   16.0006  -11.9112 C   0  0  0  0  0  0  0  0  0  0  0  0
   32.8968   15.0355  -12.1663 C   0  0  0  0  0  0  0  0  0  0  0  0
   33.2879   13.8674  -12.7830 C   0  0  0  0  0  0  0  0  0  0  0  0
  1  2  1  0  0  0
  2  3  2  0  0  0
  2  4  1  0  0  0
  4  5  1  0  0  0
  5  6  2  0  0  0
  6  7  1  0  0  0
  7  8  2  0  0  0
  8 15  1  0  0  0
 15 16  2  0  0  0
 16 17  1  0  0  0
 17 18  2  0  0  0
 18 21  1  0  0  0
 21 22  1  0  0  0
 21 23  1  0  0  0
 21 24  1  0  0  0
 18 19  1  0  0  0
 19 20  2  0  0  0
  8  9  1  0  0  0
  9 10  2  0  0  0
 10 11  1  0  0  0
 11 25  1  0  0  0
 25 27  1  0  0  0
 27 28  2  0  0  0
 28 29  1  0  0  0
 29 30  2  0  0  0
 30 31  1  0  0  0
 31 32  2  0  0  0
 11 12  1  0  0  0
 12 13  1  0  0  0
 13 14  1  0  0  0
 13  4  1  0  0  0
 10  5  1  0  0  0
 32 27  1  0  0  0
 20 15  1  0  0  0
 25 26  1  0  0  0
M  END
> <minimizedAffinity>
11.55184

> <CNNscore>
0.4852222204

> <CNNaffinity>
6.8753561974

> <CNN_VS>
3.3360755444

> <CNNaffinity_variance>
1.5559043884

$$$$
[H]c1c([H])c([H])c(N([H])[C@@]2([H])c3c([H])c(-c4c([H])c([H])c(C(F)(F)F)c([H])c4[H])c([H])c([H])c3N(C(=O)C([H])([H])[H])[C@@]([H])(C([H])([H])[H])C2([H])[H])c([H])c1[H]


 32 35  0  0  0  0  0  0  0  0999 V2000
   36.2264   14.5421  -10.8069 C   0  0  0  0  0  0  0  0  0  0  0  0
   35.7769   15.7391  -10.0845 C   0  0  0  0  0  0  0  0  0  0  0  0
   34.7046   16.2989  -10.4980 O   0  0  0  0  0  0  0  0  0  0  0  0
   36.4640   16.2912   -8.9847 N   0  0  0  0  0  0  0  0  0  0  0  0
   37.5087   15.6942   -8.2464 C   0  0  0  0  0  0  0  0  0  0  0  0
   37.5435   14.3104   -8.1160 C   0  0  0  0  0  0  0  0  0  0  0  0
   38.6137   13.7569   -7.4549 C   0  0  0  0  0  0  0  0  0  0  0  0
   39.6568   14.4804   -6.9093 C   0  0  0  0  0  0  0  0  0  0  0  0
   39.5899   15.8459   -7.0475 C   0  0  0  0  0  0  0  0  0  0  0  0
   38.5207   16.4545   -7.7130 C   0  0  0  0  0  0  0  0  0  0  0  0
   38.5283   17.9228   -7.7368 C   0  0  0  0  0  0  0  0  0  0  0  0
   37.3927   18.5057   -8.5313 C   0  0  0  0  0  0  0  0  0  0  0  0
   36.1554   17.6731   -8.5641 C   0  0  0  0  0  0  0  0  0  0  0  0
   35.2894   17.6768   -7.3608 C   0  0  0  0  0  0  0  0  0  0  0  0
   40.7984   13.8445   -6.2430 C   0  0  0  0  0  0  0  0  0  0  0  0
   40.6884   12.5486   -5.7567 C   0  0  0  0  0  0  0  0  0  0  0  0
   41.7368   11.8764   -5.1692 C   0  0  0  0  0  0  0  0  0  0  0  0
   42.9572   12.5275   -5.0553 C   0  0  0  0  0  0  0  0  0  0  0  0
   43.1027   13.8150   -5.5239 C   0  0  0  0  0  0  0  0  0  0  0  0
   42.0145   14.4608   -6.1146 C   0  0  0  0  0  0  0  0  0  0  0  0
   44.0937   11.7686   -4.4202 C   0  0  0  0  0  0  0  0  0  0  0  0
   44.7720   11.0382   -5.3818 F   0  0  0  0  0  0  0  0  0  0  0  0
   43.6684   10.9069   -3.4548 F   0  0  0  0  0  0  0  0  0  0  0  0
   45.0025   12.7178   -3.9603 F   0  0  0  0  0  0  0  0  0  0  0  0
   38.4303   18.3874   -6.3379 N   0  0  0  0  0  0  0  0  0  0  0  0
   37.6348   19.0255   -6.1157 H   0  0  0  0  0  0  0  0  0  0  0  0
   39.3849   17.9793   -5.3639 C   0  0  0  0  0  0  0  0  0  0  0  0
   40.6580   18.5267   -5.3658 C   0  0  0  0  0  0  0  0  0  0  0  0
   41.5308   18.1515   -4.3736 C   0  0  0  0  0  0  0  0  0  0  0  0
   41.2204   17.2619   -3.3761 C   0  0  0  0  0  0  0  0  0  0  0  0
   39.9489   16.7034   -3.3617 C   0  0  0  0  0  0  0  0  0  0  0  0
   39.0627   17.0717   -4.3501 C   0  0  0  0  0  0  0  0  0  0  0  0
  1  2  1  0  0  0
  2  3  2  0  0  0
  2  4  1  0  0  0
  4  5  1  0  0  0
  5  6  2  0  0  0
  6  7  1  0  0  0
  7  8  2  0  0  0
  8 15  1  0  0  0
 15 16  2  0  0  0
 16 17  1  0  0  0
 17 18  2  0  0  0
 18 21  1  0  0  0
 21 22  1  0  0  0
 21 23  1  0  0  0
 21 24  1  0  0  0
 18 19  1  0  0  0
 19 20  2  0  0  0
  8  9  1  0  0  0
  9 10  2  0  0  0
 10 11  1  0  0  0
 11 25  1  0  0  0
 25 27  1  0  0  0
 27 28  2  0  0  0
 28 29  1  0  0  0
 29 30  2  0  0  0
 30 31  1  0  0  0
 31 32  2  0  0  0
 11 12  1  0  0  0
 12 13  1  0  0  0
 13 14  1  0  0  0
 13  4  1  0  0  0
 10  5  1  0  0  0
 32 27  1  0  0  0
 20 15  1  0  0  0
 25 26  1  0  0  0
M  END
> <minimizedAffinity>
-5.12259

> <CNNscore>
0.4029595256

> <CNNaffinity>
5.4854207039

> <CNN_VS>
2.2104024887

> <CNNaffinity_variance>
0.4799796939

$$$$
[H]c1c([H])c([H])c(N([H])[C@@]2([H])c3c([H])c(-c4c([H])c([H])c(C(F)(F)F)c([H])c4[H])c([H])c([H])c3N(C(=O)C([H])([H])[H])[C@@]([H])(C([H])([H])[H])C2([H])[H])c([H])c1[H]


 32 35  0  0  0  0  0  0  0  0999 V2000
   36.3118   11.2913  -18.0145 C   0  0  0  0  0  0  0  0  0  0  0  0
   35.2578   11.2846  -16.9918 C   0  0  0  0  0  0  0  0  0  0  0  0
   34.1940   10.6277  -17.2581 O   0  0  0  0  0  0  0  0  0  0  0  0
   35.3609   11.9619  -15.7600 N   0  0  0  0  0  0  0  0  0  0  0  0
   36.5236   12.5283  -15.1944 C   0  0  0  0  0  0  0  0  0  0  0  0
   37.7602   11.9541  -15.4665 C   0  0  0  0  0  0  0  0  0  0  0  0
   38.8783   12.5736  -14.9615 C   0  0  0  0  0  0  0  0  0  0  0  0
   38.8585   13.7268  -14.2005 C   0  0  0  0  0  0  0  0  0  0  0  0
   37.6213   14.2658  -13.9421 C   0  0  0  0  0  0  0  0  0  0  0  0
   36.4553   13.6712  -14.4355 C   0  0  0  0  0  0  0  0  0  0  0  0
   35.1912   14.3026  -14.0358 C   0  0  0  0  0  0  0  0  0  0  0  0
   33.9859   13.6577  -14.6620 C   0  0  0  0  0  0  0  0  0  0  0  0
   34.1375   12.2059  -14.9691 C   0  0  0  0  0  0  0  0  0  0  0  0
   34.0394   11.2484  -13.8414 C   0  0  0  0  0  0  0  0  0  0  0  0
   40.0806   14.3743  -13.7122 C   0  0  0  0  0  0  0  0  0  0  0  0
   39.9980   15.5037  -12.9087 C   0  0  0  0  0  0  0  0  0  0  0  0
   41.1037   16.1272  -12.3750 C   0  0  0  0  0  0  0  0  0  0  0  0
   42.3575   15.6035  -12.6581 C   0  0  0  0  0  0  0  0  0  0  0  0
   42.4784   14.4855  -13.4543 C   0  0  0  0  0  0  0  0  0  0  0  0
   41.3314   13.8823  -13.9747 C   0  0  0  0  0  0  0  0  0  0  0  0
   43.5524   16.2945  -12.0537 C   0  0  0  0  0  0  0  0  0  0  0  0
   44.6847   15.5139  -12.2178 F   0  0  0  0  0  0  0  0  0  0  0  0
   43.3944   16.5380  -10.7228 F   0  0  0  0  0  0  0  0  0  0  0  0
   43.7762   17.4427  -12.8086 F   0  0  0  0  0  0  0  0  0  0  0  0
   35.0898   14.1957  -12.5659 N   0  0  0  0  0  0  0  0  0  0  0  0
   34.3736   13.5318  -12.1974 H   0  0  0  0  0  0  0  0  0  0  0  0
   35.9293   14.9713  -11.7173 C   0  0  0  0  0  0  0  0  0  0  0  0
   35.8860   16.3553  -11.7726 C   0  0  0  0  0  0  0  0  0  0  0  0
   36.6675   17.0680  -10.8961 C   0  0  0  0  0  0  0  0  0  0  0  0
   37.4949   16.4924   -9.9651 C   0  0  0  0  0  0  0  0  0  0  0  0
   37.5506   15.1063   -9.8985 C   0  0  0  0  0  0  0  0  0  0  0  0
   36.7710   14.3788  -10.7708 C   0  0  0  0  0  0  0  0  0  0  0  0
  1  2  1  0  0  0
  2  3  2  0  0  0
  2  4  1  0  0  0
  4  5  1  0  0  0
  5  6  2  0  0  0
  6  7  1  0  0  0
  7  8  2  0  0  0
  8 15  1  0  0  0
 15 16  2  0  0  0
 16 17  1  0  0  0
 17 18  2  0  0  0
 18 21  1  0  0  0
 21 22  1  0  0  0
 21 23  1  0  0  0
 21 24  1  0  0  0
 18 19  1  0  0  0
 19 20  2  0  0  0
  8  9  1  0  0  0
  9 10  2  0  0  0
 10 11  1  0  0  0
 11 25  1  0  0  0
 25 27  1  0  0  0
 27 28  2  0  0  0
 28 29  1  0  0  0
 29 30  2  0  0  0
 30 31  1  0  0  0
 31 32  2  0  0  0
 11 12  1  0  0  0
 12 13  1  0  0  0
 13 14  1  0  0  0
 13  4  1  0  0  0
 10  5  1  0  0  0
 32 27  1  0  0  0
 20 15  1  0  0  0
 25 26  1  0  0  0
M  END
> <minimizedAffinity>
-8.35582

> <CNNscore>
0.2869952917

> <CNNaffinity>
6.5869765282

> <CNN_VS>
1.8904312849

> <CNNaffinity_variance>
0.1879943162

$$$$
[H]c1c([H])c([H])c(N([H])[C@@]2([H])c3c([H])c(-c4c([H])c([H])c(C(F)(F)F)c([H])c4[H])c([H])c([H])c3N(C(=O)C([H])([H])[H])[C@@]([H])(C([H])([H])[H])C2([H])[H])c([H])c1[H]


 32 35  0  0  0  0  0  0  0  0999 V2000
   36.4877   11.2617  -17.9501 C   0  0  0  0  0  0  0  0  0  0  0  0
   35.4215   11.2731  -16.9403 C   0  0  0  0  0  0  0  0  0  0  0  0
   34.3583   10.6168  -17.2105 O   0  0  0  0  0  0  0  0  0  0  0  0
   35.5125   11.9669  -15.7168 N   0  0  0  0  0  0  0  0  0  0  0  0
   36.6707   12.5364  -15.1449 C   0  0  0  0  0  0  0  0  0  0  0  0
   37.9081   11.9536  -15.3942 C   0  0  0  0  0  0  0  0  0  0  0  0
   39.0225   12.5756  -14.8842 C   0  0  0  0  0  0  0  0  0  0  0  0
   38.9983   13.7392  -14.1393 C   0  0  0  0  0  0  0  0  0  0  0  0
   37.7603   14.2866  -13.9033 C   0  0  0  0  0  0  0  0  0  0  0  0
   36.5979   13.6898  -14.4026 C   0  0  0  0  0  0  0  0  0  0  0  0
   35.3316   14.3316  -14.0268 C   0  0  0  0  0  0  0  0  0  0  0  0
   34.1314   13.6829  -14.6587 C   0  0  0  0  0  0  0  0  0  0  0  0
   34.2807   12.2265  -14.9441 C   0  0  0  0  0  0  0  0  0  0  0  0
   34.1651   11.2849  -13.8047 C   0  0  0  0  0  0  0  0  0  0  0  0
   40.2171   14.3885  -13.6452 C   0  0  0  0  0  0  0  0  0  0  0  0
   41.4618   13.8412  -13.9264 C   0  0  0  0  0  0  0  0  0  0  0  0
   42.6449   14.4288  -13.5375 C   0  0  0  0  0  0  0  0  0  0  0  0
   42.5880   15.6206  -12.8286 C   0  0  0  0  0  0  0  0  0  0  0  0
   41.3705   16.1917  -12.5287 C   0  0  0  0  0  0  0  0  0  0  0  0
   40.1938   15.5640  -12.9429 C   0  0  0  0  0  0  0  0  0  0  0  0
   43.8950   16.2521  -12.4239 C   0  0  0  0  0  0  0  0  0  0  0  0
   43.8891   16.5254  -11.0661 F   0  0  0  0  0  0  0  0  0  0  0  0
   44.1387   17.4153  -13.0896 F   0  0  0  0  0  0  0  0  0  0  0  0
   44.8811   15.2865  -12.6075 F   0  0  0  0  0  0  0  0  0  0  0  0
   35.2121   14.2452  -12.5569 N   0  0  0  0  0  0  0  0  0  0  0  0
   36.0176   13.8161  -12.0505 H   0  0  0  0  0  0  0  0  0  0  0  0
   34.0488   14.7218  -11.8892 C   0  0  0  0  0  0  0  0  0  0  0  0
   34.1709   15.5105  -10.7563 C   0  0  0  0  0  0  0  0  0  0  0  0
   33.0263   16.0000  -10.1758 C   0  0  0  0  0  0  0  0  0  0  0  0
   31.7618   15.7541  -10.6485 C   0  0  0  0  0  0  0  0  0  0  0  0
   31.6229   14.9639  -11.7822 C   0  0  0  0  0  0  0  0  0  0  0  0
   32.7626   14.4673  -12.3756 C   0  0  0  0  0  0  0  0  0  0  0  0
  1  2  1  0  0  0
  2  3  2  0  0  0
  2  4  1  0  0  0
  4  5  1  0  0  0
  5  6  2  0  0  0
  6  7  1  0  0  0
  7  8  2  0  0  0
  8 15  1  0  0  0
 15 16  2  0  0  0
 16 17  1  0  0  0
 17 18  2  0  0  0
 18 21  1  0  0  0
 21 22  1  0  0  0
 21 23  1  0  0  0
 21 24  1  0  0  0
 18 19  1  0  0  0
 19 20  2  0  0  0
  8  9  1  0  0  0
  9 10  2  0  0  0
 10 11  1  0  0  0
 11 25  1  0  0  0
 25 27  1  0  0  0
 27 28  2  0  0  0
 28 29  1  0  0  0
 29 30  2  0  0  0
 30 31  1  0  0  0
 31 32  2  0  0  0
 11 12  1  0  0  0
 12 13  1  0  0  0
 13 14  1  0  0  0
 13  4  1  0  0  0
 10  5  1  0  0  0
 32 27  1  0  0  0
 20 15  1  0  0  0
 25 26  1  0  0  0
M  END
> <minimizedAffinity>
-7.97272

> <CNNscore>
0.2679866552

> <CNNaffinity>
6.5541563034

> <CNN_VS>
1.7564264536

> <CNNaffinity_variance>
0.1693897545

$$$$
[H]c1c([H])c([H])c(N([H])[C@@]2([H])c3c([H])c(-c4c([H])c([H])c(C(F)(F)F)c([H])c4[H])c([H])c([H])c3N(C(=O)C([H])([H])[H])[C@@]([H])(C([H])([H])[H])C2([H])[H])c([H])c1[H]


 32 35  0  0  0  0  0  0  0  0999 V2000
   35.9119   11.5338  -17.5748 C   0  0  0  0  0  0  0  0  0  0  0  0
   35.3900   11.8163  -16.2314 C   0  0  0  0  0  0  0  0  0  0  0  0
   34.1553   11.5598  -16.0220 O   0  0  0  0  0  0  0  0  0  0  0  0
   36.1702   12.3536  -15.1878 N   0  0  0  0  0  0  0  0  0  0  0  0
   37.5761   12.4759  -15.1518 C   0  0  0  0  0  0  0  0  0  0  0  0
   38.3564   11.5442  -15.8273 C   0  0  0  0  0  0  0  0  0  0  0  0
   39.7175   11.7346  -15.8343 C   0  0  0  0  0  0  0  0  0  0  0  0
   40.3645   12.7870  -15.2151 C   0  0  0  0  0  0  0  0  0  0  0  0
   39.5671   13.6863  -14.5493 C   0  0  0  0  0  0  0  0  0  0  0  0
   38.1770   13.5344  -14.5153 C   0  0  0  0  0  0  0  0  0  0  0  0
   37.4403   14.5220  -13.7162 C   0  0  0  0  0  0  0  0  0  0  0  0
   35.9490   14.3428  -13.7858 C   0  0  0  0  0  0  0  0  0  0  0  0
   35.4938   12.9407  -14.0133 C   0  0  0  0  0  0  0  0  0  0  0  0
   35.5323   12.0075  -12.8619 C   0  0  0  0  0  0  0  0  0  0  0  0
   41.8183   12.9706  -15.2793 C   0  0  0  0  0  0  0  0  0  0  0  0
   42.4932   13.5658  -14.2218 C   0  0  0  0  0  0  0  0  0  0  0  0
   43.8614   13.7198  -14.1967 C   0  0  0  0  0  0  0  0  0  0  0  0
   44.5970   13.2621  -15.2810 C   0  0  0  0  0  0  0  0  0  0  0  0
   43.9610   12.6688  -16.3497 C   0  0  0  0  0  0  0  0  0  0  0  0
   42.5714   12.5307  -16.3350 C   0  0  0  0  0  0  0  0  0  0  0  0
   46.0935   13.4299  -15.2267 C   0  0  0  0  0  0  0  0  0  0  0  0
   46.6356   12.5537  -14.3012 F   0  0  0  0  0  0  0  0  0  0  0  0
   46.4628   14.6945  -14.8804 F   0  0  0  0  0  0  0  0  0  0  0  0
   46.5881   13.0226  -16.4628 F   0  0  0  0  0  0  0  0  0  0  0  0
   37.8818   14.3733  -12.3143 N   0  0  0  0  0  0  0  0  0  0  0  0
   38.0654   13.3995  -11.9866 H   0  0  0  0  0  0  0  0  0  0  0  0
   38.0351   15.5107  -11.4721 C   0  0  0  0  0  0  0  0  0  0  0  0
   36.9196   16.2018  -11.0267 C   0  0  0  0  0  0  0  0  0  0  0  0
   37.1061   17.2572  -10.1675 C   0  0  0  0  0  0  0  0  0  0  0  0
   38.3349   17.6742   -9.7215 C   0  0  0  0  0  0  0  0  0  0  0  0
   39.4627   16.9926  -10.1603 C   0  0  0  0  0  0  0  0  0  0  0  0
   39.2903   15.9311  -11.0213 C   0  0  0  0  0  0  0  0  0  0  0  0
  1  2  1  0  0  0
  2  3  2  0  0  0
  2  4  1  0  0  0
  4  5  1  0  0  0
  5  6  2  0  0  0
  6  7  1  0  0  0
  7  8  2  0  0  0
  8 15  1  0  0  0
 15 16  2  0  0  0
 16 17  1  0  0  0
 17 18  2  0  0  0
 18 21  1  0  0  0
 21 22  1  0  0  0
 21 23  1  0  0  0
 21 24  1  0  0  0
 18 19  1  0  0  0
 19 20  2  0  0  0
  8  9  1  0  0  0
  9 10  2  0  0  0
 10 11  1  0  0  0
 11 25  1  0  0  0
 25 27  1  0  0  0
 27 28  2  0  0  0
 28 29  1  0  0  0
 29 30  2  0  0  0
 30 31  1  0  0  0
 31 32  2  0  0  0
 11 12  1  0  0  0
 12 13  1  0  0  0
 13 14  1  0  0  0
 13  4  1  0  0  0
 10  5  1  0  0  0
 32 27  1  0  0  0
 20 15  1  0  0  0
 25 26  1  0  0  0
M  END
> <minimizedAffinity>
-9.54056

> <CNNscore>
0.1802088171

> <CNNaffinity>
6.2303628922

> <CNN_VS>
1.1227663755

> <CNNaffinity_variance>
0.1723743528

$$$$
[H]c1c([H])c([H])c(N([H])[C@@]2([H])c3c([H])c(-c4c([H])c([H])c(C(F)(F)F)c([H])c4[H])c([H])c([H])c3N(C(=O)C([H])([H])[H])[C@@]([H])(C([H])([H])[H])C2([H])[H])c([H])c1[H]


 32 35  0  0  0  0  0  0  0  0999 V2000
   44.6169   11.1551  -16.8519 C   0  0  0  0  0  0  0  0  0  0  0  0
   45.2096   12.2767  -16.1118 C   0  0  0  0  0  0  0  0  0  0  0  0
   46.4645   12.4711  -16.2584 O   0  0  0  0  0  0  0  0  0  0  0  0
   44.4744   13.1249  -15.2593 N   0  0  0  0  0  0  0  0  0  0  0  0
   43.0697   13.2189  -15.1563 C   0  0  0  0  0  0  0  0  0  0  0  0
   42.2880   12.9651  -16.2778 C   0  0  0  0  0  0  0  0  0  0  0  0
   40.9224   12.9921  -16.1251 C   0  0  0  0  0  0  0  0  0  0  0  0
   40.2723   13.2557  -14.9346 C   0  0  0  0  0  0  0  0  0  0  0  0
   41.0718   13.5103  -13.8465 C   0  0  0  0  0  0  0  0  0  0  0  0
   42.4664   13.4932  -13.9532 C   0  0  0  0  0  0  0  0  0  0  0  0
   43.2100   13.8465  -12.7372 C   0  0  0  0  0  0  0  0  0  0  0  0
   44.7002   13.7344  -12.9036 C   0  0  0  0  0  0  0  0  0  0  0  0
   45.1980   13.9720  -14.2895 C   0  0  0  0  0  0  0  0  0  0  0  0
   45.2702   15.3742  -14.7657 C   0  0  0  0  0  0  0  0  0  0  0  0
   38.8110   13.2383  -14.8097 C   0  0  0  0  0  0  0  0  0  0  0  0
   38.1032   12.0713  -15.0648 C   0  0  0  0  0  0  0  0  0  0  0  0
   36.7378   11.9742  -14.9151 C   0  0  0  0  0  0  0  0  0  0  0  0
   36.0386   13.0966  -14.4938 C   0  0  0  0  0  0  0  0  0  0  0  0
   36.7072   14.2731  -14.2341 C   0  0  0  0  0  0  0  0  0  0  0  0
   38.0930   14.3290  -14.3971 C   0  0  0  0  0  0  0  0  0  0  0  0
   34.5471   12.9641  -14.3252 C   0  0  0  0  0  0  0  0  0  0  0  0
   34.1083   11.7822  -14.8987 F   0  0  0  0  0  0  0  0  0  0  0  0
   33.8651   13.9934  -14.9005 F   0  0  0  0  0  0  0  0  0  0  0  0
   34.3079   12.8297  -12.9602 F   0  0  0  0  0  0  0  0  0  0  0  0
   42.8635   15.2419  -12.3977 N   0  0  0  0  0  0  0  0  0  0  0  0
   42.1354   15.6966  -12.9915 H   0  0  0  0  0  0  0  0  0  0  0  0
   43.5060   15.9125  -11.3188 C   0  0  0  0  0  0  0  0  0  0  0  0
   44.5835   16.7490  -11.5627 C   0  0  0  0  0  0  0  0  0  0  0  0
   45.1381   17.4242  -10.5028 C   0  0  0  0  0  0  0  0  0  0  0  0
   44.6911   17.3204   -9.2097 C   0  0  0  0  0  0  0  0  0  0  0  0
   43.6130   16.4845   -8.9490 C   0  0  0  0  0  0  0  0  0  0  0  0
   43.0460   15.8021  -10.0029 C   0  0  0  0  0  0  0  0  0  0  0  0
  1  2  1  0  0  0
  2  3  2  0  0  0
  2  4  1  0  0  0
  4  5  1  0  0  0
  5  6  2  0  0  0
  6  7  1  0  0  0
  7  8  2  0  0  0
  8 15  1  0  0  0
 15 16  2  0  0  0
 16 17  1  0  0  0
 17 18  2  0  0  0
 18 21  1  0  0  0
 21 22  1  0  0  0
 21 23  1  0  0  0
 21 24  1  0  0  0
 18 19  1  0  0  0
 19 20  2  0  0  0
  8  9  1  0  0  0
  9 10  2  0  0  0
 10 11  1  0  0  0
 11 25  1  0  0  0
 25 27  1  0  0  0
 27 28  2  0  0  0
 28 29  1  0  0  0
 29 30  2  0  0  0
 30 31  1  0  0  0
 31 32  2  0  0  0
 11 12  1  0  0  0
 12 13  1  0  0  0
 13 14  1  0  0  0
 13  4  1  0  0  0
 10  5  1  0  0  0
 32 27  1  0  0  0
 20 15  1  0  0  0
 25 26  1  0  0  0
M  END
> <minimizedAffinity>
-8.97941

> <CNNscore>
0.1791730076

> <CNNaffinity>
6.0908260345

> <CNN_VS>
1.0913115740

> <CNNaffinity_variance>
0.1327435672

$$$$
[H]c1c([H])c([H])c(N([H])[C@@]2([H])c3c([H])c(-c4c([H])c([H])c(C(F)(F)F)c([H])c4[H])c([H])c([H])c3N(C(=O)C([H])([H])[H])[C@@]([H])(C([H])([H])[H])C2([H])[H])c([H])c1[H]


 32 35  0  0  0  0  0  0  0  0999 V2000
   38.7021   15.3081  -12.1948 C   0  0  0  0  0  0  0  0  0  0  0  0
   39.6994   15.0615  -13.2443 C   0  0  0  0  0  0  0  0  0  0  0  0
   39.2648   14.9286  -14.4391 O   0  0  0  0  0  0  0  0  0  0  0  0
   41.0833   14.9588  -12.9976 N   0  0  0  0  0  0  0  0  0  0  0  0
   41.7650   15.3073  -11.8116 C   0  0  0  0  0  0  0  0  0  0  0  0
   41.2694   16.3382  -11.0213 C   0  0  0  0  0  0  0  0  0  0  0  0
   41.9138   16.6024   -9.8365 C   0  0  0  0  0  0  0  0  0  0  0  0
   43.0211   15.9154   -9.3768 C   0  0  0  0  0  0  0  0  0  0  0  0
   43.4918   14.9077  -10.1836 C   0  0  0  0  0  0  0  0  0  0  0  0
   42.8685   14.6018  -11.3979 C   0  0  0  0  0  0  0  0  0  0  0  0
   43.5045   13.5500  -12.2015 C   0  0  0  0  0  0  0  0  0  0  0  0
   42.7407   13.2222  -13.4545 C   0  0  0  0  0  0  0  0  0  0  0  0
   41.9539   14.3534  -14.0257 C   0  0  0  0  0  0  0  0  0  0  0  0
   42.6926   15.3993  -14.7732 C   0  0  0  0  0  0  0  0  0  0  0  0
   43.6554   16.2081   -8.0871 C   0  0  0  0  0  0  0  0  0  0  0  0
   44.9955   15.9062   -7.8848 C   0  0  0  0  0  0  0  0  0  0  0  0
   45.6635   16.2030   -6.7178 C   0  0  0  0  0  0  0  0  0  0  0  0
   44.9619   16.8288   -5.6968 C   0  0  0  0  0  0  0  0  0  0  0  0
   43.6299   17.1410   -5.8606 C   0  0  0  0  0  0  0  0  0  0  0  0
   42.9901   16.8240   -7.0608 C   0  0  0  0  0  0  0  0  0  0  0  0
   45.7158   17.1551   -4.4334 C   0  0  0  0  0  0  0  0  0  0  0  0
   47.0700   16.9309   -4.6182 F   0  0  0  0  0  0  0  0  0  0  0  0
   45.3027   16.4062   -3.3732 F   0  0  0  0  0  0  0  0  0  0  0  0
   45.5870   18.5267   -4.2321 F   0  0  0  0  0  0  0  0  0  0  0  0
   44.8536   14.0285  -12.5669 N   0  0  0  0  0  0  0  0  0  0  0  0
   45.6287   13.3338  -12.4895 H   0  0  0  0  0  0  0  0  0  0  0  0
   45.0623   15.3708  -12.9922 C   0  0  0  0  0  0  0  0  0  0  0  0
   44.6444   16.4255  -12.1964 C   0  0  0  0  0  0  0  0  0  0  0  0
   44.9176   17.7055  -12.6135 C   0  0  0  0  0  0  0  0  0  0  0  0
   45.5803   18.0074  -13.7765 C   0  0  0  0  0  0  0  0  0  0  0  0
   46.0039   16.9611  -14.5856 C   0  0  0  0  0  0  0  0  0  0  0  0
   45.7379   15.6721  -14.1789 C   0  0  0  0  0  0  0  0  0  0  0  0
  1  2  1  0  0  0
  2  3  2  0  0  0
  2  4  1  0  0  0
  4  5  1  0  0  0
  5  6  2  0  0  0
  6  7  1  0  0  0
  7  8  2  0  0  0
  8 15  1  0  0  0
 15 16  2  0  0  0
 16 17  1  0  0  0
 17 18  2  0  0  0
 18 21  1  0  0  0
 21 22  1  0  0  0
 21 23  1  0  0  0
 21 24  1  0  0  0
 18 19  1  0  0  0
 19 20  2  0  0  0
  8  9  1  0  0  0
  9 10  2  0  0  0
 10 11  1  0  0  0
 11 25  1  0  0  0
 25 27  1  0  0  0
 27 28  2  0  0  0
 28 29  1  0  0  0
 29 30  2  0  0  0
 30 31  1  0  0  0
 31 32  2  0  0  0
 11 12  1  0  0  0
 12 13  1  0  0  0
 13 14  1  0  0  0
 13  4  1  0  0  0
 10  5  1  0  0  0
 32 27  1  0  0  0
 20 15  1  0  0  0
 25 26  1  0  0  0
M  END
> <minimizedAffinity>
-1.96114

> <CNNscore>
0.1772911698

> <CNNaffinity>
5.1943998337

> <CNN_VS>
0.9209212065

> <CNNaffinity_variance>
0.3385407031

$$$$
[H]c1c([H])c([H])c(N([H])[C@@]2([H])c3c([H])c(-c4c([H])c([H])c(C(F)(F)F)c([H])c4[H])c([H])c([H])c3N(C(=O)C([H])([H])[H])[C@@]([H])(C([H])([H])[H])C2([H])[H])c([H])c1[H]


 32 35  0  0  0  0  0  0  0  0999 V2000
   46.5551   12.6661  -15.3979 C   0  0  0  0  0  0  0  0  0  0  0  0
   46.4555   13.8952  -14.6003 C   0  0  0  0  0  0  0  0  0  0  0  0
   47.5497   14.4869  -14.3057 O   0  0  0  0  0  0  0  0  0  0  0  0
   45.2348   14.4355  -14.1479 N   0  0  0  0  0  0  0  0  0  0  0  0
   43.9360   14.0701  -14.5629 C   0  0  0  0  0  0  0  0  0  0  0  0
   43.7413   13.6133  -15.8615 C   0  0  0  0  0  0  0  0  0  0  0  0
   42.4793   13.1955  -16.2103 C   0  0  0  0  0  0  0  0  0  0  0  0
   41.3900   13.1994  -15.3601 C   0  0  0  0  0  0  0  0  0  0  0  0
   41.6123   13.6636  -14.0861 C   0  0  0  0  0  0  0  0  0  0  0  0
   42.8798   14.0987  -13.6852 C   0  0  0  0  0  0  0  0  0  0  0  0
   42.9755   14.6345  -12.3213 C   0  0  0  0  0  0  0  0  0  0  0  0
   44.3782   15.0122  -11.9331 C   0  0  0  0  0  0  0  0  0  0  0  0
   45.2506   15.4398  -13.0649 C   0  0  0  0  0  0  0  0  0  0  0  0
   45.0547   16.8049  -13.6093 C   0  0  0  0  0  0  0  0  0  0  0  0
   40.0680   12.7096  -15.7648 C   0  0  0  0  0  0  0  0  0  0  0  0
   39.9324   11.9307  -16.9062 C   0  0  0  0  0  0  0  0  0  0  0  0
   38.7296   11.3966  -17.3114 C   0  0  0  0  0  0  0  0  0  0  0  0
   37.6017   11.6534  -16.5444 C   0  0  0  0  0  0  0  0  0  0  0  0
   37.6976   12.4248  -15.4068 C   0  0  0  0  0  0  0  0  0  0  0  0
   38.9369   12.9466  -15.0300 C   0  0  0  0  0  0  0  0  0  0  0  0
   36.2986   11.0489  -16.9998 C   0  0  0  0  0  0  0  0  0  0  0  0
   35.8237   11.7273  -18.1099 F   0  0  0  0  0  0  0  0  0  0  0  0
   35.3394   11.0925  -16.0337 F   0  0  0  0  0  0  0  0  0  0  0  0
   36.5869    9.7608  -17.4427 F   0  0  0  0  0  0  0  0  0  0  0  0
   42.1147   15.8334  -12.2566 N   0  0  0  0  0  0  0  0  0  0  0  0
   42.2518   16.5439  -13.0088 H   0  0  0  0  0  0  0  0  0  0  0  0
   41.1614   15.9928  -11.2115 C   0  0  0  0  0  0  0  0  0  0  0  0
   41.5550   15.8788   -9.8877 C   0  0  0  0  0  0  0  0  0  0  0  0
   40.6182   16.0985   -8.9074 C   0  0  0  0  0  0  0  0  0  0  0  0
   39.3088   16.4236   -9.1579 C   0  0  0  0  0  0  0  0  0  0  0  0
   38.8987   16.5398  -10.4797 C   0  0  0  0  0  0  0  0  0  0  0  0
   39.8282   16.3235  -11.4732 C   0  0  0  0  0  0  0  0  0  0  0  0
  1  2  1  0  0  0
  2  3  2  0  0  0
  2  4  1  0  0  0
  4  5  1  0  0  0
  5  6  2  0  0  0
  6  7  1  0  0  0
  7  8  2  0  0  0
  8 15  1  0  0  0
 15 16  2  0  0  0
 16 17  1  0  0  0
 17 18  2  0  0  0
 18 21  1  0  0  0
 21 22  1  0  0  0
 21 23  1  0  0  0
 21 24  1  0  0  0
 18 19  1  0  0  0
 19 20  2  0  0  0
  8  9  1  0  0  0
  9 10  2  0  0  0
 10 11  1  0  0  0
 11 25  1  0  0  0
 25 27  1  0  0  0
 27 28  2  0  0  0
 28 29  1  0  0  0
 29 30  2  0  0  0
 30 31  1  0  0  0
 31 32  2  0  0  0
 11 12  1  0  0  0
 12 13  1  0  0  0
 13 14  1  0  0  0
 13  4  1  0  0  0
 10  5  1  0  0  0
 32 27  1  0  0  0
 20 15  1  0  0  0
 25 26  1  0  0  0
M  END
> <minimizedAffinity>
-9.55324

> <CNNscore>
0.1693332195

> <CNNaffinity>
5.9264130592

> <CNN_VS>
1.0035386086

> <CNNaffinity_variance>
0.2250889093

$$$$
[H]c1c([H])c([H])c(N([H])[C@@]2([H])c3c([H])c(-c4c([H])c([H])c(C(F)(F)F)c([H])c4[H])c([H])c([H])c3N(C(=O)C([H])([H])[H])[C@@]([H])(C([H])([H])[H])C2([H])[H])c([H])c1[H]


 32 35  0  0  0  0  0  0  0  0999 V2000
   44.6506   11.3260  -16.7466 C   0  0  0  0  0  0  0  0  0  0  0  0
   45.2327   12.4476  -15.9983 C   0  0  0  0  0  0  0  0  0  0  0  0
   46.4917   12.6343  -16.1171 O   0  0  0  0  0  0  0  0  0  0  0  0
   44.4832   13.3040  -15.1667 N   0  0  0  0  0  0  0  0  0  0  0  0
   43.0770   13.4065  -15.0963 C   0  0  0  0  0  0  0  0  0  0  0  0
   42.3197   13.1518  -16.2341 C   0  0  0  0  0  0  0  0  0  0  0  0
   40.9512   13.1873  -16.1129 C   0  0  0  0  0  0  0  0  0  0  0  0
   40.2756   13.4602  -14.9388 C   0  0  0  0  0  0  0  0  0  0  0  0
   41.0515   13.7154  -13.8338 C   0  0  0  0  0  0  0  0  0  0  0  0
   42.4480   13.6898  -13.9086 C   0  0  0  0  0  0  0  0  0  0  0  0
   43.1657   14.0447  -12.6775 C   0  0  0  0  0  0  0  0  0  0  0  0
   44.6586   13.9233  -12.8093 C   0  0  0  0  0  0  0  0  0  0  0  0
   45.1893   14.1515  -14.1845 C   0  0  0  0  0  0  0  0  0  0  0  0
   45.2804   15.5511  -14.6653 C   0  0  0  0  0  0  0  0  0  0  0  0
   38.8117   13.4517  -14.8472 C   0  0  0  0  0  0  0  0  0  0  0  0
   38.0767   12.4841  -15.5191 C   0  0  0  0  0  0  0  0  0  0  0  0
   36.7057   12.3889  -15.4324 C   0  0  0  0  0  0  0  0  0  0  0  0
   36.0293   13.3057  -14.6398 C   0  0  0  0  0  0  0  0  0  0  0  0
   36.7253   14.2818  -13.9606 C   0  0  0  0  0  0  0  0  0  0  0  0
   38.1159   14.3428  -14.0745 C   0  0  0  0  0  0  0  0  0  0  0  0
   34.5308   13.1752  -14.5499 C   0  0  0  0  0  0  0  0  0  0  0  0
   34.0799   12.2438  -15.4705 F   0  0  0  0  0  0  0  0  0  0  0  0
   33.8908   14.3534  -14.7904 F   0  0  0  0  0  0  0  0  0  0  0  0
   34.2496   12.6323  -13.2991 F   0  0  0  0  0  0  0  0  0  0  0  0
   42.8196   15.4436  -12.3524 N   0  0  0  0  0  0  0  0  0  0  0  0
   43.2549   16.1800  -12.9503 H   0  0  0  0  0  0  0  0  0  0  0  0
   41.9428   15.7472  -11.2728 C   0  0  0  0  0  0  0  0  0  0  0  0
   40.6897   16.2830  -11.5241 C   0  0  0  0  0  0  0  0  0  0  0  0
   39.8504   16.5062  -10.4598 C   0  0  0  0  0  0  0  0  0  0  0  0
   40.1773   16.2325   -9.1555 C   0  0  0  0  0  0  0  0  0  0  0  0
   41.4304   15.6969   -8.8875 C   0  0  0  0  0  0  0  0  0  0  0  0
   42.2820   15.4666   -9.9455 C   0  0  0  0  0  0  0  0  0  0  0  0
  1  2  1  0  0  0
  2  3  2  0  0  0
  2  4  1  0  0  0
  4  5  1  0  0  0
  5  6  2  0  0  0
  6  7  1  0  0  0
  7  8  2  0  0  0
  8 15  1  0  0  0
 15 16  2  0  0  0
 16 17  1  0  0  0
 17 18  2  0  0  0
 18 21  1  0  0  0
 21 22  1  0  0  0
 21 23  1  0  0  0
 21 24  1  0  0  0
 18 19  1  0  0  0
 19 20  2  0  0  0
  8  9  1  0  0  0
  9 10  2  0  0  0
 10 11  1  0  0  0
 11 25  1  0  0  0
 25 27  1  0  0  0
 27 28  2  0  0  0
 28 29  1  0  0  0
 29 30  2  0  0  0
 30 31  1  0  0  0
 31 32  2  0  0  0
 11 12  1  0  0  0
 12 13  1  0  0  0
 13 14  1  0  0  0
 13  4  1  0  0  0
 10  5  1  0  0  0
 32 27  1  0  0  0
 20 15  1  0  0  0
 25 26  1  0  0  0
M  END
> <minimizedAffinity>
-9.71525

> <CNNscore>
0.1673901528

> <CNNaffinity>
6.0063862801

> <CNN_VS>
1.0054099560

> <CNNaffinity_variance>
0.2462437898

$$$$
[H]c1nc(OC2([H])C([H])([H])[C@@]3([H])N(C(=O)OC(C([H])([H])[H])(C([H])([H])[H])C([H])([H])[H])[C@]([H])(C2([H])[H])C([H])([H])C3([H])[H])c([N+](=O)[O-])c(N([H])c2c([H])c([H])c(S(=O)(=O)C([H])([H])[H])c([H])c2[H])n1


 37 40  0  0  0  0  0  0  0  0999 V2000
   43.2897   13.9723  -13.8817 C   0  0  0  0  0  0  0  0  0  0  0  0
   43.4874   13.0689  -15.0627 N   0  0  0  0  0  0  0  0  0  0  0  0
   42.3208   12.7060  -15.9329 C   0  0  0  0  0  0  0  0  0  0  0  0
   40.9565   13.2464  -15.6221 N   0  0  0  0  0  0  0  0  0  0  0  0
   40.7588   14.1497  -14.4411 C   0  0  0  0  0  0  0  0  0  0  0  0
   41.9253   14.5127  -13.5709 C   0  0  0  0  0  0  0  0  0  0  0  0
   41.7276   15.4160  -12.3898 N   0  0  0  0  0  0  0  0  0  0  0  0
   41.5734   16.8941  -12.5937 O   0  0  0  0  0  0  0  0  0  0  0  0
   41.6362   15.1911  -10.9096 O   0  0  0  0  0  0  0  0  0  0  0  0
   39.3944   14.6901  -14.1303 N   0  0  0  0  0  0  0  0  0  0  0  0
   39.2520   15.9957  -13.4057 H   0  0  0  0  0  0  0  0  0  0  0  0
   38.1725   13.9248  -14.5441 C   0  0  0  0  0  0  0  0  0  0  0  0
   38.3144   12.6359  -15.2983 C   0  0  0  0  0  0  0  0  0  0  0  0
   37.0924   11.8707  -15.7120 C   0  0  0  0  0  0  0  0  0  0  0  0
   35.7286   12.3943  -15.3716 C   0  0  0  0  0  0  0  0  0  0  0  0
   35.5867   13.6831  -14.6174 C   0  0  0  0  0  0  0  0  0  0  0  0
   36.8086   14.4483  -14.2037 C   0  0  0  0  0  0  0  0  0  0  0  0
   34.5067   11.6290  -15.7854 S   0  0  0  0  0  0  0  0  0  0  0  0
   33.2847   10.8637  -16.1992 C   0  0  0  0  0  0  0  0  0  0  0  0
   33.6924   12.3836  -14.7767 O   0  0  0  0  0  0  0  0  0  0  0  0
   35.3209   10.8743  -16.7942 O   0  0  0  0  0  0  0  0  0  0  0  0
   44.4562   14.3353  -13.0114 O   0  0  0  0  0  0  0  0  0  0  0  0
   45.2241   13.3649  -12.4861 C   0  0  0  0  0  0  0  0  0  0  0  0
   44.0708   13.0600  -11.5768 O   0  0  0  0  0  0  0  0  0  0  0  0
   46.5963   12.7844  -12.6592 N   0  0  0  0  0  0  0  0  0  0  0  0
   47.6279   13.2396  -13.6484 C   0  0  0  0  0  0  0  0  0  0  0  0
   48.8471   12.3833  -13.4740 C   0  0  0  0  0  0  0  0  0  0  0  0
   48.5690   11.3988  -12.3770 C   0  0  0  0  0  0  0  0  0  0  0  0
   47.1779   11.6467  -11.8734 C   0  0  0  0  0  0  0  0  0  0  0  0
   45.7740   12.1149  -11.5752 C   0  0  0  0  0  0  0  0  0  0  0  0
   45.3287   13.2578  -12.4388 C   0  0  0  0  0  0  0  0  0  0  0  0
   46.2557   13.8201  -13.4753 C   0  0  0  0  0  0  0  0  0  0  0  0
   44.7788   14.5077  -13.3496 O   0  0  0  0  0  0  0  0  0  0  0  0
   45.5628   16.1233  -14.4789 C   0  0  0  0  0  0  0  0  0  0  0  0
   45.2250   15.9045  -13.0339 C   0  0  0  0  0  0  0  0  0  0  0  0
   44.8871   15.6858  -11.5889 C   0  0  0  0  0  0  0  0  0  0  0  0
   45.6711   17.3014  -12.7181 C   0  0  0  0  0  0  0  0  0  0  0  0
 34 35  1  0  0  0
 35 36  1  0  0  0
 35 37  1  0  0  0
 35 33  1  0  0  0
 33 23  1  0  0  0
 23 24  2  0  0  0
 23 25  1  0  0  0
 25 26  1  0  0  0
 26 27  1  0  0  0
 27 28  1  0  0  0
 28 29  1  0  0  0
 29 30  1  0  0  0
 30 31  1  0  0  0
 31 22  1  0  0  0
 22  1  1  0  0  0
  1  2  2  0  0  0
  2  3  1  0  0  0
  3  4  2  0  0  0
  4  5  1  0  0  0
  5 10  1  0  0  0
 10 12  1  0  0  0
 12 13  2  0  0  0
 13 14  1  0  0  0
 14 15  2  0  0  0
 15 18  1  0  0  0
 18 19  1  0  0  0
 18 20  2  0  0  0
 18 21  2  0  0  0
 15 16  1  0  0  0
 16 17  2  0  0  0
  5  6  2  0  0  0
  6  7  1  0  0  0
  7  8  2  0  0  0
  7  9  1  0  0  0
 31 32  1  0  0  0
 29 25  1  0  0  0
  6  1  1  0  0  0
 32 26  1  0  0  0
 17 12  1  0  0  0
 10 11  1  0  0  0
M  CHG 1   7   1
M  CHG 1   9  -1
M  END
> <minimizedAffinity>
-7.93366

> <CNNscore>
0.0942561477

> <CNNaffinity>
5.9824171066

> <CNN_VS>
0.5638796091

> <CNNaffinity_variance>
0.1391347498

$$$$
[H]c1nc(OC2([H])C([H])([H])[C@@]3([H])N(C(=O)OC(C([H])([H])[H])(C([H])([H])[H])C([H])([H])[H])[C@]([H])(C2([H])[H])C([H])([H])C3([H])[H])c([N+](=O)[O-])c(N([H])c2c([H])c([H])c(S(=O)(=O)C([H])([H])[H])c([H])c2[H])n1


 37 40  0  0  0  0  0  0  0  0999 V2000
   39.1185   15.7109   -8.5582 C   0  0  0  0  0  0  0  0  0  0  0  0
   40.0040   16.3202   -9.6043 N   0  0  0  0  0  0  0  0  0  0  0  0
   39.5054   16.4771  -11.0103 C   0  0  0  0  0  0  0  0  0  0  0  0
   38.1213   16.0247  -11.3701 N   0  0  0  0  0  0  0  0  0  0  0  0
   37.2357   15.4153  -10.3240 C   0  0  0  0  0  0  0  0  0  0  0  0
   37.7343   15.2584   -8.9180 C   0  0  0  0  0  0  0  0  0  0  0  0
   36.8487   14.6491   -7.8718 N   0  0  0  0  0  0  0  0  0  0  0  0
   35.8006   15.4838   -7.1976 O   0  0  0  0  0  0  0  0  0  0  0  0
   36.7363   13.2795   -7.2706 O   0  0  0  0  0  0  0  0  0  0  0  0
   35.8516   14.9629  -10.6838 N   0  0  0  0  0  0  0  0  0  0  0  0
   34.6936   15.3143   -9.7975 H   0  0  0  0  0  0  0  0  0  0  0  0
   35.6256   14.1591  -11.9299 C   0  0  0  0  0  0  0  0  0  0  0  0
   34.3548   14.3251  -12.7094 C   0  0  0  0  0  0  0  0  0  0  0  0
   34.1289   13.5212  -13.9555 C   0  0  0  0  0  0  0  0  0  0  0  0
   35.1737   12.5514  -14.4221 C   0  0  0  0  0  0  0  0  0  0  0  0
   36.4445   12.3854  -13.6426 C   0  0  0  0  0  0  0  0  0  0  0  0
   36.6704   13.1892  -12.3966 C   0  0  0  0  0  0  0  0  0  0  0  0
   34.9478   11.7475  -15.6682 S   0  0  0  0  0  0  0  0  0  0  0  0
   34.7219   10.9437  -16.9144 C   0  0  0  0  0  0  0  0  0  0  0  0
   33.6059   11.3219  -15.1504 O   0  0  0  0  0  0  0  0  0  0  0  0
   36.2897   12.1732  -16.1861 O   0  0  0  0  0  0  0  0  0  0  0  0
   39.6169   15.5539   -7.1522 O   0  0  0  0  0  0  0  0  0  0  0  0
   40.0118   16.6356   -6.4584 C   0  0  0  0  0  0  0  0  0  0  0  0
   38.5557   16.9451   -6.2737 O   0  0  0  0  0  0  0  0  0  0  0  0
   41.2824   17.3026   -6.0217 N   0  0  0  0  0  0  0  0  0  0  0  0
   42.6741   16.8255   -6.3139 C   0  0  0  0  0  0  0  0  0  0  0  0
   43.6362   17.7917   -5.6888 C   0  0  0  0  0  0  0  0  0  0  0  0
   42.8391   18.8660   -5.0102 C   0  0  0  0  0  0  0  0  0  0  0  0
   41.3843   18.5637   -5.2160 C   0  0  0  0  0  0  0  0  0  0  0  0
   40.0228   18.0193   -5.5753 C   0  0  0  0  0  0  0  0  0  0  0  0
   40.0779   16.7554   -6.3814 C   0  0  0  0  0  0  0  0  0  0  0  0
   41.4035   16.1585   -6.7506 C   0  0  0  0  0  0  0  0  0  0  0  0
   40.0668   15.3718   -7.2644 O   0  0  0  0  0  0  0  0  0  0  0  0
   41.3035   13.6853   -7.6197 C   0  0  0  0  0  0  0  0  0  0  0  0
   40.2869   14.0551   -6.5805 C   0  0  0  0  0  0  0  0  0  0  0  0
   39.2703   14.4248   -5.5414 C   0  0  0  0  0  0  0  0  0  0  0  0
   40.5070   12.7383   -5.8967 C   0  0  0  0  0  0  0  0  0  0  0  0
 34 35  1  0  0  0
 35 36  1  0  0  0
 35 37  1  0  0  0
 35 33  1  0  0  0
 33 23  1  0  0  0
 23 24  2  0  0  0
 23 25  1  0  0  0
 25 26  1  0  0  0
 26 27  1  0  0  0
 27 28  1  0  0  0
 28 29  1  0  0  0
 29 30  1  0  0  0
 30 31  1  0  0  0
 31 22  1  0  0  0
 22  1  1  0  0  0
  1  2  2  0  0  0
  2  3  1  0  0  0
  3  4  2  0  0  0
  4  5  1  0  0  0
  5 10  1  0  0  0
 10 12  1  0  0  0
 12 13  2  0  0  0
 13 14  1  0  0  0
 14 15  2  0  0  0
 15 18  1  0  0  0
 18 19  1  0  0  0
 18 20  2  0  0  0
 18 21  2  0  0  0
 15 16  1  0  0  0
 16 17  2  0  0  0
  5  6  2  0  0  0
  6  7  1  0  0  0
  7  8  2  0  0  0
  7  9  1  0  0  0
 31 32  1  0  0  0
 29 25  1  0  0  0
  6  1  1  0  0  0
 32 26  1  0  0  0
 17 12  1  0  0  0
 10 11  1  0  0  0
M  CHG 1   7   1
M  CHG 1   9  -1
M  END
> <minimizedAffinity>
-7.61015

> <CNNscore>
0.0840807632

> <CNNaffinity>
5.6742324829

> <CNN_VS>
0.4770937860

> <CNNaffinity_variance>
0.1945121139

$$$$
[H]c1nc(OC2([H])C([H])([H])[C@@]3([H])N(C(=O)OC(C([H])([H])[H])(C([H])([H])[H])C([H])([H])[H])[C@]([H])(C2([H])[H])C([H])([H])C3([H])[H])c([N+](=O)[O-])c(N([H])c2c([H])c([H])c(S(=O)(=O)C([H])([H])[H])c([H])c2[H])n1


 37 40  0  0  0  0  0  0  0  0999 V2000
   36.0800   15.7611   -9.6561 C   0  0  0  0  0  0  0  0  0  0  0  0
   34.8834   15.8187  -10.5588 N   0  0  0  0  0  0  0  0  0  0  0  0
   35.0461   15.6041  -12.0344 C   0  0  0  0  0  0  0  0  0  0  0  0
   36.4054   15.3319  -12.6073 N   0  0  0  0  0  0  0  0  0  0  0  0
   37.6020   15.2742  -11.7046 C   0  0  0  0  0  0  0  0  0  0  0  0
   37.4393   15.4888  -10.2290 C   0  0  0  0  0  0  0  0  0  0  0  0
   38.6358   15.4312   -9.3263 N   0  0  0  0  0  0  0  0  0  0  0  0
   39.5306   16.6274   -9.1897 O   0  0  0  0  0  0  0  0  0  0  0  0
   39.2209   14.3738   -8.4376 O   0  0  0  0  0  0  0  0  0  0  0  0
   38.9613   15.0020  -12.2775 N   0  0  0  0  0  0  0  0  0  0  0  0
   40.1840   15.5421  -11.5968 H   0  0  0  0  0  0  0  0  0  0  0  0
   39.0978   14.1897  -13.5311 C   0  0  0  0  0  0  0  0  0  0  0  0
   40.1252   14.5626  -14.5584 C   0  0  0  0  0  0  0  0  0  0  0  0
   40.2617   13.7502  -15.8119 C   0  0  0  0  0  0  0  0  0  0  0  0
   39.3707   12.5649  -16.0382 C   0  0  0  0  0  0  0  0  0  0  0  0
   38.3432   12.1920  -15.0109 C   0  0  0  0  0  0  0  0  0  0  0  0
   38.2068   13.0043  -13.7574 C   0  0  0  0  0  0  0  0  0  0  0  0
   39.5071   11.7525  -17.2917 S   0  0  0  0  0  0  0  0  0  0  0  0
   39.6435   10.9401  -18.5454 C   0  0  0  0  0  0  0  0  0  0  0  0
   40.9342   12.1951  -17.4233 O   0  0  0  0  0  0  0  0  0  0  0  0
   38.0799   11.3099  -17.1602 O   0  0  0  0  0  0  0  0  0  0  0  0
   35.9173   15.9756   -8.1804 O   0  0  0  0  0  0  0  0  0  0  0  0
   34.8606   15.4441   -7.5417 C   0  0  0  0  0  0  0  0  0  0  0  0
   35.5192   14.1107   -7.7372 O   0  0  0  0  0  0  0  0  0  0  0  0
   33.5800   15.8897   -6.9003 N   0  0  0  0  0  0  0  0  0  0  0  0
   33.0870   17.3031   -6.8045 C   0  0  0  0  0  0  0  0  0  0  0  0
   31.7698   17.2871   -6.0871 C   0  0  0  0  0  0  0  0  0  0  0  0
   31.4487   15.8638   -5.7394 C   0  0  0  0  0  0  0  0  0  0  0  0
   32.5674   15.0001   -6.2420 C   0  0  0  0  0  0  0  0  0  0  0  0
   33.8114   14.3922   -6.8437 C   0  0  0  0  0  0  0  0  0  0  0  0
   34.7299   15.4021   -7.4656 C   0  0  0  0  0  0  0  0  0  0  0  0
   34.3676   16.8575   -7.4460 C   0  0  0  0  0  0  0  0  0  0  0  0
   35.7790   16.4539   -8.1635 O   0  0  0  0  0  0  0  0  0  0  0  0
   36.3140   18.5050   -8.0805 C   0  0  0  0  0  0  0  0  0  0  0  0
   36.6823   17.2802   -7.2967 C   0  0  0  0  0  0  0  0  0  0  0  0
   37.0505   16.0555   -6.5129 C   0  0  0  0  0  0  0  0  0  0  0  0
   37.5855   18.1065   -6.4299 C   0  0  0  0  0  0  0  0  0  0  0  0
 34 35  1  0  0  0
 35 36  1  0  0  0
 35 37  1  0  0  0
 35 33  1  0  0  0
 33 23  1  0  0  0
 23 24  2  0  0  0
 23 25  1  0  0  0
 25 26  1  0  0  0
 26 27  1  0  0  0
 27 28  1  0  0  0
 28 29  1  0  0  0
 29 30  1  0  0  0
 30 31  1  0  0  0
 31 22  1  0  0  0
 22  1  1  0  0  0
  1  2  2  0  0  0
  2  3  1  0  0  0
  3  4  2  0  0  0
  4  5  1  0  0  0
  5 10  1  0  0  0
 10 12  1  0  0  0
 12 13  2  0  0  0
 13 14  1  0  0  0
 14 15  2  0  0  0
 15 18  1  0  0  0
 18 19  1  0  0  0
 18 20  2  0  0  0
 18 21  2  0  0  0
 15 16  1  0  0  0
 16 17  2  0  0  0
  5  6  2  0  0  0
  6  7  1  0  0  0
  7  8  2  0  0  0
  7  9  1  0  0  0
 31 32  1  0  0  0
 29 25  1  0  0  0
  6  1  1  0  0  0
 32 26  1  0  0  0
 17 12  1  0  0  0
 10 11  1  0  0  0
M  CHG 1   7   1
M  CHG 1   9  -1
M  END
> <minimizedAffinity>
-7.80165

> <CNNscore>
0.0627093241

> <CNNaffinity>
5.5201005936

> <CNN_VS>
0.3461617827

> <CNNaffinity_variance>
0.3229809701

$$$$
[H]c1nc(OC2([H])C([H])([H])[C@@]3([H])N(C(=O)OC(C([H])([H])[H])(C([H])([H])[H])C([H])([H])[H])[C@]([H])(C2([H])[H])C([H])([H])C3([H])[H])c([N+](=O)[O-])c(N([H])c2c([H])c([H])c(S(=O)(=O)C([H])([H])[H])c([H])c2[H])n1


 37 40  0  0  0  0  0  0  0  0999 V2000
   38.7283   15.9523   -8.9763 C   0  0  0  0  0  0  0  0  0  0  0  0
   39.9684   16.3493   -9.7209 N   0  0  0  0  0  0  0  0  0  0  0  0
   40.0155   16.2324  -11.2156 C   0  0  0  0  0  0  0  0  0  0  0  0
   38.8225   15.7186  -11.9657 N   0  0  0  0  0  0  0  0  0  0  0  0
   37.5823   15.3216  -11.2210 C   0  0  0  0  0  0  0  0  0  0  0  0
   37.5353   15.4384   -9.7264 C   0  0  0  0  0  0  0  0  0  0  0  0
   36.2952   15.0415   -8.9817 N   0  0  0  0  0  0  0  0  0  0  0  0
   35.0764   15.9143   -9.0354 O   0  0  0  0  0  0  0  0  0  0  0  0
   35.9309   13.8759   -8.1106 O   0  0  0  0  0  0  0  0  0  0  0  0
   36.3893   14.8077  -11.9711 N   0  0  0  0  0  0  0  0  0  0  0  0
   35.0057   15.1666  -11.5162 H   0  0  0  0  0  0  0  0  0  0  0  0
   36.5799   13.9350  -13.1762 C   0  0  0  0  0  0  0  0  0  0  0  0
   35.7554   14.1663  -14.4077 C   0  0  0  0  0  0  0  0  0  0  0  0
   35.9461   13.2936  -15.6127 C   0  0  0  0  0  0  0  0  0  0  0  0
   36.9612   12.1896  -15.5861 C   0  0  0  0  0  0  0  0  0  0  0  0
   37.7857   11.9583  -14.3545 C   0  0  0  0  0  0  0  0  0  0  0  0
   37.5951   12.8310  -13.1496 C   0  0  0  0  0  0  0  0  0  0  0  0
   37.1519   11.3169  -16.7911 S   0  0  0  0  0  0  0  0  0  0  0  0
   37.3426   10.4441  -17.9961 C   0  0  0  0  0  0  0  0  0  0  0  0
   35.6863   10.9975  -16.7918 O   0  0  0  0  0  0  0  0  0  0  0  0
   38.6176   11.6361  -16.7904 O   0  0  0  0  0  0  0  0  0  0  0  0
   38.6812   16.0691   -7.4816 O   0  0  0  0  0  0  0  0  0  0  0  0
   39.6538   15.5130   -6.7387 C   0  0  0  0  0  0  0  0  0  0  0  0
   39.0927   14.1840   -7.1497 O   0  0  0  0  0  0  0  0  0  0  0  0
   40.8030   15.9359   -5.8725 N   0  0  0  0  0  0  0  0  0  0  0  0
   41.2118   17.3488   -5.5778 C   0  0  0  0  0  0  0  0  0  0  0  0
   42.4067   17.3064   -4.6720 C   0  0  0  0  0  0  0  0  0  0  0  0
   42.7364   15.8673   -4.4068 C   0  0  0  0  0  0  0  0  0  0  0  0
   41.7453   15.0203   -5.1487 C   0  0  0  0  0  0  0  0  0  0  0  0
   40.6337   14.4332   -5.9848 C   0  0  0  0  0  0  0  0  0  0  0  0
   39.7735   15.4681   -6.6475 C   0  0  0  0  0  0  0  0  0  0  0  0
   40.0626   16.9258   -6.4440 C   0  0  0  0  0  0  0  0  0  0  0  0
   38.7936   16.5478   -7.4015 O   0  0  0  0  0  0  0  0  0  0  0  0
   38.1086   18.5493   -7.2450 C   0  0  0  0  0  0  0  0  0  0  0  0
   37.7192   17.2430   -6.6190 C   0  0  0  0  0  0  0  0  0  0  0  0
   37.3298   15.9367   -5.9930 C   0  0  0  0  0  0  0  0  0  0  0  0
   36.6448   17.9382   -5.8365 C   0  0  0  0  0  0  0  0  0  0  0  0
 34 35  1  0  0  0
 35 36  1  0  0  0
 35 37  1  0  0  0
 35 33  1  0  0  0
 33 23  1  0  0  0
 23 24  2  0  0  0
 23 25  1  0  0  0
 25 26  1  0  0  0
 26 27  1  0  0  0
 27 28  1  0  0  0
 28 29  1  0  0  0
 29 30  1  0  0  0
 30 31  1  0  0  0
 31 22  1  0  0  0
 22  1  1  0  0  0
  1  2  2  0  0  0
  2  3  1  0  0  0
  3  4  2  0  0  0
  4  5  1  0  0  0
  5 10  1  0  0  0
 10 12  1  0  0  0
 12 13  2  0  0  0
 13 14  1  0  0  0
 14 15  2  0  0  0
 15 18  1  0  0  0
 18 19  1  0  0  0
 18 20  2  0  0  0
 18 21  2  0  0  0
 15 16  1  0  0  0
 16 17  2  0  0  0
  5  6  2  0  0  0
  6  7  1  0  0  0
  7  8  2  0  0  0
  7  9  1  0  0  0
 31 32  1  0  0  0
 29 25  1  0  0  0
  6  1  1  0  0  0
 32 26  1  0  0  0
 17 12  1  0  0  0
 10 11  1  0  0  0
M  CHG 1   7   1
M  CHG 1   9  -1
M  END
> <minimizedAffinity>
-7.69207

> <CNNscore>
0.0553733595

> <CNNaffinity>
5.4677686691

> <CNN_VS>
0.3027687073

> <CNNaffinity_variance>
0.2891588211

$$$$
[H]c1nc(OC2([H])C([H])([H])[C@@]3([H])N(C(=O)OC(C([H])([H])[H])(C([H])([H])[H])C([H])([H])[H])[C@]([H])(C2([H])[H])C([H])([H])C3([H])[H])c([N+](=O)[O-])c(N([H])c2c([H])c([H])c(S(=O)(=O)C([H])([H])[H])c([H])c2[H])n1


 37 40  0  0  0  0  0  0  0  0999 V2000
   31.5254   15.7119   -9.0816 C   0  0  0  0  0  0  0  0  0  0  0  0
   30.3647   15.3585   -9.9635 N   0  0  0  0  0  0  0  0  0  0  0  0
   30.5931   15.0356  -11.4104 C   0  0  0  0  0  0  0  0  0  0  0  0
   31.9824   15.0659  -11.9754 N   0  0  0  0  0  0  0  0  0  0  0  0
   33.1431   15.4192  -11.0934 C   0  0  0  0  0  0  0  0  0  0  0  0
   32.9146   15.7422   -9.6466 C   0  0  0  0  0  0  0  0  0  0  0  0
   34.0754   16.0955   -8.7646 N   0  0  0  0  0  0  0  0  0  0  0  0
   35.0028   15.0211   -8.2793 O   0  0  0  0  0  0  0  0  0  0  0  0
   34.5935   17.3800   -8.1888 O   0  0  0  0  0  0  0  0  0  0  0  0
   34.5323   15.4495  -11.6584 N   0  0  0  0  0  0  0  0  0  0  0  0
   35.5485   16.4011  -11.0999 H   0  0  0  0  0  0  0  0  0  0  0  0
   34.9053   14.5283  -12.7819 C   0  0  0  0  0  0  0  0  0  0  0  0
   36.2333   14.6758  -13.4634 C   0  0  0  0  0  0  0  0  0  0  0  0
   36.6062   13.7545  -14.5868 C   0  0  0  0  0  0  0  0  0  0  0  0
   35.6510   12.6857  -15.0288 C   0  0  0  0  0  0  0  0  0  0  0  0
   34.3230   12.5382  -14.3472 C   0  0  0  0  0  0  0  0  0  0  0  0
   33.9501   13.4594  -13.2238 C   0  0  0  0  0  0  0  0  0  0  0  0
   36.0239   11.7644  -16.1522 S   0  0  0  0  0  0  0  0  0  0  0  0
   36.3967   10.8430  -17.2757 C   0  0  0  0  0  0  0  0  0  0  0  0
   37.4199   12.3128  -16.1387 O   0  0  0  0  0  0  0  0  0  0  0  0
   34.6278   11.2158  -16.1658 O   0  0  0  0  0  0  0  0  0  0  0  0
   31.2971   16.0349   -7.6347 O   0  0  0  0  0  0  0  0  0  0  0  0
   31.9356   15.3229   -6.6900 C   0  0  0  0  0  0  0  0  0  0  0  0
   31.5188   14.0985   -7.4495 O   0  0  0  0  0  0  0  0  0  0  0  0
   32.7219   15.5522   -5.4333 N   0  0  0  0  0  0  0  0  0  0  0  0
   33.0386   16.8849   -4.8222 C   0  0  0  0  0  0  0  0  0  0  0  0
   33.8419   16.6454   -3.5782 C   0  0  0  0  0  0  0  0  0  0  0  0
   34.0216   15.1646   -3.4205 C   0  0  0  0  0  0  0  0  0  0  0  0
   33.3294   14.4890   -4.5670 C   0  0  0  0  0  0  0  0  0  0  0  0
   32.5637   14.0908   -5.8057 C   0  0  0  0  0  0  0  0  0  0  0  0
   32.0149   15.2586   -6.5706 C   0  0  0  0  0  0  0  0  0  0  0  0
   32.2523   16.6557   -6.0788 C   0  0  0  0  0  0  0  0  0  0  0  0
   31.3868   16.4907   -7.4549 O   0  0  0  0  0  0  0  0  0  0  0  0
   30.7523   18.4993   -7.2045 C   0  0  0  0  0  0  0  0  0  0  0  0
   30.1196   17.1542   -7.0034 C   0  0  0  0  0  0  0  0  0  0  0  0
   29.4869   15.8092   -6.8023 C   0  0  0  0  0  0  0  0  0  0  0  0
   28.8524   17.8178   -6.5520 C   0  0  0  0  0  0  0  0  0  0  0  0
 34 35  1  0  0  0
 35 36  1  0  0  0
 35 37  1  0  0  0
 35 33  1  0  0  0
 33 23  1  0  0  0
 23 24  2  0  0  0
 23 25  1  0  0  0
 25 26  1  0  0  0
 26 27  1  0  0  0
 27 28  1  0  0  0
 28 29  1  0  0  0
 29 30  1  0  0  0
 30 31  1  0  0  0
 31 22  1  0  0  0
 22  1  1  0  0  0
  1  2  2  0  0  0
  2  3  1  0  0  0
  3  4  2  0  0  0
  4  5  1  0  0  0
  5 10  1  0  0  0
 10 12  1  0  0  0
 12 13  2  0  0  0
 13 14  1  0  0  0
 14 15  2  0  0  0
 15 18  1  0  0  0
 18 19  1  0  0  0
 18 20  2  0  0  0
 18 21  2  0  0  0
 15 16  1  0  0  0
 16 17  2  0  0  0
  5  6  2  0  0  0
  6  7  1  0  0  0
  7  8  2  0  0  0
  7  9  1  0  0  0
 31 32  1  0  0  0
 29 25  1  0  0  0
  6  1  1  0  0  0
 32 26  1  0  0  0
 17 12  1  0  0  0
 10 11  1  0  0  0
M  CHG 1   7   1
M  CHG 1   9  -1
M  END
> <minimizedAffinity>
-8.49110

> <CNNscore>
0.0450610705

> <CNNaffinity>
5.6883525848

> <CNN_VS>
0.2563232481

> <CNNaffinity_variance>
0.3145375848

$$$$
[H]c1nc(OC2([H])C([H])([H])[C@@]3([H])N(C(=O)OC(C([H])([H])[H])(C([H])([H])[H])C([H])([H])[H])[C@]([H])(C2([H])[H])C([H])([H])C3([H])[H])c([N+](=O)[O-])c(N([H])c2c([H])c([H])c(S(=O)(=O)C([H])([H])[H])c([H])c2[H])n1


 37 40  0  0  0  0  0  0  0  0999 V2000
   38.8461   15.9054   -8.9945 C   0  0  0  0  0  0  0  0  0  0  0  0
   40.2634   16.0940   -9.4480 N   0  0  0  0  0  0  0  0  0  0  0  0
   40.5843   16.1248  -10.9129 C   0  0  0  0  0  0  0  0  0  0  0  0
   39.4879   15.9670  -11.9244 N   0  0  0  0  0  0  0  0  0  0  0  0
   38.0706   15.7784  -11.4708 C   0  0  0  0  0  0  0  0  0  0  0  0
   37.7497   15.7476  -10.0059 C   0  0  0  0  0  0  0  0  0  0  0  0
   36.3324   15.5590   -9.5524 N   0  0  0  0  0  0  0  0  0  0  0  0
   35.7989   14.1775   -9.3137 O   0  0  0  0  0  0  0  0  0  0  0  0
   35.2023   16.4970   -9.2471 O   0  0  0  0  0  0  0  0  0  0  0  0
   36.9741   15.6206  -12.4823 N   0  0  0  0  0  0  0  0  0  0  0  0
   35.7657   16.5073  -12.4229 H   0  0  0  0  0  0  0  0  0  0  0  0
   37.0862   14.5762  -13.5530 C   0  0  0  0  0  0  0  0  0  0  0  0
   38.4199   13.9672  -13.8702 C   0  0  0  0  0  0  0  0  0  0  0  0
   38.5318   12.9228  -14.9409 C   0  0  0  0  0  0  0  0  0  0  0  0
   37.3102   12.4873  -15.6946 C   0  0  0  0  0  0  0  0  0  0  0  0
   35.9766   13.0962  -15.3774 C   0  0  0  0  0  0  0  0  0  0  0  0
   35.8646   14.1406  -14.3067 C   0  0  0  0  0  0  0  0  0  0  0  0
   37.4222   11.4428  -16.7653 S   0  0  0  0  0  0  0  0  0  0  0  0
   37.5341   10.3983  -17.8361 C   0  0  0  0  0  0  0  0  0  0  0  0
   38.9176   11.4960  -16.6609 O   0  0  0  0  0  0  0  0  0  0  0  0
   35.9267   11.3896  -16.8698 O   0  0  0  0  0  0  0  0  0  0  0  0
   38.5252   15.8746   -7.5295 O   0  0  0  0  0  0  0  0  0  0  0  0
   38.9806   16.8526   -6.7275 C   0  0  0  0  0  0  0  0  0  0  0  0
   38.0588   17.7751   -7.4686 O   0  0  0  0  0  0  0  0  0  0  0  0
   39.9502   17.0349   -5.5976 N   0  0  0  0  0  0  0  0  0  0  0  0
   40.7994   15.9622   -4.9827 C   0  0  0  0  0  0  0  0  0  0  0  0
   41.6148   16.5862   -3.8893 C   0  0  0  0  0  0  0  0  0  0  0  0
   41.2697   18.0447   -3.8284 C   0  0  0  0  0  0  0  0  0  0  0  0
   40.2409   18.3220   -4.8842 C   0  0  0  0  0  0  0  0  0  0  0  0
   39.2319   18.3061   -6.0072 C   0  0  0  0  0  0  0  0  0  0  0  0
   39.0461   16.9518   -6.6248 C   0  0  0  0  0  0  0  0  0  0  0  0
   39.8298   15.7799   -6.1126 C   0  0  0  0  0  0  0  0  0  0  0  0
   38.7947   15.4984   -7.3452 O   0  0  0  0  0  0  0  0  0  0  0  0
   36.9026   15.5402   -6.3870 C   0  0  0  0  0  0  0  0  0  0  0  0
   37.9246   14.4796   -6.6709 C   0  0  0  0  0  0  0  0  0  0  0  0
   38.9465   13.4189   -6.9547 C   0  0  0  0  0  0  0  0  0  0  0  0
   37.0544   13.4607   -5.9965 C   0  0  0  0  0  0  0  0  0  0  0  0
 34 35  1  0  0  0
 35 36  1  0  0  0
 35 37  1  0  0  0
 35 33  1  0  0  0
 33 23  1  0  0  0
 23 24  2  0  0  0
 23 25  1  0  0  0
 25 26  1  0  0  0
 26 27  1  0  0  0
 27 28  1  0  0  0
 28 29  1  0  0  0
 29 30  1  0  0  0
 30 31  1  0  0  0
 31 22  1  0  0  0
 22  1  1  0  0  0
  1  2  2  0  0  0
  2  3  1  0  0  0
  3  4  2  0  0  0
  4  5  1  0  0  0
  5 10  1  0  0  0
 10 12  1  0  0  0
 12 13  2  0  0  0
 13 14  1  0  0  0
 14 15  2  0  0  0
 15 18  1  0  0  0
 18 19  1  0  0  0
 18 20  2  0  0  0
 18 21  2  0  0  0
 15 16  1  0  0  0
 16 17  2  0  0  0
  5  6  2  0  0  0
  6  7  1  0  0  0
  7  8  2  0  0  0
  7  9  1  0  0  0
 31 32  1  0  0  0
 29 25  1  0  0  0
  6  1  1  0  0  0
 32 26  1  0  0  0
 17 12  1  0  0  0
 10 11  1  0  0  0
M  CHG 1   7   1
M  CHG 1   9  -1
M  END
> <minimizedAffinity>
-7.70741

> <CNNscore>
0.0425548293

> <CNNaffinity>
5.2672882080

> <CNN_VS>
0.2241485566

> <CNNaffinity_variance>
0.3870088458

$$$$
[H]c1nc(OC2([H])C([H])([H])[C@@]3([H])N(C(=O)OC(C([H])([H])[H])(C([H])([H])[H])C([H])([H])[H])[C@]([H])(C2([H])[H])C([H])([H])C3([H])[H])c([N+](=O)[O-])c(N([H])c2c([H])c([H])c(S(=O)(=O)C([H])([H])[H])c([H])c2[H])n1


 37 40  0  0  0  0  0  0  0  0999 V2000
   39.1085   15.6244   -8.4882 C   0  0  0  0  0  0  0  0  0  0  0  0
   40.3872   15.9600   -9.1969 N   0  0  0  0  0  0  0  0  0  0  0  0
   40.3583   16.3846  -10.6353 C   0  0  0  0  0  0  0  0  0  0  0  0
   39.0508   16.4735  -11.3650 N   0  0  0  0  0  0  0  0  0  0  0  0
   37.7721   16.1379  -10.6563 C   0  0  0  0  0  0  0  0  0  0  0  0
   37.8009   15.7134   -9.2180 C   0  0  0  0  0  0  0  0  0  0  0  0
   36.5222   15.3778   -8.5093 N   0  0  0  0  0  0  0  0  0  0  0  0
   35.6991   16.4685   -7.8904 O   0  0  0  0  0  0  0  0  0  0  0  0
   35.7864   14.0994   -8.2366 O   0  0  0  0  0  0  0  0  0  0  0  0
   36.4645   16.2269  -11.3860 N   0  0  0  0  0  0  0  0  0  0  0  0
   35.5219   17.3582  -11.1006 H   0  0  0  0  0  0  0  0  0  0  0  0
   36.0998   15.1845  -12.4010 C   0  0  0  0  0  0  0  0  0  0  0  0
   37.0721   14.8184  -13.4829 C   0  0  0  0  0  0  0  0  0  0  0  0
   36.7072   13.7760  -14.4979 C   0  0  0  0  0  0  0  0  0  0  0  0
   35.3700   13.0996  -14.4310 C   0  0  0  0  0  0  0  0  0  0  0  0
   34.3977   13.4657  -13.3491 C   0  0  0  0  0  0  0  0  0  0  0  0
   34.7625   14.5081  -12.3342 C   0  0  0  0  0  0  0  0  0  0  0  0
   35.0052   12.0572  -15.4460 S   0  0  0  0  0  0  0  0  0  0  0  0
   34.6403   11.0148  -16.4611 C   0  0  0  0  0  0  0  0  0  0  0  0
   33.7033   11.8239  -14.7385 O   0  0  0  0  0  0  0  0  0  0  0  0
   36.3071   12.2905  -16.1536 O   0  0  0  0  0  0  0  0  0  0  0  0
   39.1372   15.1999   -7.0499 O   0  0  0  0  0  0  0  0  0  0  0  0
   39.9151   14.1706   -6.6721 C   0  0  0  0  0  0  0  0  0  0  0  0
   38.8668   13.2720   -7.2582 O   0  0  0  0  0  0  0  0  0  0  0  0
   41.2267   13.9315   -5.9846 N   0  0  0  0  0  0  0  0  0  0  0  0
   42.1519   14.9885   -5.4583 C   0  0  0  0  0  0  0  0  0  0  0  0
   43.3403   14.3037   -4.8512 C   0  0  0  0  0  0  0  0  0  0  0  0
   43.1497   12.8236   -5.0022 C   0  0  0  0  0  0  0  0  0  0  0  0
   41.8434   12.5936   -5.7027 C   0  0  0  0  0  0  0  0  0  0  0  0
   40.5100   12.6638   -6.4074 C   0  0  0  0  0  0  0  0  0  0  0  0
   40.0194   14.0653   -6.6203 C   0  0  0  0  0  0  0  0  0  0  0  0
   40.8403   15.2275   -6.1458 C   0  0  0  0  0  0  0  0  0  0  0  0
   39.4244   15.5720   -6.8850 O   0  0  0  0  0  0  0  0  0  0  0  0
   37.8656   15.0726   -5.5356 C   0  0  0  0  0  0  0  0  0  0  0  0
   38.7056   16.2907   -5.7820 C   0  0  0  0  0  0  0  0  0  0  0  0
   39.5456   17.5088   -6.0283 C   0  0  0  0  0  0  0  0  0  0  0  0
   37.9868   17.0094   -4.6789 C   0  0  0  0  0  0  0  0  0  0  0  0
 34 35  1  0  0  0
 35 36  1  0  0  0
 35 37  1  0  0  0
 35 33  1  0  0  0
 33 23  1  0  0  0
 23 24  2  0  0  0
 23 25  1  0  0  0
 25 26  1  0  0  0
 26 27  1  0  0  0
 27 28  1  0  0  0
 28 29  1  0  0  0
 29 30  1  0  0  0
 30 31  1  0  0  0
 31 22  1  0  0  0
 22  1  1  0  0  0
  1  2  2  0  0  0
  2  3  1  0  0  0
  3  4  2  0  0  0
  4  5  1  0  0  0
  5 10  1  0  0  0
 10 12  1  0  0  0
 12 13  2  0  0  0
 13 14  1  0  0  0
 14 15  2  0  0  0
 15 18  1  0  0  0
 18 19  1  0  0  0
 18 20  2  0  0  0
 18 21  2  0  0  0
 15 16  1  0  0  0
 16 17  2  0  0  0
  5  6  2  0  0  0
  6  7  1  0  0  0
  7  8  2  0  0  0
  7  9  1  0  0  0
 31 32  1  0  0  0
 29 25  1  0  0  0
  6  1  1  0  0  0
 32 26  1  0  0  0
 17 12  1  0  0  0
 10 11  1  0  0  0
M  CHG 1   7   1
M  CHG 1   9  -1
M  END
> <minimizedAffinity>
-7.67352

> <CNNscore>
0.0421019718

> <CNNaffinity>
5.4715528488

> <CNN_VS>
0.2303631604

> <CNNaffinity_variance>
0.3411917090

$$$$
[H]c1nc(OC2([H])C([H])([H])[C@@]3([H])N(C(=O)OC(C([H])([H])[H])(C([H])([H])[H])C([H])([H])[H])[C@]([H])(C2([H])[H])C([H])([H])C3([H])[H])c([N+](=O)[O-])c(N([H])c2c([H])c([H])c(S(=O)(=O)C([H])([H])[H])c([H])c2[H])n1


 37 40  0  0  0  0  0  0  0  0999 V2000
   39.8827   15.3321   -8.2430 C   0  0  0  0  0  0  0  0  0  0  0  0
   41.1499   15.6713   -8.9704 N   0  0  0  0  0  0  0  0  0  0  0  0
   41.0886   16.3304  -10.3164 C   0  0  0  0  0  0  0  0  0  0  0  0
   39.7601   16.6505  -10.9350 N   0  0  0  0  0  0  0  0  0  0  0  0
   38.4929   16.3114  -10.2076 C   0  0  0  0  0  0  0  0  0  0  0  0
   38.5541   15.6522   -8.8617 C   0  0  0  0  0  0  0  0  0  0  0  0
   37.2869   15.3131   -8.1343 N   0  0  0  0  0  0  0  0  0  0  0  0
   36.6364   16.3319   -7.2460 O   0  0  0  0  0  0  0  0  0  0  0  0
   36.4206   14.0906   -8.0646 O   0  0  0  0  0  0  0  0  0  0  0  0
   37.1644   16.6315  -10.8263 N   0  0  0  0  0  0  0  0  0  0  0  0
   36.4848   17.9314  -10.5127 H   0  0  0  0  0  0  0  0  0  0  0  0
   36.5156   15.6516  -11.7584 C   0  0  0  0  0  0  0  0  0  0  0  0
   37.3415   14.9299  -12.7816 C   0  0  0  0  0  0  0  0  0  0  0  0
   36.6926   13.9500  -13.7136 C   0  0  0  0  0  0  0  0  0  0  0  0
   35.2177   13.6919  -13.6225 C   0  0  0  0  0  0  0  0  0  0  0  0
   34.3918   14.4136  -12.5993 C   0  0  0  0  0  0  0  0  0  0  0  0
   35.0407   15.3935  -11.6672 C   0  0  0  0  0  0  0  0  0  0  0  0
   34.5689   12.7120  -14.5545 S   0  0  0  0  0  0  0  0  0  0  0  0
   33.9199   11.7321  -15.4867 C   0  0  0  0  0  0  0  0  0  0  0  0
   35.8987   12.0619  -14.7970 O   0  0  0  0  0  0  0  0  0  0  0  0
   33.2389   13.3621  -14.3121 O   0  0  0  0  0  0  0  0  0  0  0  0
   39.9438   14.6730   -6.8970 O   0  0  0  0  0  0  0  0  0  0  0  0
   40.6584   13.5453   -6.7389 C   0  0  0  0  0  0  0  0  0  0  0  0
   39.6043   12.8618   -7.5585 O   0  0  0  0  0  0  0  0  0  0  0  0
   41.9229   13.0863   -6.0753 N   0  0  0  0  0  0  0  0  0  0  0  0
   42.8637   13.9439   -5.2819 C   0  0  0  0  0  0  0  0  0  0  0  0
   43.9908   13.0767   -4.8048 C   0  0  0  0  0  0  0  0  0  0  0  0
   43.7466   11.6832   -5.3032 C   0  0  0  0  0  0  0  0  0  0  0  0
   42.4685   11.6892   -6.0884 C   0  0  0  0  0  0  0  0  0  0  0  0
   41.1762   11.9892   -6.8089 C   0  0  0  0  0  0  0  0  0  0  0  0
   40.7555   13.4256   -6.7091 C   0  0  0  0  0  0  0  0  0  0  0  0
   41.5992   14.4029   -5.9456 C   0  0  0  0  0  0  0  0  0  0  0  0
   40.2377   14.9816   -6.6391 O   0  0  0  0  0  0  0  0  0  0  0  0
   38.7011   14.2611   -5.3663 C   0  0  0  0  0  0  0  0  0  0  0  0
   39.5709   15.4829   -5.3924 C   0  0  0  0  0  0  0  0  0  0  0  0
   40.4407   16.7047   -5.4185 C   0  0  0  0  0  0  0  0  0  0  0  0
   38.9042   15.9842   -4.1457 C   0  0  0  0  0  0  0  0  0  0  0  0
 34 35  1  0  0  0
 35 36  1  0  0  0
 35 37  1  0  0  0
 35 33  1  0  0  0
 33 23  1  0  0  0
 23 24  2  0  0  0
 23 25  1  0  0  0
 25 26  1  0  0  0
 26 27  1  0  0  0
 27 28  1  0  0  0
 28 29  1  0  0  0
 29 30  1  0  0  0
 30 31  1  0  0  0
 31 22  1  0  0  0
 22  1  1  0  0  0
  1  2  2  0  0  0
  2  3  1  0  0  0
  3  4  2  0  0  0
  4  5  1  0  0  0
  5 10  1  0  0  0
 10 12  1  0  0  0
 12 13  2  0  0  0
 13 14  1  0  0  0
 14 15  2  0  0  0
 15 18  1  0  0  0
 18 19  1  0  0  0
 18 20  2  0  0  0
 18 21  2  0  0  0
 15 16  1  0  0  0
 16 17  2  0  0  0
  5  6  2  0  0  0
  6  7  1  0  0  0
  7  8  2  0  0  0
  7  9  1  0  0  0
 31 32  1  0  0  0
 29 25  1  0  0  0
  6  1  1  0  0  0
 32 26  1  0  0  0
 17 12  1  0  0  0
 10 11  1  0  0  0
M  CHG 1   7   1
M  CHG 1   9  -1
M  END
> <minimizedAffinity>
-7.42324

> <CNNscore>
0.0417690091

> <CNNaffinity>
5.2232046127

> <CNN_VS>
0.2181680799

> <CNNaffinity_variance>
0.4472188354

$$$$
[H]c1nc(OC2([H])C([H])([H])[C@@]3([H])N(C(=O)OC(C([H])([H])[H])(C([H])([H])[H])C([H])([H])[H])[C@]([H])(C2([H])[H])C([H])([H])C3([H])[H])c([N+](=O)[O-])c(N([H])c2c([H])c([H])c(S(=O)(=O)C([H])([H])[H])c([H])c2[H])n1


 37 40  0  0  0  0  0  0  0  0999 V2000
   39.1115   15.6495   -8.4040 C   0  0  0  0  0  0  0  0  0  0  0  0
   40.4008   15.9863   -9.0927 N   0  0  0  0  0  0  0  0  0  0  0  0
   40.3922   16.4284  -10.5260 C   0  0  0  0  0  0  0  0  0  0  0  0
   39.0944   16.5337  -11.2707 N   0  0  0  0  0  0  0  0  0  0  0  0
   37.8051   16.1969  -10.5820 C   0  0  0  0  0  0  0  0  0  0  0  0
   37.8136   15.7548   -9.1487 C   0  0  0  0  0  0  0  0  0  0  0  0
   36.5243   15.4180   -8.4601 N   0  0  0  0  0  0  0  0  0  0  0  0
   35.7007   16.5057   -7.8366 O   0  0  0  0  0  0  0  0  0  0  0  0
   35.7772   14.1409   -8.2135 O   0  0  0  0  0  0  0  0  0  0  0  0
   36.5073   16.3023  -11.3268 N   0  0  0  0  0  0  0  0  0  0  0  0
   35.5812   17.4519  -11.0608 H   0  0  0  0  0  0  0  0  0  0  0  0
   36.1356   15.2580  -12.3374 C   0  0  0  0  0  0  0  0  0  0  0  0
   37.1313   14.8298  -13.3744 C   0  0  0  0  0  0  0  0  0  0  0  0
   36.7596   13.7855  -14.3849 C   0  0  0  0  0  0  0  0  0  0  0  0
   35.3922   13.1693  -14.3585 C   0  0  0  0  0  0  0  0  0  0  0  0
   34.3966   13.5975  -13.3214 C   0  0  0  0  0  0  0  0  0  0  0  0
   34.7683   14.6418  -12.3109 C   0  0  0  0  0  0  0  0  0  0  0  0
   35.0205   12.1250  -15.3690 S   0  0  0  0  0  0  0  0  0  0  0  0
   34.6487   11.0806  -16.3796 C   0  0  0  0  0  0  0  0  0  0  0  0
   36.2920   12.3963  -16.1172 O   0  0  0  0  0  0  0  0  0  0  0  0
   33.7490   11.8536  -14.6209 O   0  0  0  0  0  0  0  0  0  0  0  0
   39.1199   15.2074   -6.9707 O   0  0  0  0  0  0  0  0  0  0  0  0
   39.8756   14.1599   -6.5980 C   0  0  0  0  0  0  0  0  0  0  0  0
   38.7905   13.2861   -7.1538 O   0  0  0  0  0  0  0  0  0  0  0  0
   41.1935   13.8900   -5.9345 N   0  0  0  0  0  0  0  0  0  0  0  0
   42.1589   14.9249   -5.4377 C   0  0  0  0  0  0  0  0  0  0  0  0
   43.3395   14.2122   -4.8474 C   0  0  0  0  0  0  0  0  0  0  0  0
   43.1037   12.7368   -4.9794 C   0  0  0  0  0  0  0  0  0  0  0  0
   41.7774   12.5376   -5.6512 C   0  0  0  0  0  0  0  0  0  0  0  0
   40.4326   12.6393   -6.3298 C   0  0  0  0  0  0  0  0  0  0  0  0
   39.9779   14.0521   -6.5472 C   0  0  0  0  0  0  0  0  0  0  0  0
   40.8410   15.1949   -6.1012 C   0  0  0  0  0  0  0  0  0  0  0  0
   39.4209   15.5727   -6.8154 O   0  0  0  0  0  0  0  0  0  0  0  0
   39.5971   17.5073   -5.9632 C   0  0  0  0  0  0  0  0  0  0  0  0
   38.7231   16.3140   -5.7138 C   0  0  0  0  0  0  0  0  0  0  0  0
   37.8492   15.1207   -5.4643 C   0  0  0  0  0  0  0  0  0  0  0  0
   38.0254   17.0553   -4.6121 C   0  0  0  0  0  0  0  0  0  0  0  0
 34 35  1  0  0  0
 35 36  1  0  0  0
 35 37  1  0  0  0
 35 33  1  0  0  0
 33 23  1  0  0  0
 23 24  2  0  0  0
 23 25  1  0  0  0
 25 26  1  0  0  0
 26 27  1  0  0  0
 27 28  1  0  0  0
 28 29  1  0  0  0
 29 30  1  0  0  0
 30 31  1  0  0  0
 31 22  1  0  0  0
 22  1  1  0  0  0
  1  2  2  0  0  0
  2  3  1  0  0  0
  3  4  2  0  0  0
  4  5  1  0  0  0
  5 10  1  0  0  0
 10 12  1  0  0  0
 12 13  2  0  0  0
 13 14  1  0  0  0
 14 15  2  0  0  0
 15 18  1  0  0  0
 18 19  1  0  0  0
 18 20  2  0  0  0
 18 21  2  0  0  0
 15 16  1  0  0  0
 16 17  2  0  0  0
  5  6  2  0  0  0
  6  7  1  0  0  0
  7  8  2  0  0  0
  7  9  1  0  0  0
 31 32  1  0  0  0
 29 25  1  0  0  0
  6  1  1  0  0  0
 32 26  1  0  0  0
 17 12  1  0  0  0
 10 11  1  0  0  0
M  CHG 1   7   1
M  CHG 1   9  -1
M  END
> <minimizedAffinity>
-7.67203

> <CNNscore>
0.0384698659

> <CNNaffinity>
5.4488344193

> <CNN_VS>
0.2096159309

> <CNNaffinity_variance>
0.3622279763

$$$$
[H]c1c([H])c(N([H])c2nc(N3C([H])([H])C([H])([H])C([H])([H])C3([H])[H])c3c([H])c([H])c([H])c([H])c3n2)c([H])c([H])c1OC([H])([H])[H]


 25 28  0  0  0  0  0  0  0  0999 V2000
   40.1013   13.1095  -15.0962 C   0  0  0  0  0  0  0  0  0  0  0  0
   38.9585   13.3744  -14.4578 N   0  0  0  0  0  0  0  0  0  0  0  0
   37.7558   12.8988  -14.8408 C   0  0  0  0  0  0  0  0  0  0  0  0
   37.7068   12.0942  -15.9563 C   0  0  0  0  0  0  0  0  0  0  0  0
   36.5241   11.5796  -16.4175 C   0  0  0  0  0  0  0  0  0  0  0  0
   36.5436   10.7837  -17.5500 C   0  0  0  0  0  0  0  0  0  0  0  0
   37.6971   10.4904  -18.2276 C   0  0  0  0  0  0  0  0  0  0  0  0
   38.8864   10.9969  -17.7813 C   0  0  0  0  0  0  0  0  0  0  0  0
   38.8896   11.8012  -16.6428 C   0  0  0  0  0  0  0  0  0  0  0  0
   40.0232   12.3279  -16.1710 N   0  0  0  0  0  0  0  0  0  0  0  0
   36.5941   13.2114  -14.0728 N   0  0  0  0  0  0  0  0  0  0  0  0
   35.7643   14.3676  -14.1894 C   0  0  0  0  0  0  0  0  0  0  0  0
   34.4125   13.9738  -13.5893 C   0  0  0  0  0  0  0  0  0  0  0  0
   34.5541   12.5113  -13.3306 C   0  0  0  0  0  0  0  0  0  0  0  0
   36.0515   12.3777  -13.0267 C   0  0  0  0  0  0  0  0  0  0  0  0
   41.3114   13.6663  -14.6319 N   0  0  0  0  0  0  0  0  0  0  0  0
   41.2012   14.4576  -13.9277 H   0  0  0  0  0  0  0  0  0  0  0  0
   45.3786   12.7144  -15.4528 C   0  0  0  0  0  0  0  0  0  0  0  0
   44.4041   12.4464  -16.3800 C   0  0  0  0  0  0  0  0  0  0  0  0
   43.0490   12.7357  -16.1476 C   0  0  0  0  0  0  0  0  0  0  0  0
   42.6296   13.3054  -14.9738 C   0  0  0  0  0  0  0  0  0  0  0  0
   43.6422   13.5717  -14.0372 C   0  0  0  0  0  0  0  0  0  0  0  0
   44.9660   13.2853  -14.2722 C   0  0  0  0  0  0  0  0  0  0  0  0
   47.7378   13.1473  -15.0447 C   0  0  0  0  0  0  0  0  0  0  0  0
   46.7119   12.4234  -15.6964 O   0  0  0  0  0  0  0  0  0  0  0  0
 24 25  1  0  0  0
 25 18  1  0  0  0
 18 19  2  0  0  0
 19 20  1  0  0  0
 20 21  2  0  0  0
 21 16  1  0  0  0
 16  1  1  0  0  0
  1  2  2  0  0  0
  2  3  1  0  0  0
  3 11  1  0  0  0
 11 12  1  0  0  0
 12 13  1  0  0  0
 13 14  1  0  0  0
 14 15  1  0  0  0
  3  4  2  0  0  0
  4  5  1  0  0  0
  5  6  2  0  0  0
  6  7  1  0  0  0
  7  8  2  0  0  0
  8  9  1  0  0  0
  9 10  2  0  0  0
 21 22  1  0  0  0
 22 23  2  0  0  0
 23 18  1  0  0  0
 10  1  1  0  0  0
 15 11  1  0  0  0
  9  4  1  0  0  0
 16 17  1  0  0  0
M  END
> <minimizedAffinity>
-8.85665

> <CNNscore>
0.5334146023

> <CNNaffinity>
6.6102118492

> <CNN_VS>
3.5259835720

> <CNNaffinity_variance>
0.1741570979

$$$$
[H]c1c([H])c(N([H])c2nc(N3C([H])([H])C([H])([H])C([H])([H])C3([H])[H])c3c([H])c([H])c([H])c([H])c3n2)c([H])c([H])c1OC([H])([H])[H]


 25 28  0  0  0  0  0  0  0  0999 V2000
   38.4039   12.3821  -16.1027 C   0  0  0  0  0  0  0  0  0  0  0  0
   37.9732   13.0679  -15.0407 N   0  0  0  0  0  0  0  0  0  0  0  0
   36.7098   13.0119  -14.5716 C   0  0  0  0  0  0  0  0  0  0  0  0
   35.8140   12.2000  -15.2291 C   0  0  0  0  0  0  0  0  0  0  0  0
   34.5099   12.0954  -14.8234 C   0  0  0  0  0  0  0  0  0  0  0  0
   33.6584   11.2668  -15.5340 C   0  0  0  0  0  0  0  0  0  0  0  0
   34.0671   10.5482  -16.6259 C   0  0  0  0  0  0  0  0  0  0  0  0
   35.3655   10.6420  -17.0450 C   0  0  0  0  0  0  0  0  0  0  0  0
   36.2399   11.4709  -16.3441 C   0  0  0  0  0  0  0  0  0  0  0  0
   37.5156   11.6045  -16.7179 N   0  0  0  0  0  0  0  0  0  0  0  0
   36.3535   13.7577  -13.4080 N   0  0  0  0  0  0  0  0  0  0  0  0
   36.0638   13.2461  -12.1067 C   0  0  0  0  0  0  0  0  0  0  0  0
   36.3007   14.4079  -11.1389 C   0  0  0  0  0  0  0  0  0  0  0  0
   36.8936   15.4706  -12.0022 C   0  0  0  0  0  0  0  0  0  0  0  0
   36.2323   15.1953  -13.3583 C   0  0  0  0  0  0  0  0  0  0  0  0
   39.7410   12.5169  -16.5318 N   0  0  0  0  0  0  0  0  0  0  0  0
   39.9089   12.2894  -17.5585 H   0  0  0  0  0  0  0  0  0  0  0  0
   43.2897   13.5862  -14.4375 C   0  0  0  0  0  0  0  0  0  0  0  0
   42.0586   13.8424  -13.8896 C   0  0  0  0  0  0  0  0  0  0  0  0
   40.8622   13.5146  -14.5493 C   0  0  0  0  0  0  0  0  0  0  0  0
   40.8650   12.9170  -15.7826 C   0  0  0  0  0  0  0  0  0  0  0  0
   42.1351   12.6633  -16.3267 C   0  0  0  0  0  0  0  0  0  0  0  0
   43.3012   12.9875  -15.6749 C   0  0  0  0  0  0  0  0  0  0  0  0
   44.8141   15.2690  -13.5636 C   0  0  0  0  0  0  0  0  0  0  0  0
   44.4618   13.9153  -13.7746 O   0  0  0  0  0  0  0  0  0  0  0  0
 24 25  1  0  0  0
 25 18  1  0  0  0
 18 19  2  0  0  0
 19 20  1  0  0  0
 20 21  2  0  0  0
 21 16  1  0  0  0
 16  1  1  0  0  0
  1  2  2  0  0  0
  2  3  1  0  0  0
  3 11  1  0  0  0
 11 12  1  0  0  0
 12 13  1  0  0  0
 13 14  1  0  0  0
 14 15  1  0  0  0
  3  4  2  0  0  0
  4  5  1  0  0  0
  5  6  2  0  0  0
  6  7  1  0  0  0
  7  8  2  0  0  0
  8  9  1  0  0  0
  9 10  2  0  0  0
 21 22  1  0  0  0
 22 23  2  0  0  0
 23 18  1  0  0  0
 10  1  1  0  0  0
 15 11  1  0  0  0
  9  4  1  0  0  0
 16 17  1  0  0  0
M  END
> <minimizedAffinity>
-8.34721

> <CNNscore>
0.4928117394

> <CNNaffinity>
6.5101423264

> <CNN_VS>
3.2082746029

> <CNNaffinity_variance>
0.1496977359

$$$$
[H]c1c([H])c(N([H])c2nc(N3C([H])([H])C([H])([H])C([H])([H])C3([H])[H])c3c([H])c([H])c([H])c([H])c3n2)c([H])c([H])c1OC([H])([H])[H]


 25 28  0  0  0  0  0  0  0  0999 V2000
   40.4534   13.0047  -15.4275 C   0  0  0  0  0  0  0  0  0  0  0  0
   39.3948   13.3086  -14.6721 N   0  0  0  0  0  0  0  0  0  0  0  0
   38.1418   12.8785  -14.9260 C   0  0  0  0  0  0  0  0  0  0  0  0
   37.9460   12.0804  -16.0299 C   0  0  0  0  0  0  0  0  0  0  0  0
   36.7032   11.6110  -16.3637 C   0  0  0  0  0  0  0  0  0  0  0  0
   36.5740   10.8191  -17.4918 C   0  0  0  0  0  0  0  0  0  0  0  0
   37.6381   10.4867  -18.2874 C   0  0  0  0  0  0  0  0  0  0  0  0
   38.8856   10.9479  -17.9691 C   0  0  0  0  0  0  0  0  0  0  0  0
   39.0383   11.7472  -16.8374 C   0  0  0  0  0  0  0  0  0  0  0  0
   40.2339   12.2305  -16.4880 N   0  0  0  0  0  0  0  0  0  0  0  0
   37.0798   13.2303  -14.0396 N   0  0  0  0  0  0  0  0  0  0  0  0
   36.2506   14.3912  -14.0996 C   0  0  0  0  0  0  0  0  0  0  0  0
   34.9751   14.0335  -13.3330 C   0  0  0  0  0  0  0  0  0  0  0  0
   35.1352   12.5790  -13.0412 C   0  0  0  0  0  0  0  0  0  0  0  0
   36.6567   12.4390  -12.9088 C   0  0  0  0  0  0  0  0  0  0  0  0
   41.7253   13.5153  -15.0936 N   0  0  0  0  0  0  0  0  0  0  0  0
   42.4041   13.6005  -15.9098 H   0  0  0  0  0  0  0  0  0  0  0  0
   43.0201   14.9873  -11.3148 C   0  0  0  0  0  0  0  0  0  0  0  0
   43.6111   13.8788  -11.8655 C   0  0  0  0  0  0  0  0  0  0  0  0
   43.2097   13.3538  -13.1054 C   0  0  0  0  0  0  0  0  0  0  0  0
   42.2001   13.9279  -13.8330 C   0  0  0  0  0  0  0  0  0  0  0  0
   41.6075   15.0614  -13.2521 C   0  0  0  0  0  0  0  0  0  0  0  0
   42.0059   15.5686  -12.0382 C   0  0  0  0  0  0  0  0  0  0  0  0
   42.5071   16.1544   -9.2426 C   0  0  0  0  0  0  0  0  0  0  0  0
   43.4270   15.4939  -10.0903 O   0  0  0  0  0  0  0  0  0  0  0  0
 24 25  1  0  0  0
 25 18  1  0  0  0
 18 19  2  0  0  0
 19 20  1  0  0  0
 20 21  2  0  0  0
 21 16  1  0  0  0
 16  1  1  0  0  0
  1  2  2  0  0  0
  2  3  1  0  0  0
  3 11  1  0  0  0
 11 12  1  0  0  0
 12 13  1  0  0  0
 13 14  1  0  0  0
 14 15  1  0  0  0
  3  4  2  0  0  0
  4  5  1  0  0  0
  5  6  2  0  0  0
  6  7  1  0  0  0
  7  8  2  0  0  0
  8  9  1  0  0  0
  9 10  2  0  0  0
 21 22  1  0  0  0
 22 23  2  0  0  0
 23 18  1  0  0  0
 10  1  1  0  0  0
 15 11  1  0  0  0
  9  4  1  0  0  0
 16 17  1  0  0  0
M  END
> <minimizedAffinity>
-7.94092

> <CNNscore>
0.4149884582

> <CNNaffinity>
6.3134555817

> <CNN_VS>
2.6200110912

> <CNNaffinity_variance>
0.4236806035

$$$$
[H]c1c([H])c(N([H])c2nc(N3C([H])([H])C([H])([H])C([H])([H])C3([H])[H])c3c([H])c([H])c([H])c([H])c3n2)c([H])c([H])c1OC([H])([H])[H]


 25 28  0  0  0  0  0  0  0  0999 V2000
   40.5598   13.2703  -15.1344 C   0  0  0  0  0  0  0  0  0  0  0  0
   39.3718   13.3673  -14.5320 N   0  0  0  0  0  0  0  0  0  0  0  0
   38.2442   12.7910  -14.9966 C   0  0  0  0  0  0  0  0  0  0  0  0
   38.3260   12.0617  -16.1607 C   0  0  0  0  0  0  0  0  0  0  0  0
   37.2255   11.4542  -16.7048 C   0  0  0  0  0  0  0  0  0  0  0  0
   37.3750   10.7419  -17.8824 C   0  0  0  0  0  0  0  0  0  0  0  0
   38.5783   10.6206  -18.5252 C   0  0  0  0  0  0  0  0  0  0  0  0
   39.6869   11.2218  -17.9962 C   0  0  0  0  0  0  0  0  0  0  0  0
   39.5586   11.9444  -16.8110 C   0  0  0  0  0  0  0  0  0  0  0  0
   40.6088   12.5579  -16.2579 N   0  0  0  0  0  0  0  0  0  0  0  0
   37.0272   12.9247  -14.2628 N   0  0  0  0  0  0  0  0  0  0  0  0
   36.6195   12.1749  -13.1181 C   0  0  0  0  0  0  0  0  0  0  0  0
   35.5777   13.0382  -12.4026 C   0  0  0  0  0  0  0  0  0  0  0  0
   35.6174   14.3296  -13.1488 C   0  0  0  0  0  0  0  0  0  0  0  0
   35.9842   13.8752  -14.5669 C   0  0  0  0  0  0  0  0  0  0  0  0
   41.6828   13.9224  -14.5834 N   0  0  0  0  0  0  0  0  0  0  0  0
   41.4613   14.7922  -14.0101 H   0  0  0  0  0  0  0  0  0  0  0  0
   45.7415   12.7732  -15.1566 C   0  0  0  0  0  0  0  0  0  0  0  0
   45.2739   13.0591  -13.8993 C   0  0  0  0  0  0  0  0  0  0  0  0
   43.9449   13.4505  -13.6654 C   0  0  0  0  0  0  0  0  0  0  0  0
   43.0417   13.5666  -14.6897 C   0  0  0  0  0  0  0  0  0  0  0  0
   43.5399   13.2700  -15.9693 C   0  0  0  0  0  0  0  0  0  0  0  0
   44.8419   12.8880  -16.1898 C   0  0  0  0  0  0  0  0  0  0  0  0
   48.0974   12.8973  -14.5618 C   0  0  0  0  0  0  0  0  0  0  0  0
   47.0556   12.3881  -15.3720 O   0  0  0  0  0  0  0  0  0  0  0  0
 24 25  1  0  0  0
 25 18  1  0  0  0
 18 19  2  0  0  0
 19 20  1  0  0  0
 20 21  2  0  0  0
 21 16  1  0  0  0
 16  1  1  0  0  0
  1  2  2  0  0  0
  2  3  1  0  0  0
  3 11  1  0  0  0
 11 12  1  0  0  0
 12 13  1  0  0  0
 13 14  1  0  0  0
 14 15  1  0  0  0
  3  4  2  0  0  0
  4  5  1  0  0  0
  5  6  2  0  0  0
  6  7  1  0  0  0
  7  8  2  0  0  0
  8  9  1  0  0  0
  9 10  2  0  0  0
 21 22  1  0  0  0
 22 23  2  0  0  0
 23 18  1  0  0  0
 10  1  1  0  0  0
 15 11  1  0  0  0
  9  4  1  0  0  0
 16 17  1  0  0  0
M  END
> <minimizedAffinity>
-8.30900

> <CNNscore>
0.4092228115

> <CNNaffinity>
6.3660101891

> <CNN_VS>
2.6051166058

> <CNNaffinity_variance>
0.1149270907

$$$$
[H]c1c([H])c(N([H])c2nc(N3C([H])([H])C([H])([H])C([H])([H])C3([H])[H])c3c([H])c([H])c([H])c([H])c3n2)c([H])c([H])c1OC([H])([H])[H]


 25 28  0  0  0  0  0  0  0  0999 V2000
   39.2807   12.8165  -15.5539 C   0  0  0  0  0  0  0  0  0  0  0  0
   38.5910   13.3968  -14.5683 N   0  0  0  0  0  0  0  0  0  0  0  0
   37.2641   13.2386  -14.3850 C   0  0  0  0  0  0  0  0  0  0  0  0
   36.5836   12.4317  -15.2681 C   0  0  0  0  0  0  0  0  0  0  0  0
   35.2335   12.2276  -15.1582 C   0  0  0  0  0  0  0  0  0  0  0  0
   34.6085   11.4104  -16.0845 C   0  0  0  0  0  0  0  0  0  0  0  0
   35.2852   10.7984  -17.1060 C   0  0  0  0  0  0  0  0  0  0  0  0
   36.6332   10.9924  -17.2308 C   0  0  0  0  0  0  0  0  0  0  0  0
   37.2825   11.8119  -16.3089 C   0  0  0  0  0  0  0  0  0  0  0  0
   38.5962   12.0410  -16.3919 N   0  0  0  0  0  0  0  0  0  0  0  0
   36.6215   13.8750  -13.2808 N   0  0  0  0  0  0  0  0  0  0  0  0
   36.1446   13.2590  -12.0841 C   0  0  0  0  0  0  0  0  0  0  0  0
   36.0767   14.3747  -11.0385 C   0  0  0  0  0  0  0  0  0  0  0  0
   36.7118   15.5385  -11.7229 C   0  0  0  0  0  0  0  0  0  0  0  0
   36.3492   15.2898  -13.1922 C   0  0  0  0  0  0  0  0  0  0  0  0
   40.6656   13.0542  -15.6775 N   0  0  0  0  0  0  0  0  0  0  0  0
   41.0786   12.8205  -16.6309 H   0  0  0  0  0  0  0  0  0  0  0  0
   43.1793   14.7815  -12.7075 C   0  0  0  0  0  0  0  0  0  0  0  0
   43.6668   13.8160  -13.5511 C   0  0  0  0  0  0  0  0  0  0  0  0
   42.8705   13.2130  -14.5392 C   0  0  0  0  0  0  0  0  0  0  0  0
   41.5566   13.5624  -14.7118 C   0  0  0  0  0  0  0  0  0  0  0  0
   41.0762   14.5522  -13.8383 C   0  0  0  0  0  0  0  0  0  0  0  0
   41.8618   15.1371  -12.8737 C   0  0  0  0  0  0  0  0  0  0  0  0
   43.4035   16.1598  -10.7153 C   0  0  0  0  0  0  0  0  0  0  0  0
   43.9771   15.3675  -11.7372 O   0  0  0  0  0  0  0  0  0  0  0  0
 24 25  1  0  0  0
 25 18  1  0  0  0
 18 19  2  0  0  0
 19 20  1  0  0  0
 20 21  2  0  0  0
 21 16  1  0  0  0
 16  1  1  0  0  0
  1  2  2  0  0  0
  2  3  1  0  0  0
  3 11  1  0  0  0
 11 12  1  0  0  0
 12 13  1  0  0  0
 13 14  1  0  0  0
 14 15  1  0  0  0
  3  4  2  0  0  0
  4  5  1  0  0  0
  5  6  2  0  0  0
  6  7  1  0  0  0
  7  8  2  0  0  0
  8  9  1  0  0  0
  9 10  2  0  0  0
 21 22  1  0  0  0
 22 23  2  0  0  0
 23 18  1  0  0  0
 10  1  1  0  0  0
 15 11  1  0  0  0
  9  4  1  0  0  0
 16 17  1  0  0  0
M  END
> <minimizedAffinity>
-7.51178

> <CNNscore>
0.2888541222

> <CNNaffinity>
6.1429929733

> <CNN_VS>
1.7744288445

> <CNNaffinity_variance>
0.2640017271

$$$$
[H]c1c([H])c(N([H])c2nc(N3C([H])([H])C([H])([H])C([H])([H])C3([H])[H])c3c([H])c([H])c([H])c([H])c3n2)c([H])c([H])c1OC([H])([H])[H]


 25 28  0  0  0  0  0  0  0  0999 V2000
   39.1162   12.9559  -15.4400 C   0  0  0  0  0  0  0  0  0  0  0  0
   37.9744   12.4367  -15.8989 N   0  0  0  0  0  0  0  0  0  0  0  0
   36.8034   12.4883  -15.2315 C   0  0  0  0  0  0  0  0  0  0  0  0
   36.7879   13.1126  -14.0052 C   0  0  0  0  0  0  0  0  0  0  0  0
   35.6425   13.1984  -13.2589 C   0  0  0  0  0  0  0  0  0  0  0  0
   35.6973   13.8330  -12.0298 C   0  0  0  0  0  0  0  0  0  0  0  0
   36.8502   14.3778  -11.5299 C   0  0  0  0  0  0  0  0  0  0  0  0
   38.0030   14.3000  -12.2616 C   0  0  0  0  0  0  0  0  0  0  0  0
   37.9702   13.6649  -13.5020 C   0  0  0  0  0  0  0  0  0  0  0  0
   39.0706   13.5543  -14.2517 N   0  0  0  0  0  0  0  0  0  0  0  0
   35.6281   11.9327  -15.8208 N   0  0  0  0  0  0  0  0  0  0  0  0
   35.5591   10.9277  -16.8327 C   0  0  0  0  0  0  0  0  0  0  0  0
   34.1676   10.3028  -16.7066 C   0  0  0  0  0  0  0  0  0  0  0  0
   33.6133   10.9235  -15.4682 C   0  0  0  0  0  0  0  0  0  0  0  0
   34.2782   12.3056  -15.4709 C   0  0  0  0  0  0  0  0  0  0  0  0
   40.2980   12.8385  -16.2013 N   0  0  0  0  0  0  0  0  0  0  0  0
   40.1475   12.6629  -17.2409 H   0  0  0  0  0  0  0  0  0  0  0  0
   44.2515   13.2798  -14.6856 C   0  0  0  0  0  0  0  0  0  0  0  0
   44.0396   12.6901  -15.9057 C   0  0  0  0  0  0  0  0  0  0  0  0
   42.7518   12.5162  -16.4401 C   0  0  0  0  0  0  0  0  0  0  0  0
   41.6341   12.9310  -15.7643 C   0  0  0  0  0  0  0  0  0  0  0  0
   41.8720   13.5320  -14.5170 C   0  0  0  0  0  0  0  0  0  0  0  0
   43.1352   13.6981  -14.0009 C   0  0  0  0  0  0  0  0  0  0  0  0
   46.6656   13.2249  -14.9829 C   0  0  0  0  0  0  0  0  0  0  0  0
   45.5281   13.4446  -14.1712 O   0  0  0  0  0  0  0  0  0  0  0  0
 24 25  1  0  0  0
 25 18  1  0  0  0
 18 19  2  0  0  0
 19 20  1  0  0  0
 20 21  2  0  0  0
 21 16  1  0  0  0
 16  1  1  0  0  0
  1  2  2  0  0  0
  2  3  1  0  0  0
  3 11  1  0  0  0
 11 12  1  0  0  0
 12 13  1  0  0  0
 13 14  1  0  0  0
 14 15  1  0  0  0
  3  4  2  0  0  0
  4  5  1  0  0  0
  5  6  2  0  0  0
  6  7  1  0  0  0
  7  8  2  0  0  0
  8  9  1  0  0  0
  9 10  2  0  0  0
 21 22  1  0  0  0
 22 23  2  0  0  0
 23 18  1  0  0  0
 10  1  1  0  0  0
 15 11  1  0  0  0
  9  4  1  0  0  0
 16 17  1  0  0  0
M  END
> <minimizedAffinity>
-7.70798

> <CNNscore>
0.2780137062

> <CNNaffinity>
6.2573194504

> <CNN_VS>
1.7396205664

> <CNNaffinity_variance>
0.0898855478

$$$$
[H]c1c([H])c(N([H])c2nc(N3C([H])([H])C([H])([H])C([H])([H])C3([H])[H])c3c([H])c([H])c([H])c([H])c3n2)c([H])c([H])c1OC([H])([H])[H]


 25 28  0  0  0  0  0  0  0  0999 V2000
   40.6679   13.1163  -15.3586 C   0  0  0  0  0  0  0  0  0  0  0  0
   41.9927   13.0615  -15.1981 N   0  0  0  0  0  0  0  0  0  0  0  0
   42.6671   13.7689  -14.2685 C   0  0  0  0  0  0  0  0  0  0  0  0
   41.9447   14.5958  -13.4389 C   0  0  0  0  0  0  0  0  0  0  0  0
   42.5546   15.3560  -12.4764 C   0  0  0  0  0  0  0  0  0  0  0  0
   41.7702   16.1730  -11.6803 C   0  0  0  0  0  0  0  0  0  0  0  0
   40.4097   16.2520  -11.8165 C   0  0  0  0  0  0  0  0  0  0  0  0
   39.7849   15.5006  -12.7732 C   0  0  0  0  0  0  0  0  0  0  0  0
   40.5559   14.6712  -13.5861 C   0  0  0  0  0  0  0  0  0  0  0  0
   39.9954   13.9238  -14.5414 N   0  0  0  0  0  0  0  0  0  0  0  0
   44.0816   13.6172  -14.1528 N   0  0  0  0  0  0  0  0  0  0  0  0
   44.8014   12.9940  -13.0886 C   0  0  0  0  0  0  0  0  0  0  0  0
   46.1558   12.5939  -13.6786 C   0  0  0  0  0  0  0  0  0  0  0  0
   46.0073   12.8880  -15.1338 C   0  0  0  0  0  0  0  0  0  0  0  0
   45.0403   14.0784  -15.1285 C   0  0  0  0  0  0  0  0  0  0  0  0
   40.0501   12.3523  -16.3707 N   0  0  0  0  0  0  0  0  0  0  0  0
   40.6995   12.0313  -17.1515 H   0  0  0  0  0  0  0  0  0  0  0  0
   36.0312   11.0569  -16.9118 C   0  0  0  0  0  0  0  0  0  0  0  0
   36.3460   11.9354  -15.9067 C   0  0  0  0  0  0  0  0  0  0  0  0
   37.6598   12.3823  -15.6866 C   0  0  0  0  0  0  0  0  0  0  0  0
   38.7008   11.9601  -16.4717 C   0  0  0  0  0  0  0  0  0  0  0  0
   38.3580   11.0606  -17.4949 C   0  0  0  0  0  0  0  0  0  0  0  0
   37.0700   10.6280  -17.7035 C   0  0  0  0  0  0  0  0  0  0  0  0
   33.6789   11.0875  -16.2911 C   0  0  0  0  0  0  0  0  0  0  0  0
   34.7301   10.6248  -17.1170 O   0  0  0  0  0  0  0  0  0  0  0  0
 24 25  1  0  0  0
 25 18  1  0  0  0
 18 19  2  0  0  0
 19 20  1  0  0  0
 20 21  2  0  0  0
 21 16  1  0  0  0
 16  1  1  0  0  0
  1  2  2  0  0  0
  2  3  1  0  0  0
  3 11  1  0  0  0
 11 12  1  0  0  0
 12 13  1  0  0  0
 13 14  1  0  0  0
 14 15  1  0  0  0
  3  4  2  0  0  0
  4  5  1  0  0  0
  5  6  2  0  0  0
  6  7  1  0  0  0
  7  8  2  0  0  0
  8  9  1  0  0  0
  9 10  2  0  0  0
 21 22  1  0  0  0
 22 23  2  0  0  0
 23 18  1  0  0  0
 10  1  1  0  0  0
 15 11  1  0  0  0
  9  4  1  0  0  0
 16 17  1  0  0  0
M  END
> <minimizedAffinity>
-8.01720

> <CNNscore>
0.2389947474

> <CNNaffinity>
5.8625717163

> <CNN_VS>
1.4011238813

> <CNNaffinity_variance>
0.0479538999

$$$$
[H]c1c([H])c(N([H])c2nc(N3C([H])([H])C([H])([H])C([H])([H])C3([H])[H])c3c([H])c([H])c([H])c([H])c3n2)c([H])c([H])c1OC([H])([H])[H]


 25 28  0  0  0  0  0  0  0  0999 V2000
   39.1277   13.0702  -14.8872 C   0  0  0  0  0  0  0  0  0  0  0  0
   37.8670   12.6304  -14.9186 N   0  0  0  0  0  0  0  0  0  0  0  0
   37.3466   11.9115  -15.9343 C   0  0  0  0  0  0  0  0  0  0  0  0
   38.1656   11.6163  -17.0002 C   0  0  0  0  0  0  0  0  0  0  0  0
   37.7116   10.9004  -18.0762 C   0  0  0  0  0  0  0  0  0  0  0  0
   38.5851   10.6447  -19.1193 C   0  0  0  0  0  0  0  0  0  0  0  0
   39.8841   11.0787  -19.1189 C   0  0  0  0  0  0  0  0  0  0  0  0
   40.3532   11.7957  -18.0530 C   0  0  0  0  0  0  0  0  0  0  0  0
   39.4903   12.0648  -16.9919 C   0  0  0  0  0  0  0  0  0  0  0  0
   39.8965   12.7686  -15.9313 N   0  0  0  0  0  0  0  0  0  0  0  0
   35.9953   11.4578  -15.8606 N   0  0  0  0  0  0  0  0  0  0  0  0
   34.9649   11.9432  -14.9995 C   0  0  0  0  0  0  0  0  0  0  0  0
   33.6441   11.5614  -15.6722 C   0  0  0  0  0  0  0  0  0  0  0  0
   34.0667   11.0200  -16.9968 C   0  0  0  0  0  0  0  0  0  0  0  0
   35.4355   10.4068  -16.6764 C   0  0  0  0  0  0  0  0  0  0  0  0
   39.5798   13.8312  -13.7889 N   0  0  0  0  0  0  0  0  0  0  0  0
   38.8340   14.0624  -13.0646 H   0  0  0  0  0  0  0  0  0  0  0  0
   43.3974   15.5131  -12.9408 C   0  0  0  0  0  0  0  0  0  0  0  0
   43.3002   14.3079  -13.5883 C   0  0  0  0  0  0  0  0  0  0  0  0
   42.0617   13.7122  -13.8804 C   0  0  0  0  0  0  0  0  0  0  0  0
   40.8792   14.3104  -13.5309 C   0  0  0  0  0  0  0  0  0  0  0  0
   40.9999   15.5433  -12.8685 C   0  0  0  0  0  0  0  0  0  0  0  0
   42.2157   16.1194  -12.5861 C   0  0  0  0  0  0  0  0  0  0  0  0
   45.3211   16.8238  -13.6486 C   0  0  0  0  0  0  0  0  0  0  0  0
   44.6267   16.0887  -12.6594 O   0  0  0  0  0  0  0  0  0  0  0  0
 24 25  1  0  0  0
 25 18  1  0  0  0
 18 19  2  0  0  0
 19 20  1  0  0  0
 20 21  2  0  0  0
 21 16  1  0  0  0
 16  1  1  0  0  0
  1  2  2  0  0  0
  2  3  1  0  0  0
  3 11  1  0  0  0
 11 12  1  0  0  0
 12 13  1  0  0  0
 13 14  1  0  0  0
 14 15  1  0  0  0
  3  4  2  0  0  0
  4  5  1  0  0  0
  5  6  2  0  0  0
  6  7  1  0  0  0
  7  8  2  0  0  0
  8  9  1  0  0  0
  9 10  2  0  0  0
 21 22  1  0  0  0
 22 23  2  0  0  0
 23 18  1  0  0  0
 10  1  1  0  0  0
 15 11  1  0  0  0
  9  4  1  0  0  0
 16 17  1  0  0  0
M  END
> <minimizedAffinity>
-8.14102

> <CNNscore>
0.2058999687

> <CNNaffinity>
6.1998844147

> <CNN_VS>
1.2765560150

> <CNNaffinity_variance>
0.0245910250

$$$$
[H]c1c([H])c(N([H])c2nc(N3C([H])([H])C([H])([H])C([H])([H])C3([H])[H])c3c([H])c([H])c([H])c([H])c3n2)c([H])c([H])c1OC([H])([H])[H]


 25 28  0  0  0  0  0  0  0  0999 V2000
   38.9765   13.3428  -14.3510 C   0  0  0  0  0  0  0  0  0  0  0  0
   39.1527   12.6223  -15.4617 N   0  0  0  0  0  0  0  0  0  0  0  0
   38.1545   11.9945  -16.1166 C   0  0  0  0  0  0  0  0  0  0  0  0
   36.8808   12.1041  -15.6070 C   0  0  0  0  0  0  0  0  0  0  0  0
   35.8139   11.4882  -16.2059 C   0  0  0  0  0  0  0  0  0  0  0  0
   34.5599   11.6322  -15.6373 C   0  0  0  0  0  0  0  0  0  0  0  0
   34.3433   12.3649  -14.5006 C   0  0  0  0  0  0  0  0  0  0  0  0
   35.3978   12.9854  -13.8895 C   0  0  0  0  0  0  0  0  0  0  0  0
   36.6693   12.8532  -14.4451 C   0  0  0  0  0  0  0  0  0  0  0  0
   37.7338   13.4319  -13.8819 N   0  0  0  0  0  0  0  0  0  0  0  0
   38.4382   11.2748  -17.3161 N   0  0  0  0  0  0  0  0  0  0  0  0
   37.5004   10.6524  -18.1947 C   0  0  0  0  0  0  0  0  0  0  0  0
   38.2099   10.5319  -19.5455 C   0  0  0  0  0  0  0  0  0  0  0  0
   39.4818   11.2856  -19.3442 C   0  0  0  0  0  0  0  0  0  0  0  0
   39.7610   11.0609  -17.8530 C   0  0  0  0  0  0  0  0  0  0  0  0
   40.0845   13.9505  -13.7240 N   0  0  0  0  0  0  0  0  0  0  0  0
   39.8463   14.5672  -12.8891 H   0  0  0  0  0  0  0  0  0  0  0  0
   44.2610   13.7851  -14.5316 C   0  0  0  0  0  0  0  0  0  0  0  0
   43.3638   13.2304  -15.4083 C   0  0  0  0  0  0  0  0  0  0  0  0
   41.9780   13.2544  -15.1774 C   0  0  0  0  0  0  0  0  0  0  0  0
   41.4490   13.8383  -14.0561 C   0  0  0  0  0  0  0  0  0  0  0  0
   42.3838   14.4002  -13.1707 C   0  0  0  0  0  0  0  0  0  0  0  0
   43.7383   14.3723  -13.4039 C   0  0  0  0  0  0  0  0  0  0  0  0
   46.1662   12.8733  -15.7392 C   0  0  0  0  0  0  0  0  0  0  0  0
   45.6256   13.7539  -14.7730 O   0  0  0  0  0  0  0  0  0  0  0  0
 24 25  1  0  0  0
 25 18  1  0  0  0
 18 19  2  0  0  0
 19 20  1  0  0  0
 20 21  2  0  0  0
 21 16  1  0  0  0
 16  1  1  0  0  0
  1  2  2  0  0  0
  2  3  1  0  0  0
  3 11  1  0  0  0
 11 12  1  0  0  0
 12 13  1  0  0  0
 13 14  1  0  0  0
 14 15  1  0  0  0
  3  4  2  0  0  0
  4  5  1  0  0  0
  5  6  2  0  0  0
  6  7  1  0  0  0
  7  8  2  0  0  0
  8  9  1  0  0  0
  9 10  2  0  0  0
 21 22  1  0  0  0
 22 23  2  0  0  0
 23 18  1  0  0  0
 10  1  1  0  0  0
 15 11  1  0  0  0
  9  4  1  0  0  0
 16 17  1  0  0  0
M  END
> <minimizedAffinity>
-8.28924

> <CNNscore>
0.1819376945

> <CNNaffinity>
6.2218365669

> <CNN_VS>
1.1319866180

> <CNNaffinity_variance>
0.0351189934

$$$$
[H]OC12N(C([H])([H])c3c([H])c([H])c(OC([H])([H])[H])c([H])c3[H])C3([H])C4([H])C5([H])C([H])([H])C([H])(C14[H])C1([H])C2([H])C3([H])C51[H]


 23 29  0  0  0  0  0  0  0  0999 V2000
   38.5068   14.9167   -8.0632 N   0  0  0  0  0  0  0  0  0  0  0  0
   38.5582   16.1747   -8.7959 C   0  0  0  0  0  0  0  0  0  0  0  0
   37.8729   15.7431  -10.0740 C   0  0  0  0  0  0  0  0  0  0  0  0
   37.0904   16.9475  -10.5103 C   0  0  0  0  0  0  0  0  0  0  0  0
   35.8318   16.2715  -11.0671 C   0  0  0  0  0  0  0  0  0  0  0  0
   35.5285   15.4400   -9.8119 C   0  0  0  0  0  0  0  0  0  0  0  0
   35.5331   16.4934   -8.7510 C   0  0  0  0  0  0  0  0  0  0  0  0
   36.5837   17.5078   -9.2255 C   0  0  0  0  0  0  0  0  0  0  0  0
   37.5262   17.0467   -8.1556 C   0  0  0  0  0  0  0  0  0  0  0  0
   36.4691   16.0446   -7.6857 C   0  0  0  0  0  0  0  0  0  0  0  0
   37.0770   14.7276   -8.0958 C   0  0  0  0  0  0  0  0  0  0  0  0
   36.5836   13.6369   -7.4779 O   0  0  0  0  0  0  0  0  0  0  0  0
   36.8317   14.7467   -9.6035 C   0  0  0  0  0  0  0  0  0  0  0  0
   35.7547   13.8473   -6.9820 H   0  0  0  0  0  0  0  0  0  0  0  0
   39.0895   15.0074   -6.7653 C   0  0  0  0  0  0  0  0  0  0  0  0
   41.9854   11.8414   -6.3356 C   0  0  0  0  0  0  0  0  0  0  0  0
   41.1708   12.2136   -5.2888 C   0  0  0  0  0  0  0  0  0  0  0  0
   40.2474   13.2271   -5.4234 C   0  0  0  0  0  0  0  0  0  0  0  0
   40.0911   13.9234   -6.6180 C   0  0  0  0  0  0  0  0  0  0  0  0
   40.9263   13.5298   -7.6648 C   0  0  0  0  0  0  0  0  0  0  0  0
   41.8485   12.5163   -7.5275 C   0  0  0  0  0  0  0  0  0  0  0  0
   44.2904   11.0117   -6.4547 C   0  0  0  0  0  0  0  0  0  0  0  0
   42.9187   10.8089   -6.1817 O   0  0  0  0  0  0  0  0  0  0  0  0
 22 23  1  0  0  0
 23 16  1  0  0  0
 16 17  2  0  0  0
 17 18  1  0  0  0
 18 19  2  0  0  0
 19 15  1  0  0  0
 15  1  1  0  0  0
  1  2  1  0  0  0
  2  3  1  0  0  0
  3  4  1  0  0  0
  4  5  1  0  0  0
  5  6  1  0  0  0
  6  7  1  0  0  0
  7  8  1  0  0  0
  8  9  1  0  0  0
  9 10  1  0  0  0
 10 11  1  0  0  0
 11 12  1  0  0  0
 11 13  1  0  0  0
 19 20  1  0  0  0
 20 21  2  0  0  0
 21 16  1  0  0  0
 11  1  1  0  0  0
  9  2  1  0  0  0
 13  3  1  0  0  0
  8  4  1  0  0  0
 13  6  1  0  0  0
 10  7  1  0  0  0
 12 14  1  0  0  0
M  END
> <minimizedAffinity>
-4.98595

> <CNNscore>
0.3763509989

> <CNNaffinity>
4.2881150246

> <CNN_VS>
1.6138364077

> <CNNaffinity_variance>
0.2719227076

$$$$
[H]OC12N(C([H])([H])c3c([H])c([H])c(OC([H])([H])[H])c([H])c3[H])C3([H])C4([H])C5([H])C([H])([H])C([H])(C14[H])C1([H])C2([H])C3([H])C51[H]


 23 29  0  0  0  0  0  0  0  0999 V2000
   38.6356   17.5202   -8.6523 N   0  0  0  0  0  0  0  0  0  0  0  0
   38.2663   17.3367   -7.2552 C   0  0  0  0  0  0  0  0  0  0  0  0
   38.3565   18.7725   -6.7863 C   0  0  0  0  0  0  0  0  0  0  0  0
   37.2564   18.9110   -5.7745 C   0  0  0  0  0  0  0  0  0  0  0  0
   36.7838   20.3384   -6.0750 C   0  0  0  0  0  0  0  0  0  0  0  0
   36.5649   20.1208   -7.5795 C   0  0  0  0  0  0  0  0  0  0  0  0
   35.6843   18.9126   -7.5786 C   0  0  0  0  0  0  0  0  0  0  0  0
   36.1508   18.1016   -6.3610 C   0  0  0  0  0  0  0  0  0  0  0  0
   36.7912   17.0933   -7.2656 C   0  0  0  0  0  0  0  0  0  0  0  0
   36.3148   17.9048   -8.4727 C   0  0  0  0  0  0  0  0  0  0  0  0
   37.6074   18.4683   -9.0053 C   0  0  0  0  0  0  0  0  0  0  0  0
   37.5765   18.9002  -10.2811 O   0  0  0  0  0  0  0  0  0  0  0  0
   37.8896   19.5716   -7.9870 C   0  0  0  0  0  0  0  0  0  0  0  0
   36.6495   18.9598  -10.6194 H   0  0  0  0  0  0  0  0  0  0  0  0
   38.6328   16.3007   -9.3907 C   0  0  0  0  0  0  0  0  0  0  0  0
   42.2873   16.0762  -11.6687 C   0  0  0  0  0  0  0  0  0  0  0  0
   41.0644   16.2126  -12.2884 C   0  0  0  0  0  0  0  0  0  0  0  0
   39.8956   16.2812  -11.5623 C   0  0  0  0  0  0  0  0  0  0  0  0
   39.8906   16.2163  -10.1723 C   0  0  0  0  0  0  0  0  0  0  0  0
   41.1401   16.0782   -9.5656 C   0  0  0  0  0  0  0  0  0  0  0  0
   42.3069   16.0100  -10.2939 C   0  0  0  0  0  0  0  0  0  0  0  0
   44.7360   16.0473  -11.8041 C   0  0  0  0  0  0  0  0  0  0  0  0
   43.4656   16.0081  -12.4221 O   0  0  0  0  0  0  0  0  0  0  0  0
 22 23  1  0  0  0
 23 16  1  0  0  0
 16 17  2  0  0  0
 17 18  1  0  0  0
 18 19  2  0  0  0
 19 15  1  0  0  0
 15  1  1  0  0  0
  1  2  1  0  0  0
  2  3  1  0  0  0
  3  4  1  0  0  0
  4  5  1  0  0  0
  5  6  1  0  0  0
  6  7  1  0  0  0
  7  8  1  0  0  0
  8  9  1  0  0  0
  9 10  1  0  0  0
 10 11  1  0  0  0
 11 12  1  0  0  0
 11 13  1  0  0  0
 19 20  1  0  0  0
 20 21  2  0  0  0
 21 16  1  0  0  0
 11  1  1  0  0  0
  9  2  1  0  0  0
 13  3  1  0  0  0
  8  4  1  0  0  0
 13  6  1  0  0  0
 10  7  1  0  0  0
 12 14  1  0  0  0
M  END
> <minimizedAffinity>
-5.32686

> <CNNscore>
0.3613086343

> <CNNaffinity>
4.4828071594

> <CNN_VS>
1.6196769476

> <CNNaffinity_variance>
0.3017666042

$$$$
[H]OC12N(C([H])([H])c3c([H])c([H])c(OC([H])([H])[H])c([H])c3[H])C3([H])C4([H])C5([H])C([H])([H])C([H])(C14[H])C1([H])C2([H])C3([H])C51[H]


 23 29  0  0  0  0  0  0  0  0999 V2000
   42.4875   11.8841   -6.2709 N   0  0  0  0  0  0  0  0  0  0  0  0
   42.3187   11.7183   -4.8336 C   0  0  0  0  0  0  0  0  0  0  0  0
   42.5364   10.2246   -4.7310 C   0  0  0  0  0  0  0  0  0  0  0  0
   43.2448   10.0334   -3.4214 C   0  0  0  0  0  0  0  0  0  0  0  0
   44.2078    8.8992   -3.7920 C   0  0  0  0  0  0  0  0  0  0  0  0
   44.8126    9.5976   -5.0188 C   0  0  0  0  0  0  0  0  0  0  0  0
   45.2253   10.9119   -4.4376 C   0  0  0  0  0  0  0  0  0  0  0  0
   44.1692   11.2010   -3.3610 C   0  0  0  0  0  0  0  0  0  0  0  0
   43.5680   12.2686   -4.2236 C   0  0  0  0  0  0  0  0  0  0  0  0
   44.6298   11.9780   -5.2869 C   0  0  0  0  0  0  0  0  0  0  0  0
   43.8158   11.3318   -6.3787 C   0  0  0  0  0  0  0  0  0  0  0  0
   44.3819   11.3176   -7.6011 O   0  0  0  0  0  0  0  0  0  0  0  0
   43.5839    9.9415   -5.7898 C   0  0  0  0  0  0  0  0  0  0  0  0
   45.3381   11.5646   -7.5587 H   0  0  0  0  0  0  0  0  0  0  0  0
   42.3442   13.2383   -6.6930 C   0  0  0  0  0  0  0  0  0  0  0  0
   38.3101   14.5062   -5.8491 C   0  0  0  0  0  0  0  0  0  0  0  0
   38.5643   13.3743   -6.5922 C   0  0  0  0  0  0  0  0  0  0  0  0
   39.8525   12.9696   -6.8655 C   0  0  0  0  0  0  0  0  0  0  0  0
   40.9575   13.6803   -6.4072 C   0  0  0  0  0  0  0  0  0  0  0  0
   40.6768   14.8233   -5.6567 C   0  0  0  0  0  0  0  0  0  0  0  0
   39.3881   15.2254   -5.3849 C   0  0  0  0  0  0  0  0  0  0  0  0
   36.3632   14.5764   -4.3590 C   0  0  0  0  0  0  0  0  0  0  0  0
   36.9944   14.9031   -5.5805 O   0  0  0  0  0  0  0  0  0  0  0  0
 22 23  1  0  0  0
 23 16  1  0  0  0
 16 17  2  0  0  0
 17 18  1  0  0  0
 18 19  2  0  0  0
 19 15  1  0  0  0
 15  1  1  0  0  0
  1  2  1  0  0  0
  2  3  1  0  0  0
  3  4  1  0  0  0
  4  5  1  0  0  0
  5  6  1  0  0  0
  6  7  1  0  0  0
  7  8  1  0  0  0
  8  9  1  0  0  0
  9 10  1  0  0  0
 10 11  1  0  0  0
 11 12  1  0  0  0
 11 13  1  0  0  0
 19 20  1  0  0  0
 20 21  2  0  0  0
 21 16  1  0  0  0
 11  1  1  0  0  0
  9  2  1  0  0  0
 13  3  1  0  0  0
  8  4  1  0  0  0
 13  6  1  0  0  0
 10  7  1  0  0  0
 12 14  1  0  0  0
M  END
> <minimizedAffinity>
-5.16497

> <CNNscore>
0.3036997318

> <CNNaffinity>
4.0726952553

> <CNN_VS>
1.2368764877

> <CNNaffinity_variance>
0.3365983963

$$$$
[H]OC12N(C([H])([H])c3c([H])c([H])c(OC([H])([H])[H])c([H])c3[H])C3([H])C4([H])C5([H])C([H])([H])C([H])(C14[H])C1([H])C2([H])C3([H])C51[H]


 23 29  0  0  0  0  0  0  0  0999 V2000
   43.4530   12.2219   -6.4014 N   0  0  0  0  0  0  0  0  0  0  0  0
   43.0344   12.2299   -5.0061 C   0  0  0  0  0  0  0  0  0  0  0  0
   42.2682   10.9257   -4.9717 C   0  0  0  0  0  0  0  0  0  0  0  0
   42.5311   10.3671   -3.6034 C   0  0  0  0  0  0  0  0  0  0  0  0
   42.6263    8.8719   -3.9298 C   0  0  0  0  0  0  0  0  0  0  0  0
   43.6850    9.0163   -5.0330 C   0  0  0  0  0  0  0  0  0  0  0  0
   44.7415    9.8049   -4.3278 C   0  0  0  0  0  0  0  0  0  0  0  0
   43.9615   10.7113   -3.3646 C   0  0  0  0  0  0  0  0  0  0  0  0
   44.2650   11.9013   -4.2231 C   0  0  0  0  0  0  0  0  0  0  0  0
   45.0468   10.9904   -5.1726 C   0  0  0  0  0  0  0  0  0  0  0  0
   44.1570   10.9628   -6.3890 C   0  0  0  0  0  0  0  0  0  0  0  0
   44.7452   10.5723   -7.5364 O   0  0  0  0  0  0  0  0  0  0  0  0
   43.0429   10.0297   -5.9180 C   0  0  0  0  0  0  0  0  0  0  0  0
   45.6345   10.1743   -7.3686 H   0  0  0  0  0  0  0  0  0  0  0  0
   44.2321   13.3630   -6.7526 C   0  0  0  0  0  0  0  0  0  0  0  0
   42.0660   15.6332   -9.7104 C   0  0  0  0  0  0  0  0  0  0  0  0
   43.0969   14.7917  -10.0672 C   0  0  0  0  0  0  0  0  0  0  0  0
   43.7921   14.0682   -9.1232 C   0  0  0  0  0  0  0  0  0  0  0  0
   43.4900   14.1502   -7.7673 C   0  0  0  0  0  0  0  0  0  0  0  0
   42.4425   15.0083   -7.4286 C   0  0  0  0  0  0  0  0  0  0  0  0
   41.7492   15.7303   -8.3744 C   0  0  0  0  0  0  0  0  0  0  0  0
   39.9787   16.5868  -10.5760 C   0  0  0  0  0  0  0  0  0  0  0  0
   41.3697   16.3612  -10.6830 O   0  0  0  0  0  0  0  0  0  0  0  0
 22 23  1  0  0  0
 23 16  1  0  0  0
 16 17  2  0  0  0
 17 18  1  0  0  0
 18 19  2  0  0  0
 19 15  1  0  0  0
 15  1  1  0  0  0
  1  2  1  0  0  0
  2  3  1  0  0  0
  3  4  1  0  0  0
  4  5  1  0  0  0
  5  6  1  0  0  0
  6  7  1  0  0  0
  7  8  1  0  0  0
  8  9  1  0  0  0
  9 10  1  0  0  0
 10 11  1  0  0  0
 11 12  1  0  0  0
 11 13  1  0  0  0
 19 20  1  0  0  0
 20 21  2  0  0  0
 21 16  1  0  0  0
 11  1  1  0  0  0
  9  2  1  0  0  0
 13  3  1  0  0  0
  8  4  1  0  0  0
 13  6  1  0  0  0
 10  7  1  0  0  0
 12 14  1  0  0  0
M  END
> <minimizedAffinity>
-5.42003

> <CNNscore>
0.2923010886

> <CNNaffinity>
4.0957326889

> <CNN_VS>
1.1971870661

> <CNNaffinity_variance>
0.3500696719

$$$$
[H]OC12N(C([H])([H])c3c([H])c([H])c(OC([H])([H])[H])c([H])c3[H])C3([H])C4([H])C5([H])C([H])([H])C([H])(C14[H])C1([H])C2([H])C3([H])C51[H]


 23 29  0  0  0  0  0  0  0  0999 V2000
   36.0074   16.0538   -7.7615 N   0  0  0  0  0  0  0  0  0  0  0  0
   37.0798   17.0326   -7.6433 C   0  0  0  0  0  0  0  0  0  0  0  0
   37.5421   16.7222   -6.2365 C   0  0  0  0  0  0  0  0  0  0  0  0
   39.0281   16.9317   -6.2706 C   0  0  0  0  0  0  0  0  0  0  0  0
   39.4874   15.7986   -5.3451 C   0  0  0  0  0  0  0  0  0  0  0  0
   38.7458   14.6764   -6.0864 C   0  0  0  0  0  0  0  0  0  0  0  0
   39.2247   14.8808   -7.4879 C   0  0  0  0  0  0  0  0  0  0  0  0
   39.4161   16.3996   -7.6077 C   0  0  0  0  0  0  0  0  0  0  0  0
   38.1987   16.4943   -8.4762 C   0  0  0  0  0  0  0  0  0  0  0  0
   38.0215   14.9789   -8.3569 C   0  0  0  0  0  0  0  0  0  0  0  0
   36.7894   14.8712   -7.4953 C   0  0  0  0  0  0  0  0  0  0  0  0
   36.1499   13.6860   -7.5329 O   0  0  0  0  0  0  0  0  0  0  0  0
   37.3588   15.2217   -6.1217 C   0  0  0  0  0  0  0  0  0  0  0  0
   36.6987   12.9940   -7.9772 H   0  0  0  0  0  0  0  0  0  0  0  0
   35.3582   16.0938   -9.0301 C   0  0  0  0  0  0  0  0  0  0  0  0
   31.1059   16.4191   -8.3928 C   0  0  0  0  0  0  0  0  0  0  0  0
   32.0046   16.7108   -7.3902 C   0  0  0  0  0  0  0  0  0  0  0  0
   33.3633   16.6042   -7.5911 C   0  0  0  0  0  0  0  0  0  0  0  0
   33.8949   16.1983   -8.8113 C   0  0  0  0  0  0  0  0  0  0  0  0
   32.9666   15.9079   -9.8125 C   0  0  0  0  0  0  0  0  0  0  0  0
   31.6089   16.0154   -9.6089 C   0  0  0  0  0  0  0  0  0  0  0  0
   28.9262   15.3944   -7.9295 C   0  0  0  0  0  0  0  0  0  0  0  0
   29.7279   16.5328   -8.1715 O   0  0  0  0  0  0  0  0  0  0  0  0
 22 23  1  0  0  0
 23 16  1  0  0  0
 16 17  2  0  0  0
 17 18  1  0  0  0
 18 19  2  0  0  0
 19 15  1  0  0  0
 15  1  1  0  0  0
  1  2  1  0  0  0
  2  3  1  0  0  0
  3  4  1  0  0  0
  4  5  1  0  0  0
  5  6  1  0  0  0
  6  7  1  0  0  0
  7  8  1  0  0  0
  8  9  1  0  0  0
  9 10  1  0  0  0
 10 11  1  0  0  0
 11 12  1  0  0  0
 11 13  1  0  0  0
 19 20  1  0  0  0
 20 21  2  0  0  0
 21 16  1  0  0  0
 11  1  1  0  0  0
  9  2  1  0  0  0
 13  3  1  0  0  0
  8  4  1  0  0  0
 13  6  1  0  0  0
 10  7  1  0  0  0
 12 14  1  0  0  0
M  END
> <minimizedAffinity>
-4.93600

> <CNNscore>
0.2612425387

> <CNNaffinity>
4.4219055176

> <CNN_VS>
1.1551898718

> <CNNaffinity_variance>
0.4762281477

$$$$
[H]OC12N(C([H])([H])c3c([H])c([H])c(OC([H])([H])[H])c([H])c3[H])C3([H])C4([H])C5([H])C([H])([H])C([H])(C14[H])C1([H])C2([H])C3([H])C51[H]


 23 29  0  0  0  0  0  0  0  0999 V2000
   42.9550   14.4646  -13.6989 N   0  0  0  0  0  0  0  0  0  0  0  0
   43.9440   13.5049  -13.2267 C   0  0  0  0  0  0  0  0  0  0  0  0
   45.1844   14.3668  -13.3140 C   0  0  0  0  0  0  0  0  0  0  0  0
   46.0267   13.9388  -12.1476 C   0  0  0  0  0  0  0  0  0  0  0  0
   46.6230   15.2880  -11.7286 C   0  0  0  0  0  0  0  0  0  0  0  0
   45.2814   16.0267  -11.6133 C   0  0  0  0  0  0  0  0  0  0  0  0
   44.5176   15.1134  -10.7090 C   0  0  0  0  0  0  0  0  0  0  0  0
   45.0235   13.7091  -11.0696 C   0  0  0  0  0  0  0  0  0  0  0  0
   43.7241   13.4054  -11.7512 C   0  0  0  0  0  0  0  0  0  0  0  0
   43.2265   14.8044  -11.3800 C   0  0  0  0  0  0  0  0  0  0  0  0
   43.1970   15.4955  -12.7192 C   0  0  0  0  0  0  0  0  0  0  0  0
   42.4363   16.6052  -12.7891 O   0  0  0  0  0  0  0  0  0  0  0  0
   44.6849   15.7516  -12.9516 C   0  0  0  0  0  0  0  0  0  0  0  0
   42.1610   16.9110  -11.8902 H   0  0  0  0  0  0  0  0  0  0  0  0
   41.6330   13.9315  -13.7226 C   0  0  0  0  0  0  0  0  0  0  0  0
   40.9343   12.1407  -17.5826 C   0  0  0  0  0  0  0  0  0  0  0  0
   42.2035   12.2316  -17.0546 C   0  0  0  0  0  0  0  0  0  0  0  0
   42.4289   12.8064  -15.8230 C   0  0  0  0  0  0  0  0  0  0  0  0
   41.3909   13.3222  -15.0531 C   0  0  0  0  0  0  0  0  0  0  0  0
   40.1138   13.2194  -15.6072 C   0  0  0  0  0  0  0  0  0  0  0  0
   39.8914   12.6443  -16.8385 C   0  0  0  0  0  0  0  0  0  0  0  0
   39.4478   11.0803  -19.2201 C   0  0  0  0  0  0  0  0  0  0  0  0
   40.7230   11.5532  -18.8359 O   0  0  0  0  0  0  0  0  0  0  0  0
 22 23  1  0  0  0
 23 16  1  0  0  0
 16 17  2  0  0  0
 17 18  1  0  0  0
 18 19  2  0  0  0
 19 15  1  0  0  0
 15  1  1  0  0  0
  1  2  1  0  0  0
  2  3  1  0  0  0
  3  4  1  0  0  0
  4  5  1  0  0  0
  5  6  1  0  0  0
  6  7  1  0  0  0
  7  8  1  0  0  0
  8  9  1  0  0  0
  9 10  1  0  0  0
 10 11  1  0  0  0
 11 12  1  0  0  0
 11 13  1  0  0  0
 19 20  1  0  0  0
 20 21  2  0  0  0
 21 16  1  0  0  0
 11  1  1  0  0  0
  9  2  1  0  0  0
 13  3  1  0  0  0
  8  4  1  0  0  0
 13  6  1  0  0  0
 10  7  1  0  0  0
 12 14  1  0  0  0
M  END
> <minimizedAffinity>
-6.15751

> <CNNscore>
0.2400355786

> <CNNaffinity>
5.0930624008

> <CNN_VS>
1.2225161791

> <CNNaffinity_variance>
0.0803848282

$$$$
[H]OC12N(C([H])([H])c3c([H])c([H])c(OC([H])([H])[H])c([H])c3[H])C3([H])C4([H])C5([H])C([H])([H])C([H])(C14[H])C1([H])C2([H])C3([H])C51[H]


 23 29  0  0  0  0  0  0  0  0999 V2000
   36.2825   15.9125   -8.6435 N   0  0  0  0  0  0  0  0  0  0  0  0
   37.2652   16.9665   -8.4306 C   0  0  0  0  0  0  0  0  0  0  0  0
   37.1457   17.1147   -6.9296 C   0  0  0  0  0  0  0  0  0  0  0  0
   38.5398   17.4240   -6.4667 C   0  0  0  0  0  0  0  0  0  0  0  0
   38.5697   16.6479   -5.1446 C   0  0  0  0  0  0  0  0  0  0  0  0
   38.1242   15.3034   -5.7386 C   0  0  0  0  0  0  0  0  0  0  0  0
   39.1075   15.1314   -6.8516 C   0  0  0  0  0  0  0  0  0  0  0  0
   39.3869   16.5609   -7.3378 C   0  0  0  0  0  0  0  0  0  0  0  0
   38.5958   16.3021   -8.5838 C   0  0  0  0  0  0  0  0  0  0  0  0
   38.3298   14.8768   -8.0937 C   0  0  0  0  0  0  0  0  0  0  0  0
   36.8595   14.9243   -7.7651 C   0  0  0  0  0  0  0  0  0  0  0  0
   36.2385   13.7315   -7.6841 O   0  0  0  0  0  0  0  0  0  0  0  0
   36.8764   15.7019   -6.4503 C   0  0  0  0  0  0  0  0  0  0  0  0
   36.8886   12.9871   -7.6631 H   0  0  0  0  0  0  0  0  0  0  0  0
   36.1666   15.5314  -10.0124 C   0  0  0  0  0  0  0  0  0  0  0  0
   32.0000   15.6381  -11.1180 C   0  0  0  0  0  0  0  0  0  0  0  0
   32.4080   15.9294   -9.8348 C   0  0  0  0  0  0  0  0  0  0  0  0
   33.7385   15.8926   -9.4790 C   0  0  0  0  0  0  0  0  0  0  0  0
   34.7334   15.5607  -10.3934 C   0  0  0  0  0  0  0  0  0  0  0  0
   34.2976   15.2694  -11.6872 C   0  0  0  0  0  0  0  0  0  0  0  0
   32.9670   15.3070  -12.0400 C   0  0  0  0  0  0  0  0  0  0  0  0
   29.8776   14.4984  -11.5782 C   0  0  0  0  0  0  0  0  0  0  0  0
   30.6435   15.6805  -11.4626 O   0  0  0  0  0  0  0  0  0  0  0  0
 22 23  1  0  0  0
 23 16  1  0  0  0
 16 17  2  0  0  0
 17 18  1  0  0  0
 18 19  2  0  0  0
 19 15  1  0  0  0
 15  1  1  0  0  0
  1  2  1  0  0  0
  2  3  1  0  0  0
  3  4  1  0  0  0
  4  5  1  0  0  0
  5  6  1  0  0  0
  6  7  1  0  0  0
  7  8  1  0  0  0
  8  9  1  0  0  0
  9 10  1  0  0  0
 10 11  1  0  0  0
 11 12  1  0  0  0
 11 13  1  0  0  0
 19 20  1  0  0  0
 20 21  2  0  0  0
 21 16  1  0  0  0
 11  1  1  0  0  0
  9  2  1  0  0  0
 13  3  1  0  0  0
  8  4  1  0  0  0
 13  6  1  0  0  0
 10  7  1  0  0  0
 12 14  1  0  0  0
M  END
> <minimizedAffinity>
-5.10457

> <CNNscore>
0.2250404805

> <CNNaffinity>
4.5769410133

> <CNN_VS>
1.0299969912

> <CNNaffinity_variance>
0.3520996571

$$$$
[H]OC12N(C([H])([H])c3c([H])c([H])c(OC([H])([H])[H])c([H])c3[H])C3([H])C4([H])C5([H])C([H])([H])C([H])(C14[H])C1([H])C2([H])C3([H])C51[H]


 23 29  0  0  0  0  0  0  0  0999 V2000
   37.9233   12.8306  -13.6156 N   0  0  0  0  0  0  0  0  0  0  0  0
   36.9115   12.8330  -14.6635 C   0  0  0  0  0  0  0  0  0  0  0  0
   35.7300   12.3259  -13.8659 C   0  0  0  0  0  0  0  0  0  0  0  0
   34.5473   13.0545  -14.4348 C   0  0  0  0  0  0  0  0  0  0  0  0
   33.7284   13.2885  -13.1596 C   0  0  0  0  0  0  0  0  0  0  0  0
   34.8614   13.9504  -12.3615 C   0  0  0  0  0  0  0  0  0  0  0  0
   35.2987   15.0252  -13.3042 C   0  0  0  0  0  0  0  0  0  0  0  0
   35.0837   14.4198  -14.6988 C   0  0  0  0  0  0  0  0  0  0  0  0
   36.5645   14.2720  -14.8737 C   0  0  0  0  0  0  0  0  0  0  0  0
   36.7682   14.8838  -13.4857 C   0  0  0  0  0  0  0  0  0  0  0  0
   37.2453   13.6993  -12.6847 C   0  0  0  0  0  0  0  0  0  0  0  0
   37.8821   13.9889  -11.5333 O   0  0  0  0  0  0  0  0  0  0  0  0
   35.9400   12.9295  -12.4912 C   0  0  0  0  0  0  0  0  0  0  0  0
   37.7710   14.9404  -11.2891 H   0  0  0  0  0  0  0  0  0  0  0  0
   39.1950   13.2851  -14.0723 C   0  0  0  0  0  0  0  0  0  0  0  0
   39.8937   11.7277  -18.0322 C   0  0  0  0  0  0  0  0  0  0  0  0
   40.4345   12.9291  -17.6295 C   0  0  0  0  0  0  0  0  0  0  0  0
   40.2096   13.4297  -16.3659 C   0  0  0  0  0  0  0  0  0  0  0  0
   39.4282   12.7506  -15.4361 C   0  0  0  0  0  0  0  0  0  0  0  0
   38.8906   11.5359  -15.8652 C   0  0  0  0  0  0  0  0  0  0  0  0
   39.1171   11.0379  -17.1289 C   0  0  0  0  0  0  0  0  0  0  0  0
   39.0715   10.9833  -20.2198 C   0  0  0  0  0  0  0  0  0  0  0  0
   40.1326   11.2334  -19.3204 O   0  0  0  0  0  0  0  0  0  0  0  0
 22 23  1  0  0  0
 23 16  1  0  0  0
 16 17  2  0  0  0
 17 18  1  0  0  0
 18 19  2  0  0  0
 19 15  1  0  0  0
 15  1  1  0  0  0
  1  2  1  0  0  0
  2  3  1  0  0  0
  3  4  1  0  0  0
  4  5  1  0  0  0
  5  6  1  0  0  0
  6  7  1  0  0  0
  7  8  1  0  0  0
  8  9  1  0  0  0
  9 10  1  0  0  0
 10 11  1  0  0  0
 11 12  1  0  0  0
 11 13  1  0  0  0
 19 20  1  0  0  0
 20 21  2  0  0  0
 21 16  1  0  0  0
 11  1  1  0  0  0
  9  2  1  0  0  0
 13  3  1  0  0  0
  8  4  1  0  0  0
 13  6  1  0  0  0
 10  7  1  0  0  0
 12 14  1  0  0  0
M  END
> <minimizedAffinity>
-6.89179

> <CNNscore>
0.2050977349

> <CNNaffinity>
5.6961717606

> <CNN_VS>
1.1682718992

> <CNNaffinity_variance>
0.1030882746

$$$$
[H]OC12N(C([H])([H])c3c([H])c([H])c(OC([H])([H])[H])c([H])c3[H])C3([H])C4([H])C5([H])C([H])([H])C([H])(C14[H])C1([H])C2([H])C3([H])C51[H]


 23 29  0  0  0  0  0  0  0  0999 V2000
   37.7133   15.0280   -9.2720 N   0  0  0  0  0  0  0  0  0  0  0  0
   37.9478   15.8019  -10.4836 C   0  0  0  0  0  0  0  0  0  0  0  0
   37.5043   14.7864  -11.5138 C   0  0  0  0  0  0  0  0  0  0  0  0
   36.8623   15.6018  -12.5983 C   0  0  0  0  0  0  0  0  0  0  0  0
   35.7101   14.6717  -12.9968 C   0  0  0  0  0  0  0  0  0  0  0  0
   35.1438   14.5026  -11.5792 C   0  0  0  0  0  0  0  0  0  0  0  0
   34.9828   15.9266  -11.1531 C   0  0  0  0  0  0  0  0  0  0  0  0
   36.1397   16.6640  -11.8428 C   0  0  0  0  0  0  0  0  0  0  0  0
   36.8438   16.8092  -10.5281 C   0  0  0  0  0  0  0  0  0  0  0  0
   35.6820   16.0801   -9.8492 C   0  0  0  0  0  0  0  0  0  0  0  0
   36.3103   14.7617   -9.4763 C   0  0  0  0  0  0  0  0  0  0  0  0
   35.6700   14.0562   -8.5238 O   0  0  0  0  0  0  0  0  0  0  0  0
   36.3581   14.0634  -10.8342 C   0  0  0  0  0  0  0  0  0  0  0  0
   34.7696   14.4238   -8.3466 H   0  0  0  0  0  0  0  0  0  0  0  0
   38.0404   15.7455   -8.0843 C   0  0  0  0  0  0  0  0  0  0  0  0
   41.1174   13.5727   -5.9853 C   0  0  0  0  0  0  0  0  0  0  0  0
   39.7847   13.3993   -5.6823 C   0  0  0  0  0  0  0  0  0  0  0  0
   38.8006   14.0950   -6.3496 C   0  0  0  0  0  0  0  0  0  0  0  0
   39.1010   15.0044   -7.3591 C   0  0  0  0  0  0  0  0  0  0  0  0
   40.4570   15.1644   -7.6495 C   0  0  0  0  0  0  0  0  0  0  0  0
   41.4386   14.4675   -6.9808 C   0  0  0  0  0  0  0  0  0  0  0  0
   41.9768   11.4698   -5.0609 C   0  0  0  0  0  0  0  0  0  0  0  0
   42.1049   12.8572   -5.2971 O   0  0  0  0  0  0  0  0  0  0  0  0
 22 23  1  0  0  0
 23 16  1  0  0  0
 16 17  2  0  0  0
 17 18  1  0  0  0
 18 19  2  0  0  0
 19 15  1  0  0  0
 15  1  1  0  0  0
  1  2  1  0  0  0
  2  3  1  0  0  0
  3  4  1  0  0  0
  4  5  1  0  0  0
  5  6  1  0  0  0
  6  7  1  0  0  0
  7  8  1  0  0  0
  8  9  1  0  0  0
  9 10  1  0  0  0
 10 11  1  0  0  0
 11 12  1  0  0  0
 11 13  1  0  0  0
 19 20  1  0  0  0
 20 21  2  0  0  0
 21 16  1  0  0  0
 11  1  1  0  0  0
  9  2  1  0  0  0
 13  3  1  0  0  0
  8  4  1  0  0  0
 13  6  1  0  0  0
 10  7  1  0  0  0
 12 14  1  0  0  0
M  END
> <minimizedAffinity>
-5.18409

> <CNNscore>
0.1861215085

> <CNNaffinity>
4.4097714424

> <CNN_VS>
0.8207533360

> <CNNaffinity_variance>
0.0476516634

$$$$
[H]c1nc(N2C([H])([H])C([H])([H])N(C([H])([H])C([H])([H])C([H])([H])Sc3c([H])c([H])c(F)c([H])c3[H])C([H])([H])C2([H])[H])c([H])c([H])c1[H]


 23 25  0  0  0  0  0  0  0  0999 V2000
   35.5600   14.7811  -11.8262 N   0  0  0  0  0  0  0  0  0  0  0  0
   36.6085   13.9469  -12.3595 C   0  0  0  0  0  0  0  0  0  0  0  0
   37.8793   14.6685  -12.7150 C   0  0  0  0  0  0  0  0  0  0  0  0
   38.2986   15.6084  -11.7227 N   0  0  0  0  0  0  0  0  0  0  0  0
   37.2990   16.2544  -10.9123 C   0  0  0  0  0  0  0  0  0  0  0  0
   35.9829   16.1432  -11.6222 C   0  0  0  0  0  0  0  0  0  0  0  0
   39.6817   15.8846  -11.5607 C   0  0  0  0  0  0  0  0  0  0  0  0
   40.3020   15.8850  -10.3326 C   0  0  0  0  0  0  0  0  0  0  0  0
   41.6626   16.1705  -10.1975 C   0  0  0  0  0  0  0  0  0  0  0  0
   42.4122   16.4589  -11.3037 C   0  0  0  0  0  0  0  0  0  0  0  0
   41.7714   16.4524  -12.5202 C   0  0  0  0  0  0  0  0  0  0  0  0
   40.4654   16.1767  -12.6331 N   0  0  0  0  0  0  0  0  0  0  0  0
   34.3533   14.6967  -12.6200 C   0  0  0  0  0  0  0  0  0  0  0  0
   34.1970   13.2920  -13.1401 C   0  0  0  0  0  0  0  0  0  0  0  0
   33.8320   13.3845  -14.6210 C   0  0  0  0  0  0  0  0  0  0  0  0
   34.0306   11.7593  -15.3941 S   0  0  0  0  0  0  0  0  0  0  0  0
   39.4956   11.0468  -17.6471 F   0  0  0  0  0  0  0  0  0  0  0  0
   38.2386   11.1973  -17.1498 C   0  0  0  0  0  0  0  0  0  0  0  0
   38.0505   11.8800  -15.9554 C   0  0  0  0  0  0  0  0  0  0  0  0
   36.7945   12.0474  -15.4299 C   0  0  0  0  0  0  0  0  0  0  0  0
   35.6726   11.5498  -16.0580 C   0  0  0  0  0  0  0  0  0  0  0  0
   35.8726   10.8735  -17.2438 C   0  0  0  0  0  0  0  0  0  0  0  0
   37.1304   10.6938  -17.7908 C   0  0  0  0  0  0  0  0  0  0  0  0
 17 18  1  0  0  0
 18 19  2  0  0  0
 19 20  1  0  0  0
 20 21  2  0  0  0
 21 16  1  0  0  0
 16 15  1  0  0  0
 15 14  1  0  0  0
 14 13  1  0  0  0
 13  1  1  0  0  0
  1  2  1  0  0  0
  2  3  1  0  0  0
  3  4  1  0  0  0
  4  7  1  0  0  0
  7  8  2  0  0  0
  8  9  1  0  0  0
  9 10  2  0  0  0
 10 11  1  0  0  0
 11 12  2  0  0  0
  4  5  1  0  0  0
  5  6  1  0  0  0
 21 22  1  0  0  0
 22 23  2  0  0  0
 23 18  1  0  0  0
  6  1  1  0  0  0
 12  7  1  0  0  0
M  END
> <minimizedAffinity>
-7.54690

> <CNNscore>
0.3860638440

> <CNNaffinity>
5.7146339417

> <CNN_VS>
2.2062134743

> <CNNaffinity_variance>
0.2410436124

$$$$
[H]c1nc(N2C([H])([H])C([H])([H])N(C([H])([H])C([H])([H])C([H])([H])Sc3c([H])c([H])c(F)c([H])c3[H])C([H])([H])C2([H])[H])c([H])c([H])c1[H]


 23 25  0  0  0  0  0  0  0  0999 V2000
   36.1621   14.1408  -13.2993 N   0  0  0  0  0  0  0  0  0  0  0  0
   36.0892   14.8482  -12.0446 C   0  0  0  0  0  0  0  0  0  0  0  0
   34.7830   15.5451  -11.7801 C   0  0  0  0  0  0  0  0  0  0  0  0
   33.6376   14.7492  -12.0942 N   0  0  0  0  0  0  0  0  0  0  0  0
   33.7392   13.7719  -13.1468 C   0  0  0  0  0  0  0  0  0  0  0  0
   34.9089   14.1392  -14.0101 C   0  0  0  0  0  0  0  0  0  0  0  0
   32.4325   14.9402  -11.3686 C   0  0  0  0  0  0  0  0  0  0  0  0
   32.3901   15.5780  -10.1503 C   0  0  0  0  0  0  0  0  0  0  0  0
   31.1929   15.7445   -9.4500 C   0  0  0  0  0  0  0  0  0  0  0  0
   30.0240   15.2678   -9.9745 C   0  0  0  0  0  0  0  0  0  0  0  0
   30.0904   14.6344  -11.1931 C   0  0  0  0  0  0  0  0  0  0  0  0
   31.2466   14.4825  -11.8522 N   0  0  0  0  0  0  0  0  0  0  0  0
   37.2547   14.6173  -14.1193 C   0  0  0  0  0  0  0  0  0  0  0  0
   38.5618   14.2000  -13.4983 C   0  0  0  0  0  0  0  0  0  0  0  0
   39.6860   14.7112  -14.3981 C   0  0  0  0  0  0  0  0  0  0  0  0
   40.7407   13.3250  -14.8926 S   0  0  0  0  0  0  0  0  0  0  0  0
   38.3776   10.3566  -19.4812 F   0  0  0  0  0  0  0  0  0  0  0  0
   38.8993   11.0291  -18.4202 C   0  0  0  0  0  0  0  0  0  0  0  0
   40.1449   11.6317  -18.5351 C   0  0  0  0  0  0  0  0  0  0  0  0
   40.6960   12.3166  -17.4820 C   0  0  0  0  0  0  0  0  0  0  0  0
   40.0440   12.4362  -16.2731 C   0  0  0  0  0  0  0  0  0  0  0  0
   38.8073   11.8331  -16.1715 C   0  0  0  0  0  0  0  0  0  0  0  0
   38.2339   11.1382  -17.2211 C   0  0  0  0  0  0  0  0  0  0  0  0
 17 18  1  0  0  0
 18 19  2  0  0  0
 19 20  1  0  0  0
 20 21  2  0  0  0
 21 16  1  0  0  0
 16 15  1  0  0  0
 15 14  1  0  0  0
 14 13  1  0  0  0
 13  1  1  0  0  0
  1  2  1  0  0  0
  2  3  1  0  0  0
  3  4  1  0  0  0
  4  7  1  0  0  0
  7  8  2  0  0  0
  8  9  1  0  0  0
  9 10  2  0  0  0
 10 11  1  0  0  0
 11 12  2  0  0  0
  4  5  1  0  0  0
  5  6  1  0  0  0
 21 22  1  0  0  0
 22 23  2  0  0  0
 23 18  1  0  0  0
  6  1  1  0  0  0
 12  7  1  0  0  0
M  END
> <minimizedAffinity>
-6.78969

> <CNNscore>
0.3099392056

> <CNNaffinity>
5.7320876122

> <CNN_VS>
1.7765986919

> <CNNaffinity_variance>
0.1509672105

$$$$
[H]c1nc(N2C([H])([H])C([H])([H])N(C([H])([H])C([H])([H])C([H])([H])Sc3c([H])c([H])c(F)c([H])c3[H])C([H])([H])C2([H])[H])c([H])c([H])c1[H]


 23 25  0  0  0  0  0  0  0  0999 V2000
   37.5467   15.4404  -11.9485 N   0  0  0  0  0  0  0  0  0  0  0  0
   36.3415   16.1611  -11.6200 C   0  0  0  0  0  0  0  0  0  0  0  0
   36.2720   16.6784  -10.2095 C   0  0  0  0  0  0  0  0  0  0  0  0
   37.4847   17.2921   -9.7662 N   0  0  0  0  0  0  0  0  0  0  0  0
   38.7355   16.8293  -10.3091 C   0  0  0  0  0  0  0  0  0  0  0  0
   38.5151   15.4612  -10.8819 C   0  0  0  0  0  0  0  0  0  0  0  0
   37.4303   18.3354   -8.8050 C   0  0  0  0  0  0  0  0  0  0  0  0
   36.9537   18.1471   -7.5281 C   0  0  0  0  0  0  0  0  0  0  0  0
   36.9002   19.1923   -6.6029 C   0  0  0  0  0  0  0  0  0  0  0  0
   37.3286   20.4408   -6.9587 C   0  0  0  0  0  0  0  0  0  0  0  0
   37.8009   20.6053   -8.2394 C   0  0  0  0  0  0  0  0  0  0  0  0
   37.8457   19.5927   -9.1152 N   0  0  0  0  0  0  0  0  0  0  0  0
   37.2598   14.0961  -12.3999 C   0  0  0  0  0  0  0  0  0  0  0  0
   36.0323   14.1154  -13.2724 C   0  0  0  0  0  0  0  0  0  0  0  0
   35.5478   12.6739  -13.4218 C   0  0  0  0  0  0  0  0  0  0  0  0
   35.2064   12.3299  -15.1664 S   0  0  0  0  0  0  0  0  0  0  0  0
   40.1020   10.6020  -18.0816 F   0  0  0  0  0  0  0  0  0  0  0  0
   38.9708   10.9855  -17.4309 C   0  0  0  0  0  0  0  0  0  0  0  0
   39.0699   11.7338  -16.2654 C   0  0  0  0  0  0  0  0  0  0  0  0
   37.9464   12.1347  -15.5881 C   0  0  0  0  0  0  0  0  0  0  0  0
   36.6799   11.8158  -16.0297 C   0  0  0  0  0  0  0  0  0  0  0  0
   36.5948   11.0720  -17.1887 C   0  0  0  0  0  0  0  0  0  0  0  0
   37.7148   10.6579  -17.8868 C   0  0  0  0  0  0  0  0  0  0  0  0
 17 18  1  0  0  0
 18 19  2  0  0  0
 19 20  1  0  0  0
 20 21  2  0  0  0
 21 16  1  0  0  0
 16 15  1  0  0  0
 15 14  1  0  0  0
 14 13  1  0  0  0
 13  1  1  0  0  0
  1  2  1  0  0  0
  2  3  1  0  0  0
  3  4  1  0  0  0
  4  7  1  0  0  0
  7  8  2  0  0  0
  8  9  1  0  0  0
  9 10  2  0  0  0
 10 11  1  0  0  0
 11 12  2  0  0  0
  4  5  1  0  0  0
  5  6  1  0  0  0
 21 22  1  0  0  0
 22 23  2  0  0  0
 23 18  1  0  0  0
  6  1  1  0  0  0
 12  7  1  0  0  0
M  END
> <minimizedAffinity>
-7.04228

> <CNNscore>
0.2937833071

> <CNNaffinity>
5.2219185829

> <CNN_VS>
1.5341124535

> <CNNaffinity_variance>
0.3014709055

$$$$
[H]c1nc(N2C([H])([H])C([H])([H])N(C([H])([H])C([H])([H])C([H])([H])Sc3c([H])c([H])c(F)c([H])c3[H])C([H])([H])C2([H])[H])c([H])c([H])c1[H]


 23 25  0  0  0  0  0  0  0  0999 V2000
   38.1061   11.0544  -16.9743 N   0  0  0  0  0  0  0  0  0  0  0  0
   39.3947   10.8739  -17.5961 C   0  0  0  0  0  0  0  0  0  0  0  0
   40.3723   11.9951  -17.3754 C   0  0  0  0  0  0  0  0  0  0  0  0
   40.4117   12.4604  -16.0241 N   0  0  0  0  0  0  0  0  0  0  0  0
   39.2180   12.3696  -15.2239 C   0  0  0  0  0  0  0  0  0  0  0  0
   38.0469   12.2351  -16.1506 C   0  0  0  0  0  0  0  0  0  0  0  0
   41.6174   13.0007  -15.5049 C   0  0  0  0  0  0  0  0  0  0  0  0
   41.6932   13.5998  -14.2686 C   0  0  0  0  0  0  0  0  0  0  0  0
   42.8893   14.1339  -13.7837 C   0  0  0  0  0  0  0  0  0  0  0  0
   44.0235   14.0680  -14.5440 C   0  0  0  0  0  0  0  0  0  0  0  0
   43.9242   13.4647  -15.7755 C   0  0  0  0  0  0  0  0  0  0  0  0
   42.7694   12.9573  -16.2264 N   0  0  0  0  0  0  0  0  0  0  0  0
   37.0333   11.0105  -17.9441 C   0  0  0  0  0  0  0  0  0  0  0  0
   35.7928   11.6161  -17.3418 C   0  0  0  0  0  0  0  0  0  0  0  0
   34.9688   10.4794  -16.7385 C   0  0  0  0  0  0  0  0  0  0  0  0
   33.5882   11.1710  -15.7930 S   0  0  0  0  0  0  0  0  0  0  0  0
   35.5447   14.7395  -11.4469 F   0  0  0  0  0  0  0  0  0  0  0  0
   35.1142   13.9093  -12.4346 C   0  0  0  0  0  0  0  0  0  0  0  0
   33.9967   14.2547  -13.1827 C   0  0  0  0  0  0  0  0  0  0  0  0
   33.5397   13.4372  -14.1850 C   0  0  0  0  0  0  0  0  0  0  0  0
   34.1635   12.2466  -14.4918 C   0  0  0  0  0  0  0  0  0  0  0  0
   35.2727   11.9146  -13.7414 C   0  0  0  0  0  0  0  0  0  0  0  0
   35.7498   12.7247  -12.7267 C   0  0  0  0  0  0  0  0  0  0  0  0
 17 18  1  0  0  0
 18 19  2  0  0  0
 19 20  1  0  0  0
 20 21  2  0  0  0
 21 16  1  0  0  0
 16 15  1  0  0  0
 15 14  1  0  0  0
 14 13  1  0  0  0
 13  1  1  0  0  0
  1  2  1  0  0  0
  2  3  1  0  0  0
  3  4  1  0  0  0
  4  7  1  0  0  0
  7  8  2  0  0  0
  8  9  1  0  0  0
  9 10  2  0  0  0
 10 11  1  0  0  0
 11 12  2  0  0  0
  4  5  1  0  0  0
  5  6  1  0  0  0
 21 22  1  0  0  0
 22 23  2  0  0  0
 23 18  1  0  0  0
  6  1  1  0  0  0
 12  7  1  0  0  0
M  END
> <minimizedAffinity>
-6.89083

> <CNNscore>
0.2092789561

> <CNNaffinity>
6.2610960007

> <CNN_VS>
1.3103156090

> <CNNaffinity_variance>
0.0446404889

$$$$
[H]c1nc(N2C([H])([H])C([H])([H])N(C([H])([H])C([H])([H])C([H])([H])Sc3c([H])c([H])c(F)c([H])c3[H])C([H])([H])C2([H])[H])c([H])c([H])c1[H]


 23 25  0  0  0  0  0  0  0  0999 V2000
   35.0490   12.9240  -14.9643 N   0  0  0  0  0  0  0  0  0  0  0  0
   34.1288   13.8396  -14.3361 C   0  0  0  0  0  0  0  0  0  0  0  0
   34.3118   14.0111  -12.8533 C   0  0  0  0  0  0  0  0  0  0  0  0
   35.6783   14.1607  -12.4603 N   0  0  0  0  0  0  0  0  0  0  0  0
   36.7009   13.5244  -13.2495 C   0  0  0  0  0  0  0  0  0  0  0  0
   36.0559   12.4373  -14.0559 C   0  0  0  0  0  0  0  0  0  0  0  0
   35.9950   14.9255  -11.3071 C   0  0  0  0  0  0  0  0  0  0  0  0
   36.2497   16.2767  -11.3566 C   0  0  0  0  0  0  0  0  0  0  0  0
   36.5699   17.0060  -10.2091 C   0  0  0  0  0  0  0  0  0  0  0  0
   36.6360   16.3768   -8.9973 C   0  0  0  0  0  0  0  0  0  0  0  0
   36.3774   15.0266   -8.9718 C   0  0  0  0  0  0  0  0  0  0  0  0
   36.0718   14.3412  -10.0814 N   0  0  0  0  0  0  0  0  0  0  0  0
   34.3560   11.8481  -15.6392 C   0  0  0  0  0  0  0  0  0  0  0  0
   35.3632   10.8575  -16.1612 C   0  0  0  0  0  0  0  0  0  0  0  0
   35.8206   11.3432  -17.5359 C   0  0  0  0  0  0  0  0  0  0  0  0
   37.3210   10.4535  -18.0217 S   0  0  0  0  0  0  0  0  0  0  0  0
   42.2399   13.2618  -16.1865 F   0  0  0  0  0  0  0  0  0  0  0  0
   41.1278   12.6121  -16.6236 C   0  0  0  0  0  0  0  0  0  0  0  0
   39.9585   12.6751  -15.8775 C   0  0  0  0  0  0  0  0  0  0  0  0
   38.8216   12.0300  -16.2937 C   0  0  0  0  0  0  0  0  0  0  0  0
   38.7891   11.2967  -17.4607 C   0  0  0  0  0  0  0  0  0  0  0  0
   39.9570   11.2417  -18.1931 C   0  0  0  0  0  0  0  0  0  0  0  0
   41.1139   11.8848  -17.7914 C   0  0  0  0  0  0  0  0  0  0  0  0
 17 18  1  0  0  0
 18 19  2  0  0  0
 19 20  1  0  0  0
 20 21  2  0  0  0
 21 16  1  0  0  0
 16 15  1  0  0  0
 15 14  1  0  0  0
 14 13  1  0  0  0
 13  1  1  0  0  0
  1  2  1  0  0  0
  2  3  1  0  0  0
  3  4  1  0  0  0
  4  7  1  0  0  0
  7  8  2  0  0  0
  8  9  1  0  0  0
  9 10  2  0  0  0
 10 11  1  0  0  0
 11 12  2  0  0  0
  4  5  1  0  0  0
  5  6  1  0  0  0
 21 22  1  0  0  0
 22 23  2  0  0  0
 23 18  1  0  0  0
  6  1  1  0  0  0
 12  7  1  0  0  0
M  END
> <minimizedAffinity>
-7.27844

> <CNNscore>
0.2048868537

> <CNNaffinity>
5.9222335815

> <CNN_VS>
1.2133878469

> <CNNaffinity_variance>
0.1523689479

$$$$
[H]c1nc(N2C([H])([H])C([H])([H])N(C([H])([H])C([H])([H])C([H])([H])Sc3c([H])c([H])c(F)c([H])c3[H])C([H])([H])C2([H])[H])c([H])c([H])c1[H]


 23 25  0  0  0  0  0  0  0  0999 V2000
   36.6764   15.6277  -11.7325 N   0  0  0  0  0  0  0  0  0  0  0  0
   36.0678   16.7558  -11.0716 C   0  0  0  0  0  0  0  0  0  0  0  0
   36.3144   16.8364   -9.5902 C   0  0  0  0  0  0  0  0  0  0  0  0
   37.6719   16.5790   -9.2227 N   0  0  0  0  0  0  0  0  0  0  0  0
   38.4565   15.6924  -10.0423 C   0  0  0  0  0  0  0  0  0  0  0  0
   37.5142   14.8534  -10.8525 C   0  0  0  0  0  0  0  0  0  0  0  0
   38.2123   17.1964   -8.0642 C   0  0  0  0  0  0  0  0  0  0  0  0
   39.2252   16.6320   -7.3236 C   0  0  0  0  0  0  0  0  0  0  0  0
   39.7334   17.2539   -6.1808 C   0  0  0  0  0  0  0  0  0  0  0  0
   39.2228   18.4549   -5.7736 C   0  0  0  0  0  0  0  0  0  0  0  0
   38.2116   19.0001   -6.5291 C   0  0  0  0  0  0  0  0  0  0  0  0
   37.7349   18.3909   -7.6228 N   0  0  0  0  0  0  0  0  0  0  0  0
   35.6933   14.8105  -12.4101 C   0  0  0  0  0  0  0  0  0  0  0  0
   36.3168   13.4927  -12.7881 C   0  0  0  0  0  0  0  0  0  0  0  0
   36.8990   13.6420  -14.1930 C   0  0  0  0  0  0  0  0  0  0  0  0
   38.6014   13.0257  -14.2092 S   0  0  0  0  0  0  0  0  0  0  0  0
   40.0735   10.7471  -19.5093 F   0  0  0  0  0  0  0  0  0  0  0  0
   39.7562   11.2804  -18.2989 C   0  0  0  0  0  0  0  0  0  0  0  0
   38.5672   10.9182  -17.6800 C   0  0  0  0  0  0  0  0  0  0  0  0
   38.2211   11.4397  -16.4593 C   0  0  0  0  0  0  0  0  0  0  0  0
   39.0307   12.3386  -15.7981 C   0  0  0  0  0  0  0  0  0  0  0  0
   40.2092   12.6905  -16.4233 C   0  0  0  0  0  0  0  0  0  0  0  0
   40.5769   12.1764  -17.6537 C   0  0  0  0  0  0  0  0  0  0  0  0
 17 18  1  0  0  0
 18 19  2  0  0  0
 19 20  1  0  0  0
 20 21  2  0  0  0
 21 16  1  0  0  0
 16 15  1  0  0  0
 15 14  1  0  0  0
 14 13  1  0  0  0
 13  1  1  0  0  0
  1  2  1  0  0  0
  2  3  1  0  0  0
  3  4  1  0  0  0
  4  7  1  0  0  0
  7  8  2  0  0  0
  8  9  1  0  0  0
  9 10  2  0  0  0
 10 11  1  0  0  0
 11 12  2  0  0  0
  4  5  1  0  0  0
  5  6  1  0  0  0
 21 22  1  0  0  0
 22 23  2  0  0  0
 23 18  1  0  0  0
  6  1  1  0  0  0
 12  7  1  0  0  0
M  END
> <minimizedAffinity>
-6.31494

> <CNNscore>
0.1988711506

> <CNNaffinity>
4.8274970055

> <CNN_VS>
0.9600498676

> <CNNaffinity_variance>
0.3383850455

$$$$
[H]c1nc(N2C([H])([H])C([H])([H])N(C([H])([H])C([H])([H])C([H])([H])Sc3c([H])c([H])c(F)c([H])c3[H])C([H])([H])C2([H])[H])c([H])c([H])c1[H]


 23 25  0  0  0  0  0  0  0  0999 V2000
   36.3628   14.7477  -12.1190 N   0  0  0  0  0  0  0  0  0  0  0  0
   35.2839   14.2772  -12.9523 C   0  0  0  0  0  0  0  0  0  0  0  0
   35.6617   13.9788  -14.3770 C   0  0  0  0  0  0  0  0  0  0  0  0
   36.8857   13.2508  -14.5025 N   0  0  0  0  0  0  0  0  0  0  0  0
   37.9065   13.4322  -13.5032 C   0  0  0  0  0  0  0  0  0  0  0  0
   37.6362   14.7246  -12.7926 C   0  0  0  0  0  0  0  0  0  0  0  0
   37.0683   12.3732  -15.6032 C   0  0  0  0  0  0  0  0  0  0  0  0
   36.0226   11.7287  -16.2230 C   0  0  0  0  0  0  0  0  0  0  0  0
   36.2285   10.8610  -17.2981 C   0  0  0  0  0  0  0  0  0  0  0  0
   37.4955   10.6353  -17.7594 C   0  0  0  0  0  0  0  0  0  0  0  0
   38.5246   11.2902  -17.1251 C   0  0  0  0  0  0  0  0  0  0  0  0
   38.3106   12.1193  -16.0949 N   0  0  0  0  0  0  0  0  0  0  0  0
   36.0706   16.0442  -11.5470 C   0  0  0  0  0  0  0  0  0  0  0  0
   35.2090   15.8662  -10.3247 C   0  0  0  0  0  0  0  0  0  0  0  0
   35.9304   14.8997   -9.3865 C   0  0  0  0  0  0  0  0  0  0  0  0
   36.6372   15.8216   -7.9976 S   0  0  0  0  0  0  0  0  0  0  0  0
   32.9021   15.9031   -3.3615 F   0  0  0  0  0  0  0  0  0  0  0  0
   33.7420   15.8689   -4.4309 C   0  0  0  0  0  0  0  0  0  0  0  0
   34.8511   16.7039   -4.4591 C   0  0  0  0  0  0  0  0  0  0  0  0
   35.7155   16.6911   -5.5241 C   0  0  0  0  0  0  0  0  0  0  0  0
   35.5238   15.8566   -6.6047 C   0  0  0  0  0  0  0  0  0  0  0  0
   34.4184   15.0319   -6.5648 C   0  0  0  0  0  0  0  0  0  0  0  0
   33.5347   15.0291   -5.5006 C   0  0  0  0  0  0  0  0  0  0  0  0
 17 18  1  0  0  0
 18 19  2  0  0  0
 19 20  1  0  0  0
 20 21  2  0  0  0
 21 16  1  0  0  0
 16 15  1  0  0  0
 15 14  1  0  0  0
 14 13  1  0  0  0
 13  1  1  0  0  0
  1  2  1  0  0  0
  2  3  1  0  0  0
  3  4  1  0  0  0
  4  7  1  0  0  0
  7  8  2  0  0  0
  8  9  1  0  0  0
  9 10  2  0  0  0
 10 11  1  0  0  0
 11 12  2  0  0  0
  4  5  1  0  0  0
  5  6  1  0  0  0
 21 22  1  0  0  0
 22 23  2  0  0  0
 23 18  1  0  0  0
  6  1  1  0  0  0
 12  7  1  0  0  0
M  END
> <minimizedAffinity>
-6.11661

> <CNNscore>
0.1757900566

> <CNNaffinity>
4.9459342957

> <CNN_VS>
0.8694460988

> <CNNaffinity_variance>
0.3553093076

$$$$
[H]c1nc(N2C([H])([H])C([H])([H])N(C([H])([H])C([H])([H])C([H])([H])Sc3c([H])c([H])c(F)c([H])c3[H])C([H])([H])C2([H])[H])c([H])c([H])c1[H]


 23 25  0  0  0  0  0  0  0  0999 V2000
   39.1901   14.0419  -13.5323 N   0  0  0  0  0  0  0  0  0  0  0  0
   39.3295   13.0803  -14.5979 C   0  0  0  0  0  0  0  0  0  0  0  0
   40.5083   13.3003  -15.5056 C   0  0  0  0  0  0  0  0  0  0  0  0
   41.7166   13.6096  -14.8070 N   0  0  0  0  0  0  0  0  0  0  0  0
   41.6320   14.3002  -13.5463 C   0  0  0  0  0  0  0  0  0  0  0  0
   40.2918   14.9684  -13.4719 C   0  0  0  0  0  0  0  0  0  0  0  0
   42.9653   13.2346  -15.3686 C   0  0  0  0  0  0  0  0  0  0  0  0
   43.0788   12.3080  -16.3793 C   0  0  0  0  0  0  0  0  0  0  0  0
   44.3201   11.9473  -16.9086 C   0  0  0  0  0  0  0  0  0  0  0  0
   45.4618   12.5202  -16.4217 C   0  0  0  0  0  0  0  0  0  0  0  0
   45.3242   13.4436  -15.4123 C   0  0  0  0  0  0  0  0  0  0  0  0
   44.1263   13.7787  -14.9151 N   0  0  0  0  0  0  0  0  0  0  0  0
   37.9111   14.7164  -13.5843 C   0  0  0  0  0  0  0  0  0  0  0  0
   36.8925   13.9112  -12.8211 C   0  0  0  0  0  0  0  0  0  0  0  0
   35.6763   14.8062  -12.5866 C   0  0  0  0  0  0  0  0  0  0  0  0
   34.2088   14.0319  -13.3113 S   0  0  0  0  0  0  0  0  0  0  0  0
   35.7196   10.1514  -17.5668 F   0  0  0  0  0  0  0  0  0  0  0  0
   35.3925   11.0508  -16.6003 C   0  0  0  0  0  0  0  0  0  0  0  0
   34.2477   10.8544  -15.8395 C   0  0  0  0  0  0  0  0  0  0  0  0
   33.8929   11.7446  -14.8579 C   0  0  0  0  0  0  0  0  0  0  0  0
   34.6499   12.8641  -14.5851 C   0  0  0  0  0  0  0  0  0  0  0  0
   35.7848   13.0480  -15.3478 C   0  0  0  0  0  0  0  0  0  0  0  0
   36.1604   12.1627  -16.3420 C   0  0  0  0  0  0  0  0  0  0  0  0
 17 18  1  0  0  0
 18 19  2  0  0  0
 19 20  1  0  0  0
 20 21  2  0  0  0
 21 16  1  0  0  0
 16 15  1  0  0  0
 15 14  1  0  0  0
 14 13  1  0  0  0
 13  1  1  0  0  0
  1  2  1  0  0  0
  2  3  1  0  0  0
  3  4  1  0  0  0
  4  7  1  0  0  0
  7  8  2  0  0  0
  8  9  1  0  0  0
  9 10  2  0  0  0
 10 11  1  0  0  0
 11 12  2  0  0  0
  4  5  1  0  0  0
  5  6  1  0  0  0
 21 22  1  0  0  0
 22 23  2  0  0  0
 23 18  1  0  0  0
  6  1  1  0  0  0
 12  7  1  0  0  0
M  END
> <minimizedAffinity>
-6.90888

> <CNNscore>
0.1733195484

> <CNNaffinity>
5.5761809349

> <CNN_VS>
0.9664611816

> <CNNaffinity_variance>
0.1671733558

$$$$
[H]c1nc(N2C([H])([H])C([H])([H])N(C([H])([H])C([H])([H])C([H])([H])Sc3c([H])c([H])c(F)c([H])c3[H])C([H])([H])C2([H])[H])c([H])c([H])c1[H]


 23 25  0  0  0  0  0  0  0  0999 V2000
   36.3116   14.8694  -12.0555 N   0  0  0  0  0  0  0  0  0  0  0  0
   37.5995   14.3200  -12.4007 C   0  0  0  0  0  0  0  0  0  0  0  0
   37.5566   13.0347  -13.1805 C   0  0  0  0  0  0  0  0  0  0  0  0
   36.5973   13.0420  -14.2404 N   0  0  0  0  0  0  0  0  0  0  0  0
   35.4101   13.8439  -14.0964 C   0  0  0  0  0  0  0  0  0  0  0  0
   35.2188   14.1325  -12.6375 C   0  0  0  0  0  0  0  0  0  0  0  0
   36.8327   12.2615  -15.4027 C   0  0  0  0  0  0  0  0  0  0  0  0
   38.0950   12.0187  -15.8934 C   0  0  0  0  0  0  0  0  0  0  0  0
   38.3007   11.2562  -17.0455 C   0  0  0  0  0  0  0  0  0  0  0  0
   37.2314   10.7298  -17.7150 C   0  0  0  0  0  0  0  0  0  0  0  0
   35.9798   10.9850  -17.2063 C   0  0  0  0  0  0  0  0  0  0  0  0
   35.7991   11.7186  -16.1001 N   0  0  0  0  0  0  0  0  0  0  0  0
   36.1635   15.0273  -10.6249 C   0  0  0  0  0  0  0  0  0  0  0  0
   34.9803   15.9150  -10.3421 C   0  0  0  0  0  0  0  0  0  0  0  0
   34.5584   15.6764   -8.8929 C   0  0  0  0  0  0  0  0  0  0  0  0
   35.1760   17.0253   -7.8548 S   0  0  0  0  0  0  0  0  0  0  0  0
   31.4450   18.1917   -3.3638 F   0  0  0  0  0  0  0  0  0  0  0  0
   32.2881   17.9424   -4.4016 C   0  0  0  0  0  0  0  0  0  0  0  0
   33.2371   16.9352   -4.2880 C   0  0  0  0  0  0  0  0  0  0  0  0
   34.1005   16.6614   -5.3182 C   0  0  0  0  0  0  0  0  0  0  0  0
   34.0654   17.3674   -6.5019 C   0  0  0  0  0  0  0  0  0  0  0  0
   33.1181   18.3655   -6.6025 C   0  0  0  0  0  0  0  0  0  0  0  0
   32.2383   18.6575   -5.5759 C   0  0  0  0  0  0  0  0  0  0  0  0
 17 18  1  0  0  0
 18 19  2  0  0  0
 19 20  1  0  0  0
 20 21  2  0  0  0
 21 16  1  0  0  0
 16 15  1  0  0  0
 15 14  1  0  0  0
 14 13  1  0  0  0
 13  1  1  0  0  0
  1  2  1  0  0  0
  2  3  1  0  0  0
  3  4  1  0  0  0
  4  7  1  0  0  0
  7  8  2  0  0  0
  8  9  1  0  0  0
  9 10  2  0  0  0
 10 11  1  0  0  0
 11 12  2  0  0  0
  4  5  1  0  0  0
  5  6  1  0  0  0
 21 22  1  0  0  0
 22 23  2  0  0  0
 23 18  1  0  0  0
  6  1  1  0  0  0
 12  7  1  0  0  0
M  END
> <minimizedAffinity>
-6.14134

> <CNNscore>
0.1726752371

> <CNNaffinity>
4.9694457054

> <CNN_VS>
0.8581002355

> <CNNaffinity_variance>
0.3169477284

$$$$
[H]c1c([H])c([H])c2c(c1[H])[C@]([H])(c1c([H])c([H])c(F)c([H])c1[H])C([H])([H])C([H])([H])[C@]2([H])N([H])C([H])([H])[H]


 20 22  0  0  0  0  0  0  0  0999 V2000
   34.5287   13.2672  -13.5855 C   0  0  0  0  0  0  0  0  0  0  0  0
   34.1541   12.2352  -14.5961 C   0  0  0  0  0  0  0  0  0  0  0  0
   35.0595   12.3064  -15.8033 C   0  0  0  0  0  0  0  0  0  0  0  0
   36.4475   11.8833  -15.2996 C   0  0  0  0  0  0  0  0  0  0  0  0
   36.8853   13.0229  -14.4361 C   0  0  0  0  0  0  0  0  0  0  0  0
   38.1936   13.4215  -14.4480 C   0  0  0  0  0  0  0  0  0  0  0  0
   38.5753   14.4771  -13.6433 C   0  0  0  0  0  0  0  0  0  0  0  0
   37.6916   15.1356  -12.8370 C   0  0  0  0  0  0  0  0  0  0  0  0
   36.3703   14.7048  -12.8493 C   0  0  0  0  0  0  0  0  0  0  0  0
   35.9553   13.6557  -13.6394 C   0  0  0  0  0  0  0  0  0  0  0  0
   37.3757   11.5573  -16.3748 C   0  0  0  0  0  0  0  0  0  0  0  0
   38.7125   11.8572  -16.2462 C   0  0  0  0  0  0  0  0  0  0  0  0
   39.6234   11.5654  -17.2388 C   0  0  0  0  0  0  0  0  0  0  0  0
   39.2019   10.9579  -18.3963 C   0  0  0  0  0  0  0  0  0  0  0  0
   40.1117   10.6743  -19.3727 F   0  0  0  0  0  0  0  0  0  0  0  0
   37.8793   10.6480  -18.5520 C   0  0  0  0  0  0  0  0  0  0  0  0
   36.9625   10.9482  -17.5386 C   0  0  0  0  0  0  0  0  0  0  0  0
   32.7081   14.3913  -12.4743 C   0  0  0  0  0  0  0  0  0  0  0  0
   33.6352   14.4102  -13.5713 N   0  0  0  0  0  0  0  0  0  0  0  0
   34.2371   15.2579  -13.4722 H   0  0  0  0  0  0  0  0  0  0  0  0
 18 19  1  0  0  0
 19  1  1  0  0  0
  1  2  1  0  0  0
  2  3  1  0  0  0
  3  4  1  0  0  0
  4 11  1  0  0  0
 11 12  2  0  0  0
 12 13  1  0  0  0
 13 14  2  0  0  0
 14 15  1  0  0  0
 14 16  1  0  0  0
 16 17  2  0  0  0
  4  5  1  0  0  0
  5  6  2  0  0  0
  6  7  1  0  0  0
  7  8  2  0  0  0
  8  9  1  0  0  0
  9 10  2  0  0  0
 10  1  1  0  0  0
 17 11  1  0  0  0
 10  5  1  0  0  0
 19 20  1  0  0  0
M  END
> <minimizedAffinity>
-8.57999

> <CNNscore>
0.8922760487

> <CNNaffinity>
6.1731271744

> <CNN_VS>
5.5081334114

> <CNNaffinity_variance>
0.0664697289

$$$$
[H]c1c([H])c([H])c2c(c1[H])[C@]([H])(c1c([H])c([H])c(F)c([H])c1[H])C([H])([H])C([H])([H])[C@]2([H])N([H])C([H])([H])[H]


 20 22  0  0  0  0  0  0  0  0999 V2000
   37.6594   14.7189  -11.7379 C   0  0  0  0  0  0  0  0  0  0  0  0
   36.2650   14.2337  -11.5222 C   0  0  0  0  0  0  0  0  0  0  0  0
   35.5741   13.9694  -12.8394 C   0  0  0  0  0  0  0  0  0  0  0  0
   36.3177   12.7771  -13.4596 C   0  0  0  0  0  0  0  0  0  0  0  0
   37.6505   13.3372  -13.8420 C   0  0  0  0  0  0  0  0  0  0  0  0
   38.2469   12.9383  -15.0065 C   0  0  0  0  0  0  0  0  0  0  0  0
   39.4773   13.4695  -15.3402 C   0  0  0  0  0  0  0  0  0  0  0  0
   40.1179   14.3785  -14.5478 C   0  0  0  0  0  0  0  0  0  0  0  0
   39.4837   14.7619  -13.3720 C   0  0  0  0  0  0  0  0  0  0  0  0
   38.2568   14.2523  -13.0084 C   0  0  0  0  0  0  0  0  0  0  0  0
   35.5926   12.1555  -14.5604 C   0  0  0  0  0  0  0  0  0  0  0  0
   34.2344   11.9565  -14.4662 C   0  0  0  0  0  0  0  0  0  0  0  0
   33.5112   11.3728  -15.4843 C   0  0  0  0  0  0  0  0  0  0  0  0
   34.1487   10.9720  -16.6330 C   0  0  0  0  0  0  0  0  0  0  0  0
   33.4236   10.3946  -17.6340 F   0  0  0  0  0  0  0  0  0  0  0  0
   35.4980   11.1571  -16.7547 C   0  0  0  0  0  0  0  0  0  0  0  0
   36.2232   11.7506  -15.7157 C   0  0  0  0  0  0  0  0  0  0  0  0
   36.7476   16.7263  -10.7624 C   0  0  0  0  0  0  0  0  0  0  0  0
   37.8094   16.1480  -11.5378 N   0  0  0  0  0  0  0  0  0  0  0  0
   38.7033   16.2837  -11.0151 H   0  0  0  0  0  0  0  0  0  0  0  0
 18 19  1  0  0  0
 19  1  1  0  0  0
  1  2  1  0  0  0
  2  3  1  0  0  0
  3  4  1  0  0  0
  4 11  1  0  0  0
 11 12  2  0  0  0
 12 13  1  0  0  0
 13 14  2  0  0  0
 14 15  1  0  0  0
 14 16  1  0  0  0
 16 17  2  0  0  0
  4  5  1  0  0  0
  5  6  2  0  0  0
  6  7  1  0  0  0
  7  8  2  0  0  0
  8  9  1  0  0  0
  9 10  2  0  0  0
 10  1  1  0  0  0
 17 11  1  0  0  0
 10  5  1  0  0  0
 19 20  1  0  0  0
M  END
> <minimizedAffinity>
-7.72885

> <CNNscore>
0.6683993936

> <CNNaffinity>
5.6073656082

> <CNN_VS>
3.7479598522

> <CNNaffinity_variance>
0.0761745349

$$$$
[H]c1c([H])c([H])c2c(c1[H])[C@]([H])(c1c([H])c([H])c(F)c([H])c1[H])C([H])([H])C([H])([H])[C@]2([H])N([H])C([H])([H])[H]


 20 22  0  0  0  0  0  0  0  0999 V2000
   36.4429   13.9091  -12.0566 C   0  0  0  0  0  0  0  0  0  0  0  0
   35.5364   12.8949  -12.6697 C   0  0  0  0  0  0  0  0  0  0  0  0
   35.7723   12.7876  -14.1580 C   0  0  0  0  0  0  0  0  0  0  0  0
   37.1837   12.2004  -14.3075 C   0  0  0  0  0  0  0  0  0  0  0  0
   38.0877   13.3060  -13.8642 C   0  0  0  0  0  0  0  0  0  0  0  0
   39.2706   13.5201  -14.5167 C   0  0  0  0  0  0  0  0  0  0  0  0
   40.0893   14.5476  -14.0909 C   0  0  0  0  0  0  0  0  0  0  0  0
   39.7582   15.3562  -13.0416 C   0  0  0  0  0  0  0  0  0  0  0  0
   38.5494   15.1110  -12.4011 C   0  0  0  0  0  0  0  0  0  0  0  0
   37.7089   14.0950  -12.7994 C   0  0  0  0  0  0  0  0  0  0  0  0
   37.4615   11.7028  -15.6488 C   0  0  0  0  0  0  0  0  0  0  0  0
   36.4263   11.4603  -16.5224 C   0  0  0  0  0  0  0  0  0  0  0  0
   36.6458   10.9902  -17.7995 C   0  0  0  0  0  0  0  0  0  0  0  0
   37.9283   10.7512  -18.2290 C   0  0  0  0  0  0  0  0  0  0  0  0
   38.1342   10.2850  -19.4946 F   0  0  0  0  0  0  0  0  0  0  0  0
   38.9768   10.9831  -17.3827 C   0  0  0  0  0  0  0  0  0  0  0  0
   38.7438   11.4605  -16.0882 C   0  0  0  0  0  0  0  0  0  0  0  0
   34.3491   15.0830  -11.8314 C   0  0  0  0  0  0  0  0  0  0  0  0
   35.7810   15.1635  -11.7514 N   0  0  0  0  0  0  0  0  0  0  0  0
   36.0375   15.4045  -10.7681 H   0  0  0  0  0  0  0  0  0  0  0  0
 18 19  1  0  0  0
 19  1  1  0  0  0
  1  2  1  0  0  0
  2  3  1  0  0  0
  3  4  1  0  0  0
  4 11  1  0  0  0
 11 12  2  0  0  0
 12 13  1  0  0  0
 13 14  2  0  0  0
 14 15  1  0  0  0
 14 16  1  0  0  0
 16 17  2  0  0  0
  4  5  1  0  0  0
  5  6  2  0  0  0
  6  7  1  0  0  0
  7  8  2  0  0  0
  8  9  1  0  0  0
  9 10  2  0  0  0
 10  1  1  0  0  0
 17 11  1  0  0  0
 10  5  1  0  0  0
 19 20  1  0  0  0
M  END
> <minimizedAffinity>
-8.33606

> <CNNscore>
0.5869253874

> <CNNaffinity>
5.6504263878

> <CNN_VS>
3.3163785934

> <CNNaffinity_variance>
0.1405930668

$$$$
[H]c1c([H])c([H])c2c(c1[H])[C@]([H])(c1c([H])c([H])c(F)c([H])c1[H])C([H])([H])C([H])([H])[C@]2([H])N([H])C([H])([H])[H]


 20 22  0  0  0  0  0  0  0  0999 V2000
   36.3228   14.1420  -12.6423 C   0  0  0  0  0  0  0  0  0  0  0  0
   37.7825   14.3980  -12.8156 C   0  0  0  0  0  0  0  0  0  0  0  0
   38.4336   13.2960  -13.6180 C   0  0  0  0  0  0  0  0  0  0  0  0
   37.8399   13.4120  -15.0299 C   0  0  0  0  0  0  0  0  0  0  0  0
   36.4213   12.9679  -14.8668 C   0  0  0  0  0  0  0  0  0  0  0  0
   35.8285   12.2141  -15.8420 C   0  0  0  0  0  0  0  0  0  0  0  0
   34.5179   11.8141  -15.6698 C   0  0  0  0  0  0  0  0  0  0  0  0
   33.7946   12.1454  -14.5600 C   0  0  0  0  0  0  0  0  0  0  0  0
   34.4275   12.9121  -13.5888 C   0  0  0  0  0  0  0  0  0  0  0  0
   35.7332   13.3282  -13.7282 C   0  0  0  0  0  0  0  0  0  0  0  0
   38.5884   12.6651  -16.0327 C   0  0  0  0  0  0  0  0  0  0  0  0
   39.7615   13.1755  -16.5393 C   0  0  0  0  0  0  0  0  0  0  0  0
   40.4998   12.5011  -17.4882 C   0  0  0  0  0  0  0  0  0  0  0  0
   40.0666   11.2833  -17.9528 C   0  0  0  0  0  0  0  0  0  0  0  0
   40.8044   10.6248  -18.8927 F   0  0  0  0  0  0  0  0  0  0  0  0
   38.9043   10.7514  -17.4675 C   0  0  0  0  0  0  0  0  0  0  0  0
   38.1620   11.4436  -16.5043 C   0  0  0  0  0  0  0  0  0  0  0  0
   36.1446   14.6366  -10.2893 C   0  0  0  0  0  0  0  0  0  0  0  0
   35.9769   13.6518  -11.3214 N   0  0  0  0  0  0  0  0  0  0  0  0
   34.9670   13.3878  -11.3563 H   0  0  0  0  0  0  0  0  0  0  0  0
 18 19  1  0  0  0
 19  1  1  0  0  0
  1  2  1  0  0  0
  2  3  1  0  0  0
  3  4  1  0  0  0
  4 11  1  0  0  0
 11 12  2  0  0  0
 12 13  1  0  0  0
 13 14  2  0  0  0
 14 15  1  0  0  0
 14 16  1  0  0  0
 16 17  2  0  0  0
  4  5  1  0  0  0
  5  6  2  0  0  0
  6  7  1  0  0  0
  7  8  2  0  0  0
  8  9  1  0  0  0
  9 10  2  0  0  0
 10  1  1  0  0  0
 17 11  1  0  0  0
 10  5  1  0  0  0
 19 20  1  0  0  0
M  END
> <minimizedAffinity>
-8.24245

> <CNNscore>
0.5612146258

> <CNNaffinity>
5.7374258041

> <CNN_VS>
3.2199273109

> <CNNaffinity_variance>
0.1136794239

$$$$
[H]c1c([H])c([H])c2c(c1[H])[C@]([H])(c1c([H])c([H])c(F)c([H])c1[H])C([H])([H])C([H])([H])[C@]2([H])N([H])C([H])([H])[H]


 20 22  0  0  0  0  0  0  0  0999 V2000
   38.6323   15.1342  -12.3207 C   0  0  0  0  0  0  0  0  0  0  0  0
   39.8768   15.3219  -13.1221 C   0  0  0  0  0  0  0  0  0  0  0  0
   40.1971   14.0816  -13.9229 C   0  0  0  0  0  0  0  0  0  0  0  0
   39.0710   13.9622  -14.9606 C   0  0  0  0  0  0  0  0  0  0  0  0
   37.8695   13.5864  -14.1536 C   0  0  0  0  0  0  0  0  0  0  0  0
   36.9684   12.6873  -14.6539 C   0  0  0  0  0  0  0  0  0  0  0  0
   35.8666   12.3542  -13.8907 C   0  0  0  0  0  0  0  0  0  0  0  0
   35.6466   12.8915  -12.6547 C   0  0  0  0  0  0  0  0  0  0  0  0
   36.5819   13.8016  -12.1768 C   0  0  0  0  0  0  0  0  0  0  0  0
   37.6918   14.1565  -12.9112 C   0  0  0  0  0  0  0  0  0  0  0  0
   39.3793   13.0339  -16.0410 C   0  0  0  0  0  0  0  0  0  0  0  0
   40.2889   13.3841  -17.0123 C   0  0  0  0  0  0  0  0  0  0  0  0
   40.6091   12.5355  -18.0504 C   0  0  0  0  0  0  0  0  0  0  0  0
   40.0123   11.3012  -18.1333 C   0  0  0  0  0  0  0  0  0  0  0  0
   40.3357   10.4696  -19.1654 F   0  0  0  0  0  0  0  0  0  0  0  0
   39.1044   10.9262  -17.1822 C   0  0  0  0  0  0  0  0  0  0  0  0
   38.7862   11.7946  -16.1322 C   0  0  0  0  0  0  0  0  0  0  0  0
   39.2905   16.0691  -10.1981 C   0  0  0  0  0  0  0  0  0  0  0  0
   38.8851   14.8911  -10.9129 N   0  0  0  0  0  0  0  0  0  0  0  0
   37.9852   14.5563  -10.5019 H   0  0  0  0  0  0  0  0  0  0  0  0
 18 19  1  0  0  0
 19  1  1  0  0  0
  1  2  1  0  0  0
  2  3  1  0  0  0
  3  4  1  0  0  0
  4 11  1  0  0  0
 11 12  2  0  0  0
 12 13  1  0  0  0
 13 14  2  0  0  0
 14 15  1  0  0  0
 14 16  1  0  0  0
 16 17  2  0  0  0
  4  5  1  0  0  0
  5  6  2  0  0  0
  6  7  1  0  0  0
  7  8  2  0  0  0
  8  9  1  0  0  0
  9 10  2  0  0  0
 10  1  1  0  0  0
 17 11  1  0  0  0
 10  5  1  0  0  0
 19 20  1  0  0  0
M  END
> <minimizedAffinity>
-7.83740

> <CNNscore>
0.5200337172

> <CNNaffinity>
5.4402933121

> <CNN_VS>
2.8291358948

> <CNNaffinity_variance>
0.1196386367

$$$$
[H]c1c([H])c([H])c2c(c1[H])[C@]([H])(c1c([H])c([H])c(F)c([H])c1[H])C([H])([H])C([H])([H])[C@]2([H])N([H])C([H])([H])[H]


 20 22  0  0  0  0  0  0  0  0999 V2000
   38.9011   16.2880   -8.5609 C   0  0  0  0  0  0  0  0  0  0  0  0
   40.1891   15.8146   -9.1467 C   0  0  0  0  0  0  0  0  0  0  0  0
   41.1494   15.3817   -8.0637 C   0  0  0  0  0  0  0  0  0  0  0  0
   40.5177   14.1323   -7.4319 C   0  0  0  0  0  0  0  0  0  0  0  0
   39.3305   14.6588   -6.6906 C   0  0  0  0  0  0  0  0  0  0  0  0
   38.9980   14.1282   -5.4746 C   0  0  0  0  0  0  0  0  0  0  0  0
   37.8983   14.6307   -4.8072 C   0  0  0  0  0  0  0  0  0  0  0  0
   37.1324   15.6384   -5.3197 C   0  0  0  0  0  0  0  0  0  0  0  0
   37.4984   16.1546   -6.5571 C   0  0  0  0  0  0  0  0  0  0  0  0
   38.5889   15.6772   -7.2500 C   0  0  0  0  0  0  0  0  0  0  0  0
   41.4475   13.3709   -6.6075 C   0  0  0  0  0  0  0  0  0  0  0  0
   41.3911   11.9961   -6.5949 C   0  0  0  0  0  0  0  0  0  0  0  0
   42.2521   11.2387   -5.8299 C   0  0  0  0  0  0  0  0  0  0  0  0
   43.1996   11.8576   -5.0517 C   0  0  0  0  0  0  0  0  0  0  0  0
   44.0462   11.0985   -4.2977 F   0  0  0  0  0  0  0  0  0  0  0  0
   43.2791   13.2226   -5.0443 C   0  0  0  0  0  0  0  0  0  0  0  0
   42.4007   13.9826   -5.8244 C   0  0  0  0  0  0  0  0  0  0  0  0
   38.0515   18.2419   -9.6893 C   0  0  0  0  0  0  0  0  0  0  0  0
   38.7683   17.7327   -8.5535 N   0  0  0  0  0  0  0  0  0  0  0  0
   38.2291   17.9782   -7.6934 H   0  0  0  0  0  0  0  0  0  0  0  0
 18 19  1  0  0  0
 19  1  1  0  0  0
  1  2  1  0  0  0
  2  3  1  0  0  0
  3  4  1  0  0  0
  4 11  1  0  0  0
 11 12  2  0  0  0
 12 13  1  0  0  0
 13 14  2  0  0  0
 14 15  1  0  0  0
 14 16  1  0  0  0
 16 17  2  0  0  0
  4  5  1  0  0  0
  5  6  2  0  0  0
  6  7  1  0  0  0
  7  8  2  0  0  0
  8  9  1  0  0  0
  9 10  2  0  0  0
 10  1  1  0  0  0
 17 11  1  0  0  0
 10  5  1  0  0  0
 19 20  1  0  0  0
M  END
> <minimizedAffinity>
-4.40330

> <CNNscore>
0.4717679322

> <CNNaffinity>
4.0786662102

> <CNN_VS>
1.9241839647

> <CNNaffinity_variance>
0.4479013085

$$$$
[H]c1c([H])c([H])c2c(c1[H])[C@]([H])(c1c([H])c([H])c(F)c([H])c1[H])C([H])([H])C([H])([H])[C@]2([H])N([H])C([H])([H])[H]


 20 22  0  0  0  0  0  0  0  0999 V2000
   37.0581   15.1685  -12.1255 C   0  0  0  0  0  0  0  0  0  0  0  0
   38.3519   14.7938  -12.7675 C   0  0  0  0  0  0  0  0  0  0  0  0
   38.2311   13.4787  -13.5012 C   0  0  0  0  0  0  0  0  0  0  0  0
   37.2717   13.7486  -14.6698 C   0  0  0  0  0  0  0  0  0  0  0  0
   35.9408   13.9346  -14.0138 C   0  0  0  0  0  0  0  0  0  0  0  0
   34.8142   13.4365  -14.6084 C   0  0  0  0  0  0  0  0  0  0  0  0
   33.5958   13.6190  -13.9840 C   0  0  0  0  0  0  0  0  0  0  0  0
   33.4780   14.2791  -12.7945 C   0  0  0  0  0  0  0  0  0  0  0  0
   34.6426   14.7722  -12.2181 C   0  0  0  0  0  0  0  0  0  0  0  0
   35.8739   14.6083  -12.8132 C   0  0  0  0  0  0  0  0  0  0  0  0
   37.2957   12.7057  -15.6875 C   0  0  0  0  0  0  0  0  0  0  0  0
   38.4977   12.2164  -16.1450 C   0  0  0  0  0  0  0  0  0  0  0  0
   38.5645   11.2303  -17.1059 C   0  0  0  0  0  0  0  0  0  0  0  0
   37.4079   10.7098  -17.6329 C   0  0  0  0  0  0  0  0  0  0  0  0
   37.4854    9.7347  -18.5840 F   0  0  0  0  0  0  0  0  0  0  0  0
   36.1989   11.1767  -17.1973 C   0  0  0  0  0  0  0  0  0  0  0  0
   36.1415   12.1779  -16.2215 C   0  0  0  0  0  0  0  0  0  0  0  0
   37.5242   16.0545   -9.9322 C   0  0  0  0  0  0  0  0  0  0  0  0
   37.0377   14.9377  -10.6933 N   0  0  0  0  0  0  0  0  0  0  0  0
   36.0395   14.7773  -10.4314 H   0  0  0  0  0  0  0  0  0  0  0  0
 18 19  1  0  0  0
 19  1  1  0  0  0
  1  2  1  0  0  0
  2  3  1  0  0  0
  3  4  1  0  0  0
  4 11  1  0  0  0
 11 12  2  0  0  0
 12 13  1  0  0  0
 13 14  2  0  0  0
 14 15  1  0  0  0
 14 16  1  0  0  0
 16 17  2  0  0  0
  4  5  1  0  0  0
  5  6  2  0  0  0
  6  7  1  0  0  0
  7  8  2  0  0  0
  8  9  1  0  0  0
  9 10  2  0  0  0
 10  1  1  0  0  0
 17 11  1  0  0  0
 10  5  1  0  0  0
 19 20  1  0  0  0
M  END
> <minimizedAffinity>
-7.81000

> <CNNscore>
0.4555837214

> <CNNaffinity>
5.4416947365

> <CNN_VS>
2.4791474342

> <CNNaffinity_variance>
0.1954791844

$$$$
[H]c1c([H])c([H])c2c(c1[H])[C@]([H])(c1c([H])c([H])c(F)c([H])c1[H])C([H])([H])C([H])([H])[C@]2([H])N([H])C([H])([H])[H]


 20 22  0  0  0  0  0  0  0  0999 V2000
   39.4379   14.1186  -13.6398 C   0  0  0  0  0  0  0  0  0  0  0  0
   38.0774   14.1369  -13.0274 C   0  0  0  0  0  0  0  0  0  0  0  0
   37.0101   13.9157  -14.0734 C   0  0  0  0  0  0  0  0  0  0  0  0
   37.2069   12.4723  -14.5601 C   0  0  0  0  0  0  0  0  0  0  0  0
   38.4854   12.5194  -15.3344 C   0  0  0  0  0  0  0  0  0  0  0  0
   38.6124   11.7867  -16.4824 C   0  0  0  0  0  0  0  0  0  0  0  0
   39.8018   11.8464  -17.1819 C   0  0  0  0  0  0  0  0  0  0  0  0
   40.8540   12.6112  -16.7667 C   0  0  0  0  0  0  0  0  0  0  0  0
   40.6910   13.3429  -15.5964 C   0  0  0  0  0  0  0  0  0  0  0  0
   39.5188   13.3067  -14.8740 C   0  0  0  0  0  0  0  0  0  0  0  0
   36.0704   11.9586  -15.3140 C   0  0  0  0  0  0  0  0  0  0  0  0
   34.8015   12.0371  -14.7874 C   0  0  0  0  0  0  0  0  0  0  0  0
   33.6999   11.5638  -15.4676 C   0  0  0  0  0  0  0  0  0  0  0  0
   33.8549   10.9942  -16.7078 C   0  0  0  0  0  0  0  0  0  0  0  0
   32.7580   10.5282  -17.3719 F   0  0  0  0  0  0  0  0  0  0  0  0
   35.1041   10.9027  -17.2561 C   0  0  0  0  0  0  0  0  0  0  0  0
   36.2161   11.3861  -16.5578 C   0  0  0  0  0  0  0  0  0  0  0  0
   40.7656   15.8710  -12.6502 C   0  0  0  0  0  0  0  0  0  0  0  0
   40.0164   15.4398  -13.7973 N   0  0  0  0  0  0  0  0  0  0  0  0
   40.6708   15.3839  -14.6094 H   0  0  0  0  0  0  0  0  0  0  0  0
 18 19  1  0  0  0
 19  1  1  0  0  0
  1  2  1  0  0  0
  2  3  1  0  0  0
  3  4  1  0  0  0
  4 11  1  0  0  0
 11 12  2  0  0  0
 12 13  1  0  0  0
 13 14  2  0  0  0
 14 15  1  0  0  0
 14 16  1  0  0  0
 16 17  2  0  0  0
  4  5  1  0  0  0
  5  6  2  0  0  0
  6  7  1  0  0  0
  7  8  2  0  0  0
  8  9  1  0  0  0
  9 10  2  0  0  0
 10  1  1  0  0  0
 17 11  1  0  0  0
 10  5  1  0  0  0
 19 20  1  0  0  0
M  END
> <minimizedAffinity>
-9.04065

> <CNNscore>
0.4317219257

> <CNNaffinity>
5.8599119186

> <CNN_VS>
2.5298523903

> <CNNaffinity_variance>
0.0845835805

$$$$
[H]c1c([H])c([H])c2c(c1[H])[C@]([H])(c1c([H])c([H])c(F)c([H])c1[H])C([H])([H])C([H])([H])[C@]2([H])N([H])C([H])([H])[H]


 20 22  0  0  0  0  0  0  0  0999 V2000
   41.6087   12.8662  -15.6558 C   0  0  0  0  0  0  0  0  0  0  0  0
   41.1945   13.5116  -14.3758 C   0  0  0  0  0  0  0  0  0  0  0  0
   39.7523   13.9574  -14.4364 C   0  0  0  0  0  0  0  0  0  0  0  0
   38.9271   12.6643  -14.5141 C   0  0  0  0  0  0  0  0  0  0  0  0
   39.2117   12.1314  -15.8821 C   0  0  0  0  0  0  0  0  0  0  0  0
   38.2099   11.5450  -16.6054 C   0  0  0  0  0  0  0  0  0  0  0  0
   38.4952   11.0609  -17.8670 C   0  0  0  0  0  0  0  0  0  0  0  0
   39.7425   11.1479  -18.4162 C   0  0  0  0  0  0  0  0  0  0  0  0
   40.7368   11.7496  -17.6541 C   0  0  0  0  0  0  0  0  0  0  0  0
   40.4872   12.2430  -16.3926 C   0  0  0  0  0  0  0  0  0  0  0  0
   37.5112   12.8668  -14.2344 C   0  0  0  0  0  0  0  0  0  0  0  0
   36.8798   12.0994  -13.2827 C   0  0  0  0  0  0  0  0  0  0  0  0
   35.5428   12.2592  -12.9875 C   0  0  0  0  0  0  0  0  0  0  0  0
   34.8044   13.2070  -13.6531 C   0  0  0  0  0  0  0  0  0  0  0  0
   33.4817   13.3562  -13.3538 F   0  0  0  0  0  0  0  0  0  0  0  0
   35.4053   13.9842  -14.6040 C   0  0  0  0  0  0  0  0  0  0  0  0
   36.7630   13.8144  -14.8964 C   0  0  0  0  0  0  0  0  0  0  0  0
   43.8305   13.6155  -16.2172 C   0  0  0  0  0  0  0  0  0  0  0  0
   42.4253   13.7229  -16.4948 N   0  0  0  0  0  0  0  0  0  0  0  0
   42.2653   13.4154  -17.4800 H   0  0  0  0  0  0  0  0  0  0  0  0
 18 19  1  0  0  0
 19  1  1  0  0  0
  1  2  1  0  0  0
  2  3  1  0  0  0
  3  4  1  0  0  0
  4 11  1  0  0  0
 11 12  2  0  0  0
 12 13  1  0  0  0
 13 14  2  0  0  0
 14 15  1  0  0  0
 14 16  1  0  0  0
 16 17  2  0  0  0
  4  5  1  0  0  0
  5  6  2  0  0  0
  6  7  1  0  0  0
  7  8  2  0  0  0
  8  9  1  0  0  0
  9 10  2  0  0  0
 10  1  1  0  0  0
 17 11  1  0  0  0
 10  5  1  0  0  0
 19 20  1  0  0  0
M  END
> <minimizedAffinity>
-8.45692

> <CNNscore>
0.4132901132

> <CNNaffinity>
5.8438224792

> <CNN_VS>
2.4151940346

> <CNNaffinity_variance>
0.1753329933

$$$$
[H]OC(=O)C([H])(Oc1c([H])c([H])c(-c2noc([H])c3c(C(=O)C4([H])C([H])([H])C([H])([H])C([H])([H])C4([H])[H])c([H])c([H])c2-3)c([H])c1[H])C(=O)O[H]


 32 35  0  0  0  0  0  0  0  0999 V2000
   38.1275   11.9351  -16.2747 C   0  0  0  0  0  0  0  0  0  0  0  0
   38.2675   12.6464  -15.1020 C   0  0  0  0  0  0  0  0  0  0  0  0
   39.5883   13.0351  -14.9050 C   0  0  0  0  0  0  0  0  0  0  0  0
   40.3256   12.5681  -15.9704 C   0  0  0  0  0  0  0  0  0  0  0  0
   41.6489   12.6224  -16.3533 C   0  0  0  0  0  0  0  0  0  0  0  0
   42.0354   12.0347  -17.5065 N   0  0  0  0  0  0  0  0  0  0  0  0
   41.1953   11.4222  -18.2602 O   0  0  0  0  0  0  0  0  0  0  0  0
   39.9184   11.3109  -17.9918 C   0  0  0  0  0  0  0  0  0  0  0  0
   39.3843   11.8686  -16.8374 C   0  0  0  0  0  0  0  0  0  0  0  0
   42.6297   13.3136  -15.5215 C   0  0  0  0  0  0  0  0  0  0  0  0
   42.2791   13.7147  -14.2508 C   0  0  0  0  0  0  0  0  0  0  0  0
   43.1707   14.3814  -13.4183 C   0  0  0  0  0  0  0  0  0  0  0  0
   44.4430   14.6640  -13.8427 C   0  0  0  0  0  0  0  0  0  0  0  0
   44.8081   14.2621  -15.1284 C   0  0  0  0  0  0  0  0  0  0  0  0
   43.9139   13.6075  -15.9294 C   0  0  0  0  0  0  0  0  0  0  0  0
   45.3657   15.3147  -13.0773 O   0  0  0  0  0  0  0  0  0  0  0  0
   45.5025   16.6651  -12.8059 C   0  0  0  0  0  0  0  0  0  0  0  0
   46.5704   17.2518  -13.6327 C   0  0  0  0  0  0  0  0  0  0  0  0
   46.5178   18.4606  -14.0057 O   0  0  0  0  0  0  0  0  0  0  0  0
   47.6648   16.5319  -14.0408 O   0  0  0  0  0  0  0  0  0  0  0  0
   47.7851   16.2495  -15.0032 H   0  0  0  0  0  0  0  0  0  0  0  0
   45.5991   16.9893  -11.3639 C   0  0  0  0  0  0  0  0  0  0  0  0
   45.2729   16.1277  -10.5136 O   0  0  0  0  0  0  0  0  0  0  0  0
   46.0490   18.2408  -10.9750 O   0  0  0  0  0  0  0  0  0  0  0  0
   46.2460   18.4093   -9.9986 H   0  0  0  0  0  0  0  0  0  0  0  0
   36.9060   11.0022  -18.0548 O   0  0  0  0  0  0  0  0  0  0  0  0
   36.9236   11.3467  -16.8441 C   0  0  0  0  0  0  0  0  0  0  0  0
   35.6760   11.1123  -16.0945 C   0  0  0  0  0  0  0  0  0  0  0  0
   35.1529   12.2722  -15.3433 C   0  0  0  0  0  0  0  0  0  0  0  0
   33.6762   11.9088  -15.1459 C   0  0  0  0  0  0  0  0  0  0  0  0
   33.3050   10.9765  -16.2516 C   0  0  0  0  0  0  0  0  0  0  0  0
   34.5684   10.6851  -17.0042 C   0  0  0  0  0  0  0  0  0  0  0  0
 26 27  2  0  0  0
 27  1  1  0  0  0
  1  2  2  0  0  0
  2  3  1  0  0  0
  3  4  2  0  0  0
  4  5  1  0  0  0
  5 10  1  0  0  0
 10 11  2  0  0  0
 11 12  1  0  0  0
 12 13  2  0  0  0
 13 16  1  0  0  0
 16 17  1  0  0  0
 17 18  1  0  0  0
 18 19  2  0  0  0
 18 20  1  0  0  0
 17 22  1  0  0  0
 22 23  2  0  0  0
 22 24  1  0  0  0
 13 14  1  0  0  0
 14 15  2  0  0  0
  5  6  2  0  0  0
  6  7  1  0  0  0
  7  8  1  0  0  0
  8  9  2  0  0  0
 27 28  1  0  0  0
 28 29  1  0  0  0
 29 30  1  0  0  0
 30 31  1  0  0  0
 31 32  1  0  0  0
  9  1  1  0  0  0
 32 28  1  0  0  0
  9  4  1  0  0  0
 15 10  1  0  0  0
 20 21  1  0  0  0
 24 25  1  0  0  0
M  END
> <minimizedAffinity>
-8.55659

> <CNNscore>
0.6847953200

> <CNNaffinity>
6.4566726685

> <CNN_VS>
4.4214992523

> <CNNaffinity_variance>
0.5718438625

$$$$
[H]OC(=O)C([H])(Oc1c([H])c([H])c(-c2noc([H])c3c(C(=O)C4([H])C([H])([H])C([H])([H])C([H])([H])C4([H])[H])c([H])c([H])c2-3)c([H])c1[H])C(=O)O[H]


 32 35  0  0  0  0  0  0  0  0999 V2000
   37.1278   12.7068  -14.4478 C   0  0  0  0  0  0  0  0  0  0  0  0
   36.2227   12.1274  -13.5841 C   0  0  0  0  0  0  0  0  0  0  0  0
   36.2251   12.7686  -12.3499 C   0  0  0  0  0  0  0  0  0  0  0  0
   37.1505   13.7869  -12.4088 C   0  0  0  0  0  0  0  0  0  0  0  0
   37.6069   14.7563  -11.5411 C   0  0  0  0  0  0  0  0  0  0  0  0
   38.5565   15.6254  -11.9500 N   0  0  0  0  0  0  0  0  0  0  0  0
   39.0487   15.5709  -13.1348 O   0  0  0  0  0  0  0  0  0  0  0  0
   38.6879   14.6923  -14.0364 C   0  0  0  0  0  0  0  0  0  0  0  0
   37.7197   13.7384  -13.7507 C   0  0  0  0  0  0  0  0  0  0  0  0
   37.0663   14.8486  -10.1880 C   0  0  0  0  0  0  0  0  0  0  0  0
   37.9136   14.7214   -9.1089 C   0  0  0  0  0  0  0  0  0  0  0  0
   37.4524   14.7950   -7.7995 C   0  0  0  0  0  0  0  0  0  0  0  0
   36.1222   14.9988   -7.5392 C   0  0  0  0  0  0  0  0  0  0  0  0
   35.2555   15.1288   -8.6253 C   0  0  0  0  0  0  0  0  0  0  0  0
   35.7322   15.0530   -9.9046 C   0  0  0  0  0  0  0  0  0  0  0  0
   35.6047   15.0804   -6.2797 O   0  0  0  0  0  0  0  0  0  0  0  0
   34.9941   14.1095   -5.5049 C   0  0  0  0  0  0  0  0  0  0  0  0
   33.7745   14.6432   -4.8757 C   0  0  0  0  0  0  0  0  0  0  0  0
   32.8741   15.2031   -5.5679 O   0  0  0  0  0  0  0  0  0  0  0  0
   33.5495   14.5667   -3.5245 O   0  0  0  0  0  0  0  0  0  0  0  0
   33.5906   15.3845   -2.9328 H   0  0  0  0  0  0  0  0  0  0  0  0
   35.9082   13.4127   -4.5706 C   0  0  0  0  0  0  0  0  0  0  0  0
   35.5208   12.3728   -3.9875 O   0  0  0  0  0  0  0  0  0  0  0  0
   37.1792   13.9204   -4.3545 O   0  0  0  0  0  0  0  0  0  0  0  0
   37.8443   13.3700   -3.8297 H   0  0  0  0  0  0  0  0  0  0  0  0
   36.5805   12.5099  -16.7266 O   0  0  0  0  0  0  0  0  0  0  0  0
   37.4388   12.3387  -15.8217 C   0  0  0  0  0  0  0  0  0  0  0  0
   38.7221   11.7595  -16.2590 C   0  0  0  0  0  0  0  0  0  0  0  0
   38.6673   10.9323  -17.4822 C   0  0  0  0  0  0  0  0  0  0  0  0
   40.1248   10.9381  -17.9593 C   0  0  0  0  0  0  0  0  0  0  0  0
   40.7538   12.1820  -17.4243 C   0  0  0  0  0  0  0  0  0  0  0  0
   39.7329   12.8265  -16.5357 C   0  0  0  0  0  0  0  0  0  0  0  0
 26 27  2  0  0  0
 27  1  1  0  0  0
  1  2  2  0  0  0
  2  3  1  0  0  0
  3  4  2  0  0  0
  4  5  1  0  0  0
  5 10  1  0  0  0
 10 11  2  0  0  0
 11 12  1  0  0  0
 12 13  2  0  0  0
 13 16  1  0  0  0
 16 17  1  0  0  0
 17 18  1  0  0  0
 18 19  2  0  0  0
 18 20  1  0  0  0
 17 22  1  0  0  0
 22 23  2  0  0  0
 22 24  1  0  0  0
 13 14  1  0  0  0
 14 15  2  0  0  0
  5  6  2  0  0  0
  6  7  1  0  0  0
  7  8  1  0  0  0
  8  9  2  0  0  0
 27 28  1  0  0  0
 28 29  1  0  0  0
 29 30  1  0  0  0
 30 31  1  0  0  0
 31 32  1  0  0  0
  9  1  1  0  0  0
 32 28  1  0  0  0
  9  4  1  0  0  0
 15 10  1  0  0  0
 20 21  1  0  0  0
 24 25  1  0  0  0
M  END
> <minimizedAffinity>
-8.60972

> <CNNscore>
0.3386607766

> <CNNaffinity>
5.5254507065

> <CNN_VS>
1.8712533712

> <CNNaffinity_variance>
0.3697421253

$$$$
[H]OC(=O)C([H])(Oc1c([H])c([H])c(-c2noc([H])c3c(C(=O)C4([H])C([H])([H])C([H])([H])C([H])([H])C4([H])[H])c([H])c([H])c2-3)c([H])c1[H])C(=O)O[H]


 32 35  0  0  0  0  0  0  0  0999 V2000
   38.0893   12.9127  -14.0910 C   0  0  0  0  0  0  0  0  0  0  0  0
   36.9711   12.3373  -13.5260 C   0  0  0  0  0  0  0  0  0  0  0  0
   36.5509   13.0490  -12.4073 C   0  0  0  0  0  0  0  0  0  0  0  0
   37.4122   14.1103  -12.2384 C   0  0  0  0  0  0  0  0  0  0  0  0
   37.5300   15.1520  -11.3429 C   0  0  0  0  0  0  0  0  0  0  0  0
   38.5330   16.0454  -11.4855 N   0  0  0  0  0  0  0  0  0  0  0  0
   39.3857   15.9479  -12.4407 O   0  0  0  0  0  0  0  0  0  0  0  0
   39.3664   14.9998  -13.3438 C   0  0  0  0  0  0  0  0  0  0  0  0
   38.3888   14.0137  -13.3173 C   0  0  0  0  0  0  0  0  0  0  0  0
   36.5755   15.2944  -10.2474 C   0  0  0  0  0  0  0  0  0  0  0  0
   36.9448   14.9218   -8.9733 C   0  0  0  0  0  0  0  0  0  0  0  0
   36.0746   15.0302   -7.8945 C   0  0  0  0  0  0  0  0  0  0  0  0
   34.8054   15.5176   -8.0686 C   0  0  0  0  0  0  0  0  0  0  0  0
   34.4215   15.8977   -9.3554 C   0  0  0  0  0  0  0  0  0  0  0  0
   35.2947   15.7820  -10.4012 C   0  0  0  0  0  0  0  0  0  0  0  0
   33.9029   15.6492   -7.0542 O   0  0  0  0  0  0  0  0  0  0  0  0
   34.0697   15.4886   -5.6896 C   0  0  0  0  0  0  0  0  0  0  0  0
   33.7377   14.1114   -5.2879 C   0  0  0  0  0  0  0  0  0  0  0  0
   34.6352   13.3148   -4.8841 O   0  0  0  0  0  0  0  0  0  0  0  0
   32.4571   13.6210   -5.3298 O   0  0  0  0  0  0  0  0  0  0  0  0
   32.1729   12.9380   -6.0178 H   0  0  0  0  0  0  0  0  0  0  0  0
   33.4199   16.5371   -4.8696 C   0  0  0  0  0  0  0  0  0  0  0  0
   32.7207   16.2055   -3.8834 O   0  0  0  0  0  0  0  0  0  0  0  0
   33.5944   17.8703   -5.2044 O   0  0  0  0  0  0  0  0  0  0  0  0
   33.2688   18.5827   -4.5663 H   0  0  0  0  0  0  0  0  0  0  0  0
   39.9448   13.0257  -15.5316 O   0  0  0  0  0  0  0  0  0  0  0  0
   38.8424   12.4819  -15.2602 C   0  0  0  0  0  0  0  0  0  0  0  0
   38.4059   11.4232  -16.1888 C   0  0  0  0  0  0  0  0  0  0  0  0
   37.0233   11.5460  -16.6952 C   0  0  0  0  0  0  0  0  0  0  0  0
   37.0519   10.6886  -17.9664 C   0  0  0  0  0  0  0  0  0  0  0  0
   38.4665   10.6625  -18.4431 C   0  0  0  0  0  0  0  0  0  0  0  0
   39.2793   11.3713  -17.4017 C   0  0  0  0  0  0  0  0  0  0  0  0
 26 27  2  0  0  0
 27  1  1  0  0  0
  1  2  2  0  0  0
  2  3  1  0  0  0
  3  4  2  0  0  0
  4  5  1  0  0  0
  5 10  1  0  0  0
 10 11  2  0  0  0
 11 12  1  0  0  0
 12 13  2  0  0  0
 13 16  1  0  0  0
 16 17  1  0  0  0
 17 18  1  0  0  0
 18 19  2  0  0  0
 18 20  1  0  0  0
 17 22  1  0  0  0
 22 23  2  0  0  0
 22 24  1  0  0  0
 13 14  1  0  0  0
 14 15  2  0  0  0
  5  6  2  0  0  0
  6  7  1  0  0  0
  7  8  1  0  0  0
  8  9  2  0  0  0
 27 28  1  0  0  0
 28 29  1  0  0  0
 29 30  1  0  0  0
 30 31  1  0  0  0
 31 32  1  0  0  0
  9  1  1  0  0  0
 32 28  1  0  0  0
  9  4  1  0  0  0
 15 10  1  0  0  0
 20 21  1  0  0  0
 24 25  1  0  0  0
M  END
> <minimizedAffinity>
-8.59798

> <CNNscore>
0.2825385630

> <CNNaffinity>
5.4846425056

> <CNN_VS>
1.5496230125

> <CNNaffinity_variance>
0.5261815786

$$$$
[H]OC(=O)C([H])(Oc1c([H])c([H])c(-c2noc([H])c3c(C(=O)C4([H])C([H])([H])C([H])([H])C([H])([H])C4([H])[H])c([H])c([H])c2-3)c([H])c1[H])C(=O)O[H]


 32 35  0  0  0  0  0  0  0  0999 V2000
   38.2508   12.2680  -16.1167 C   0  0  0  0  0  0  0  0  0  0  0  0
   39.1393   11.5285  -16.8681 C   0  0  0  0  0  0  0  0  0  0  0  0
   40.4546   11.8320  -16.5329 C   0  0  0  0  0  0  0  0  0  0  0  0
   40.4243   12.7891  -15.5430 C   0  0  0  0  0  0  0  0  0  0  0  0
   41.3657   13.4800  -14.8100 C   0  0  0  0  0  0  0  0  0  0  0  0
   40.9643   14.3774  -13.8838 N   0  0  0  0  0  0  0  0  0  0  0  0
   39.7192   14.6051  -13.6676 O   0  0  0  0  0  0  0  0  0  0  0  0
   38.7450   14.0063  -14.3058 C   0  0  0  0  0  0  0  0  0  0  0  0
   39.0144   13.0594  -15.2854 C   0  0  0  0  0  0  0  0  0  0  0  0
   42.7897   13.2429  -15.0281 C   0  0  0  0  0  0  0  0  0  0  0  0
   43.6582   13.2996  -13.9600 C   0  0  0  0  0  0  0  0  0  0  0  0
   45.0239   13.0880  -14.1110 C   0  0  0  0  0  0  0  0  0  0  0  0
   45.5547   12.8131  -15.3445 C   0  0  0  0  0  0  0  0  0  0  0  0
   44.6834   12.7535  -16.4331 C   0  0  0  0  0  0  0  0  0  0  0  0
   43.3437   12.9650  -16.2602 C   0  0  0  0  0  0  0  0  0  0  0  0
   46.8838   12.5962  -15.5616 O   0  0  0  0  0  0  0  0  0  0  0  0
   47.9887   13.1853  -14.9717 C   0  0  0  0  0  0  0  0  0  0  0  0
   48.1894   12.6587  -13.6113 C   0  0  0  0  0  0  0  0  0  0  0  0
   48.0563   11.4243  -13.3628 O   0  0  0  0  0  0  0  0  0  0  0  0
   48.5248   13.4640  -12.5524 O   0  0  0  0  0  0  0  0  0  0  0  0
   47.8656   13.6742  -11.8162 H   0  0  0  0  0  0  0  0  0  0  0  0
   48.0121   14.6634  -15.0637 C   0  0  0  0  0  0  0  0  0  0  0  0
   47.4573   15.3470  -14.1712 O   0  0  0  0  0  0  0  0  0  0  0  0
   48.6472   15.2699  -16.1355 O   0  0  0  0  0  0  0  0  0  0  0  0
   48.7825   16.2710  -16.1226 H   0  0  0  0  0  0  0  0  0  0  0  0
   36.2004   11.9400  -17.2210 O   0  0  0  0  0  0  0  0  0  0  0  0
   36.7955   12.2587  -16.1584 C   0  0  0  0  0  0  0  0  0  0  0  0
   35.9270   12.6053  -15.0186 C   0  0  0  0  0  0  0  0  0  0  0  0
   35.5359   14.0269  -14.9208 C   0  0  0  0  0  0  0  0  0  0  0  0
   34.2833   13.9726  -14.0377 C   0  0  0  0  0  0  0  0  0  0  0  0
   33.6903   12.6126  -14.2052 C   0  0  0  0  0  0  0  0  0  0  0  0
   34.6463   11.8339  -15.0579 C   0  0  0  0  0  0  0  0  0  0  0  0
 26 27  2  0  0  0
 27  1  1  0  0  0
  1  2  2  0  0  0
  2  3  1  0  0  0
  3  4  2  0  0  0
  4  5  1  0  0  0
  5 10  1  0  0  0
 10 11  2  0  0  0
 11 12  1  0  0  0
 12 13  2  0  0  0
 13 16  1  0  0  0
 16 17  1  0  0  0
 17 18  1  0  0  0
 18 19  2  0  0  0
 18 20  1  0  0  0
 17 22  1  0  0  0
 22 23  2  0  0  0
 22 24  1  0  0  0
 13 14  1  0  0  0
 14 15  2  0  0  0
  5  6  2  0  0  0
  6  7  1  0  0  0
  7  8  1  0  0  0
  8  9  2  0  0  0
 27 28  1  0  0  0
 28 29  1  0  0  0
 29 30  1  0  0  0
 30 31  1  0  0  0
 31 32  1  0  0  0
  9  1  1  0  0  0
 32 28  1  0  0  0
  9  4  1  0  0  0
 15 10  1  0  0  0
 20 21  1  0  0  0
 24 25  1  0  0  0
M  END
> <minimizedAffinity>
-8.28134

> <CNNscore>
0.2737613320

> <CNNaffinity>
5.9906101227

> <CNN_VS>
1.6399973631

> <CNNaffinity_variance>
0.2412128001

$$$$
[H]OC(=O)C([H])(Oc1c([H])c([H])c(-c2noc([H])c3c(C(=O)C4([H])C([H])([H])C([H])([H])C([H])([H])C4([H])[H])c([H])c([H])c2-3)c([H])c1[H])C(=O)O[H]


 32 35  0  0  0  0  0  0  0  0999 V2000
   37.8132   12.9881  -13.8994 C   0  0  0  0  0  0  0  0  0  0  0  0
   36.6751   12.3926  -13.3985 C   0  0  0  0  0  0  0  0  0  0  0  0
   36.1923   13.0833  -12.2920 C   0  0  0  0  0  0  0  0  0  0  0  0
   37.0323   14.1510  -12.0657 C   0  0  0  0  0  0  0  0  0  0  0  0
   37.0941   15.1806  -11.1508 C   0  0  0  0  0  0  0  0  0  0  0  0
   38.0928   16.0865  -11.2310 N   0  0  0  0  0  0  0  0  0  0  0  0
   38.9926   16.0120  -12.1441 O   0  0  0  0  0  0  0  0  0  0  0  0
   39.0285   15.0772  -13.0604 C   0  0  0  0  0  0  0  0  0  0  0  0
   38.0619   14.0806  -13.0963 C   0  0  0  0  0  0  0  0  0  0  0  0
   36.0853   15.2968  -10.1018 C   0  0  0  0  0  0  0  0  0  0  0  0
   36.3493   14.7908   -8.8478 C   0  0  0  0  0  0  0  0  0  0  0  0
   35.4232   14.8687   -7.8138 C   0  0  0  0  0  0  0  0  0  0  0  0
   34.2026   15.4591   -8.0140 C   0  0  0  0  0  0  0  0  0  0  0  0
   33.9252   15.9747   -9.2809 C   0  0  0  0  0  0  0  0  0  0  0  0
   34.8518   15.8866  -10.2825 C   0  0  0  0  0  0  0  0  0  0  0  0
   33.2498   15.5678   -7.0439 O   0  0  0  0  0  0  0  0  0  0  0  0
   32.0775   14.8539   -6.8652 C   0  0  0  0  0  0  0  0  0  0  0  0
   30.9362   15.7695   -6.6994 C   0  0  0  0  0  0  0  0  0  0  0  0
   31.0464   17.0039   -6.9588 O   0  0  0  0  0  0  0  0  0  0  0  0
   29.7086   15.3432   -6.2595 O   0  0  0  0  0  0  0  0  0  0  0  0
   29.3648   15.5765   -5.3386 H   0  0  0  0  0  0  0  0  0  0  0  0
   32.1626   13.7918   -5.8363 C   0  0  0  0  0  0  0  0  0  0  0  0
   33.1210   13.7896   -5.0283 O   0  0  0  0  0  0  0  0  0  0  0  0
   31.1810   12.8154   -5.7815 O   0  0  0  0  0  0  0  0  0  0  0  0
   31.1656   12.1791   -4.9969 H   0  0  0  0  0  0  0  0  0  0  0  0
   39.7207   13.1641  -15.2638 O   0  0  0  0  0  0  0  0  0  0  0  0
   38.6278   12.5824  -15.0359 C   0  0  0  0  0  0  0  0  0  0  0  0
   38.2666   11.5081  -15.9787 C   0  0  0  0  0  0  0  0  0  0  0  0
   36.9291   11.6214  -16.5964 C   0  0  0  0  0  0  0  0  0  0  0  0
   37.0591   10.7429  -17.8467 C   0  0  0  0  0  0  0  0  0  0  0  0
   38.5074   10.7100  -18.2080 C   0  0  0  0  0  0  0  0  0  0  0  0
   39.2344   11.4366  -17.1167 C   0  0  0  0  0  0  0  0  0  0  0  0
 26 27  2  0  0  0
 27  1  1  0  0  0
  1  2  2  0  0  0
  2  3  1  0  0  0
  3  4  2  0  0  0
  4  5  1  0  0  0
  5 10  1  0  0  0
 10 11  2  0  0  0
 11 12  1  0  0  0
 12 13  2  0  0  0
 13 16  1  0  0  0
 16 17  1  0  0  0
 17 18  1  0  0  0
 18 19  2  0  0  0
 18 20  1  0  0  0
 17 22  1  0  0  0
 22 23  2  0  0  0
 22 24  1  0  0  0
 13 14  1  0  0  0
 14 15  2  0  0  0
  5  6  2  0  0  0
  6  7  1  0  0  0
  7  8  1  0  0  0
  8  9  2  0  0  0
 27 28  1  0  0  0
 28 29  1  0  0  0
 29 30  1  0  0  0
 30 31  1  0  0  0
 31 32  1  0  0  0
  9  1  1  0  0  0
 32 28  1  0  0  0
  9  4  1  0  0  0
 15 10  1  0  0  0
 20 21  1  0  0  0
 24 25  1  0  0  0
M  END
> <minimizedAffinity>
-9.21329

> <CNNscore>
0.2621928751

> <CNNaffinity>
5.4129118919

> <CNN_VS>
1.4192268848

> <CNNaffinity_variance>
0.5887988806

$$$$
[H]OC(=O)C([H])(Oc1c([H])c([H])c(-c2noc([H])c3c(C(=O)C4([H])C([H])([H])C([H])([H])C([H])([H])C4([H])[H])c([H])c([H])c2-3)c([H])c1[H])C(=O)O[H]


 32 35  0  0  0  0  0  0  0  0999 V2000
   40.8986   13.1585  -15.6597 C   0  0  0  0  0  0  0  0  0  0  0  0
   42.2081   12.8567  -15.3515 C   0  0  0  0  0  0  0  0  0  0  0  0
   42.6517   13.5995  -14.2625 C   0  0  0  0  0  0  0  0  0  0  0  0
   41.6110   14.4026  -13.8516 C   0  0  0  0  0  0  0  0  0  0  0  0
   41.4201   15.3370  -12.8560 C   0  0  0  0  0  0  0  0  0  0  0  0
   40.2235   15.9525  -12.7380 N   0  0  0  0  0  0  0  0  0  0  0  0
   39.2527   15.6875  -13.5356 O   0  0  0  0  0  0  0  0  0  0  0  0
   39.3262   14.8193  -14.5133 C   0  0  0  0  0  0  0  0  0  0  0  0
   40.4986   14.1132  -14.7492 C   0  0  0  0  0  0  0  0  0  0  0  0
   42.5017   15.6596  -11.9299 C   0  0  0  0  0  0  0  0  0  0  0  0
   42.4935   15.1189  -10.6626 C   0  0  0  0  0  0  0  0  0  0  0  0
   43.4943   15.3965   -9.7385 C   0  0  0  0  0  0  0  0  0  0  0  0
   44.5335   16.2284  -10.0650 C   0  0  0  0  0  0  0  0  0  0  0  0
   44.5511   16.7814  -11.3462 C   0  0  0  0  0  0  0  0  0  0  0  0
   43.5557   16.4938  -12.2384 C   0  0  0  0  0  0  0  0  0  0  0  0
   45.5460   16.5421   -9.2064 O   0  0  0  0  0  0  0  0  0  0  0  0
   45.8927   17.7602   -8.6479 C   0  0  0  0  0  0  0  0  0  0  0  0
   47.3045   18.0723   -8.9266 C   0  0  0  0  0  0  0  0  0  0  0  0
   48.2237   17.6956   -8.1416 O   0  0  0  0  0  0  0  0  0  0  0  0
   47.6970   18.7798  -10.0346 O   0  0  0  0  0  0  0  0  0  0  0  0
   48.0384   19.7280   -9.9650 H   0  0  0  0  0  0  0  0  0  0  0  0
   45.5031   17.9111   -7.2268 C   0  0  0  0  0  0  0  0  0  0  0  0
   44.6844   18.8030   -6.9019 O   0  0  0  0  0  0  0  0  0  0  0  0
   46.0494   17.0637   -6.2764 O   0  0  0  0  0  0  0  0  0  0  0  0
   45.6785   17.0767   -5.3368 H   0  0  0  0  0  0  0  0  0  0  0  0
   40.2950   12.9262  -17.9209 O   0  0  0  0  0  0  0  0  0  0  0  0
   40.0654   12.6151  -16.7228 C   0  0  0  0  0  0  0  0  0  0  0  0
   38.9318   11.6976  -16.5065 C   0  0  0  0  0  0  0  0  0  0  0  0
   37.6693   12.3309  -16.0728 C   0  0  0  0  0  0  0  0  0  0  0  0
   36.6178   11.2794  -16.4477 C   0  0  0  0  0  0  0  0  0  0  0  0
   37.1887   10.4710  -17.5656 C   0  0  0  0  0  0  0  0  0  0  0  0
   38.5994   10.9423  -17.7538 C   0  0  0  0  0  0  0  0  0  0  0  0
 26 27  2  0  0  0
 27  1  1  0  0  0
  1  2  2  0  0  0
  2  3  1  0  0  0
  3  4  2  0  0  0
  4  5  1  0  0  0
  5 10  1  0  0  0
 10 11  2  0  0  0
 11 12  1  0  0  0
 12 13  2  0  0  0
 13 16  1  0  0  0
 16 17  1  0  0  0
 17 18  1  0  0  0
 18 19  2  0  0  0
 18 20  1  0  0  0
 17 22  1  0  0  0
 22 23  2  0  0  0
 22 24  1  0  0  0
 13 14  1  0  0  0
 14 15  2  0  0  0
  5  6  2  0  0  0
  6  7  1  0  0  0
  7  8  1  0  0  0
  8  9  2  0  0  0
 27 28  1  0  0  0
 28 29  1  0  0  0
 29 30  1  0  0  0
 30 31  1  0  0  0
 31 32  1  0  0  0
  9  1  1  0  0  0
 32 28  1  0  0  0
  9  4  1  0  0  0
 15 10  1  0  0  0
 20 21  1  0  0  0
 24 25  1  0  0  0
M  END
> <minimizedAffinity>
-7.57231

> <CNNscore>
0.2478400767

> <CNNaffinity>
5.6083078384

> <CNN_VS>
1.3899633884

> <CNNaffinity_variance>
0.8439357877

$$$$
[H]OC(=O)C([H])(Oc1c([H])c([H])c(-c2noc([H])c3c(C(=O)C4([H])C([H])([H])C([H])([H])C([H])([H])C4([H])[H])c([H])c([H])c2-3)c([H])c1[H])C(=O)O[H]


 32 35  0  0  0  0  0  0  0  0999 V2000
   37.8000   12.8395  -15.2992 C   0  0  0  0  0  0  0  0  0  0  0  0
   38.5855   11.9742  -16.0306 C   0  0  0  0  0  0  0  0  0  0  0  0
   39.9372   12.2033  -15.7967 C   0  0  0  0  0  0  0  0  0  0  0  0
   40.0364   13.2392  -14.8946 C   0  0  0  0  0  0  0  0  0  0  0  0
   41.0680   13.9150  -14.2783 C   0  0  0  0  0  0  0  0  0  0  0  0
   40.7896   14.9147  -13.4137 N   0  0  0  0  0  0  0  0  0  0  0  0
   39.5796   15.2541  -13.1499 O   0  0  0  0  0  0  0  0  0  0  0  0
   38.5277   14.6802  -13.6782 C   0  0  0  0  0  0  0  0  0  0  0  0
   38.6680   13.6369  -14.5841 C   0  0  0  0  0  0  0  0  0  0  0  0
   42.4554   13.5524  -14.5531 C   0  0  0  0  0  0  0  0  0  0  0  0
   43.3717   13.5474  -13.5242 C   0  0  0  0  0  0  0  0  0  0  0  0
   44.7061   13.2162  -13.7300 C   0  0  0  0  0  0  0  0  0  0  0  0
   45.1564   12.8803  -14.9802 C   0  0  0  0  0  0  0  0  0  0  0  0
   44.2361   12.8824  -16.0294 C   0  0  0  0  0  0  0  0  0  0  0  0
   42.9285   13.2116  -15.8030 C   0  0  0  0  0  0  0  0  0  0  0  0
   46.4511   12.5461  -15.2503 O   0  0  0  0  0  0  0  0  0  0  0  0
   47.6288   13.1329  -14.8209 C   0  0  0  0  0  0  0  0  0  0  0  0
   48.5489   13.3317  -15.9532 C   0  0  0  0  0  0  0  0  0  0  0  0
   49.3668   12.4280  -16.2964 O   0  0  0  0  0  0  0  0  0  0  0  0
   48.5727   14.4903  -16.6876 O   0  0  0  0  0  0  0  0  0  0  0  0
   49.3387   15.1455  -16.6201 H   0  0  0  0  0  0  0  0  0  0  0  0
   48.2424   12.4755  -13.6439 C   0  0  0  0  0  0  0  0  0  0  0  0
   47.7382   11.4201  -13.1929 O   0  0  0  0  0  0  0  0  0  0  0  0
   49.3654   13.0368  -13.0578 O   0  0  0  0  0  0  0  0  0  0  0  0
   49.8608   12.5151  -12.3484 H   0  0  0  0  0  0  0  0  0  0  0  0
   35.7994   14.0599  -15.1012 O   0  0  0  0  0  0  0  0  0  0  0  0
   36.3479   12.9380  -15.2594 C   0  0  0  0  0  0  0  0  0  0  0  0
   35.4311   11.7911  -15.3927 C   0  0  0  0  0  0  0  0  0  0  0  0
   34.0279   12.0450  -15.0056 C   0  0  0  0  0  0  0  0  0  0  0  0
   33.2701   10.9250  -15.7289 C   0  0  0  0  0  0  0  0  0  0  0  0
   34.0976   10.5287  -16.9068 C   0  0  0  0  0  0  0  0  0  0  0  0
   35.3800   11.2984  -16.8038 C   0  0  0  0  0  0  0  0  0  0  0  0
 26 27  2  0  0  0
 27  1  1  0  0  0
  1  2  2  0  0  0
  2  3  1  0  0  0
  3  4  2  0  0  0
  4  5  1  0  0  0
  5 10  1  0  0  0
 10 11  2  0  0  0
 11 12  1  0  0  0
 12 13  2  0  0  0
 13 16  1  0  0  0
 16 17  1  0  0  0
 17 18  1  0  0  0
 18 19  2  0  0  0
 18 20  1  0  0  0
 17 22  1  0  0  0
 22 23  2  0  0  0
 22 24  1  0  0  0
 13 14  1  0  0  0
 14 15  2  0  0  0
  5  6  2  0  0  0
  6  7  1  0  0  0
  7  8  1  0  0  0
  8  9  2  0  0  0
 27 28  1  0  0  0
 28 29  1  0  0  0
 29 30  1  0  0  0
 30 31  1  0  0  0
 31 32  1  0  0  0
  9  1  1  0  0  0
 32 28  1  0  0  0
  9  4  1  0  0  0
 15 10  1  0  0  0
 20 21  1  0  0  0
 24 25  1  0  0  0
M  END
> <minimizedAffinity>
-8.81834

> <CNNscore>
0.2238305509

> <CNNaffinity>
5.7098479271

> <CNN_VS>
1.2780383825

> <CNNaffinity_variance>
0.1358807981

$$$$
[H]OC(=O)C([H])(Oc1c([H])c([H])c(-c2noc([H])c3c(C(=O)C4([H])C([H])([H])C([H])([H])C([H])([H])C4([H])[H])c([H])c([H])c2-3)c([H])c1[H])C(=O)O[H]


 32 35  0  0  0  0  0  0  0  0999 V2000
   37.5488   12.9771  -13.7911 C   0  0  0  0  0  0  0  0  0  0  0  0
   36.4095   12.3746  -13.3014 C   0  0  0  0  0  0  0  0  0  0  0  0
   35.9191   13.0547  -12.1917 C   0  0  0  0  0  0  0  0  0  0  0  0
   36.7553   14.1225  -11.9518 C   0  0  0  0  0  0  0  0  0  0  0  0
   36.8096   15.1444  -11.0280 C   0  0  0  0  0  0  0  0  0  0  0  0
   37.8065   16.0534  -11.0951 N   0  0  0  0  0  0  0  0  0  0  0  0
   38.7114   15.9889  -12.0040 O   0  0  0  0  0  0  0  0  0  0  0  0
   38.7545   15.0619  -12.9280 C   0  0  0  0  0  0  0  0  0  0  0  0
   37.7905   14.0634  -12.9775 C   0  0  0  0  0  0  0  0  0  0  0  0
   35.7949   15.2493   -9.9835 C   0  0  0  0  0  0  0  0  0  0  0  0
   34.6049   15.8884  -10.2556 C   0  0  0  0  0  0  0  0  0  0  0  0
   33.6067   16.0222   -9.2973 C   0  0  0  0  0  0  0  0  0  0  0  0
   33.7789   15.5156   -8.0354 C   0  0  0  0  0  0  0  0  0  0  0  0
   34.9809   14.8664   -7.7496 C   0  0  0  0  0  0  0  0  0  0  0  0
   35.9484   14.7468   -8.7084 C   0  0  0  0  0  0  0  0  0  0  0  0
   32.8410   15.6130   -7.0497 O   0  0  0  0  0  0  0  0  0  0  0  0
   31.6832   14.8816   -6.8489 C   0  0  0  0  0  0  0  0  0  0  0  0
   31.9406   13.7453   -5.9483 C   0  0  0  0  0  0  0  0  0  0  0  0
   32.9435   13.7389   -5.1755 O   0  0  0  0  0  0  0  0  0  0  0  0
   31.1216   12.6457   -5.8983 O   0  0  0  0  0  0  0  0  0  0  0  0
   31.4116   11.7512   -6.2675 H   0  0  0  0  0  0  0  0  0  0  0  0
   30.9660   14.5232   -8.0943 C   0  0  0  0  0  0  0  0  0  0  0  0
   30.2567   15.3830   -8.6681 O   0  0  0  0  0  0  0  0  0  0  0  0
   31.0894   13.2422   -8.6077 O   0  0  0  0  0  0  0  0  0  0  0  0
   30.7156   13.0435   -9.5250 H   0  0  0  0  0  0  0  0  0  0  0  0
   39.6235   12.5461  -14.8114 O   0  0  0  0  0  0  0  0  0  0  0  0
   38.3705   12.5830  -14.9266 C   0  0  0  0  0  0  0  0  0  0  0  0
   37.8389   12.2107  -16.2504 C   0  0  0  0  0  0  0  0  0  0  0  0
   38.5915   11.1629  -16.9709 C   0  0  0  0  0  0  0  0  0  0  0  0
   37.5601   10.6376  -17.9769 C   0  0  0  0  0  0  0  0  0  0  0  0
   36.2102   10.9111  -17.4005 C   0  0  0  0  0  0  0  0  0  0  0  0
   36.4351   11.7048  -16.1488 C   0  0  0  0  0  0  0  0  0  0  0  0
 26 27  2  0  0  0
 27  1  1  0  0  0
  1  2  2  0  0  0
  2  3  1  0  0  0
  3  4  2  0  0  0
  4  5  1  0  0  0
  5 10  1  0  0  0
 10 11  2  0  0  0
 11 12  1  0  0  0
 12 13  2  0  0  0
 13 16  1  0  0  0
 16 17  1  0  0  0
 17 18  1  0  0  0
 18 19  2  0  0  0
 18 20  1  0  0  0
 17 22  1  0  0  0
 22 23  2  0  0  0
 22 24  1  0  0  0
 13 14  1  0  0  0
 14 15  2  0  0  0
  5  6  2  0  0  0
  6  7  1  0  0  0
  7  8  1  0  0  0
  8  9  2  0  0  0
 27 28  1  0  0  0
 28 29  1  0  0  0
 29 30  1  0  0  0
 30 31  1  0  0  0
 31 32  1  0  0  0
  9  1  1  0  0  0
 32 28  1  0  0  0
  9  4  1  0  0  0
 15 10  1  0  0  0
 20 21  1  0  0  0
 24 25  1  0  0  0
M  END
> <minimizedAffinity>
-9.26463

> <CNNscore>
0.2152894884

> <CNNaffinity>
5.4029989243

> <CNN_VS>
1.1632088423

> <CNNaffinity_variance>
0.5408530831

$$$$
[H]OC(=O)C([H])(Oc1c([H])c([H])c(-c2noc([H])c3c(C(=O)C4([H])C([H])([H])C([H])([H])C([H])([H])C4([H])[H])c([H])c([H])c2-3)c([H])c1[H])C(=O)O[H]


 32 35  0  0  0  0  0  0  0  0999 V2000
   38.2414   11.9675  -16.3483 C   0  0  0  0  0  0  0  0  0  0  0  0
   39.5233   11.8605  -16.8443 C   0  0  0  0  0  0  0  0  0  0  0  0
   40.4259   12.5724  -16.0614 C   0  0  0  0  0  0  0  0  0  0  0  0
   39.7190   13.1564  -15.0337 C   0  0  0  0  0  0  0  0  0  0  0  0
   40.0271   13.9601  -13.9567 C   0  0  0  0  0  0  0  0  0  0  0  0
   39.0461   14.3584  -13.1180 N   0  0  0  0  0  0  0  0  0  0  0  0
   37.8251   14.0050  -13.3000 O   0  0  0  0  0  0  0  0  0  0  0  0
   37.4236   13.2455  -14.2884 C   0  0  0  0  0  0  0  0  0  0  0  0
   38.3276   12.7639  -15.2263 C   0  0  0  0  0  0  0  0  0  0  0  0
   41.4058   14.3776  -13.7185 C   0  0  0  0  0  0  0  0  0  0  0  0
   41.6520   15.5228  -12.9931 C   0  0  0  0  0  0  0  0  0  0  0  0
   42.9440   15.9699  -12.7413 C   0  0  0  0  0  0  0  0  0  0  0  0
   44.0268   15.2751  -13.2141 C   0  0  0  0  0  0  0  0  0  0  0  0
   43.7882   14.1136  -13.9502 C   0  0  0  0  0  0  0  0  0  0  0  0
   42.5085   13.6933  -14.1852 C   0  0  0  0  0  0  0  0  0  0  0  0
   45.3189   15.6586  -13.0035 O   0  0  0  0  0  0  0  0  0  0  0  0
   46.2895   16.0485  -13.9100 C   0  0  0  0  0  0  0  0  0  0  0  0
   47.6154   15.5712  -13.4832 C   0  0  0  0  0  0  0  0  0  0  0  0
   47.7536   14.8834  -12.4292 O   0  0  0  0  0  0  0  0  0  0  0  0
   48.7585   15.8425  -14.1918 O   0  0  0  0  0  0  0  0  0  0  0  0
   49.4537   16.4906  -13.8493 H   0  0  0  0  0  0  0  0  0  0  0  0
   46.2443   17.4846  -14.2699 C   0  0  0  0  0  0  0  0  0  0  0  0
   45.6235   18.2869  -13.5335 O   0  0  0  0  0  0  0  0  0  0  0  0
   46.8893   17.9209  -15.4160 O   0  0  0  0  0  0  0  0  0  0  0  0
   46.9751   18.9137  -15.5825 H   0  0  0  0  0  0  0  0  0  0  0  0
   36.9548   11.0119  -18.0695 O   0  0  0  0  0  0  0  0  0  0  0  0
   37.0126   11.3853  -16.8687 C   0  0  0  0  0  0  0  0  0  0  0  0
   35.7834   11.1899  -16.0785 C   0  0  0  0  0  0  0  0  0  0  0  0
   35.0374   12.4197  -15.7403 C   0  0  0  0  0  0  0  0  0  0  0  0
   33.6327   11.8881  -15.4302 C   0  0  0  0  0  0  0  0  0  0  0  0
   33.4789   10.6025  -16.1738 C   0  0  0  0  0  0  0  0  0  0  0  0
   34.8107   10.3098  -16.7969 C   0  0  0  0  0  0  0  0  0  0  0  0
 26 27  2  0  0  0
 27  1  1  0  0  0
  1  2  2  0  0  0
  2  3  1  0  0  0
  3  4  2  0  0  0
  4  5  1  0  0  0
  5 10  1  0  0  0
 10 11  2  0  0  0
 11 12  1  0  0  0
 12 13  2  0  0  0
 13 16  1  0  0  0
 16 17  1  0  0  0
 17 18  1  0  0  0
 18 19  2  0  0  0
 18 20  1  0  0  0
 17 22  1  0  0  0
 22 23  2  0  0  0
 22 24  1  0  0  0
 13 14  1  0  0  0
 14 15  2  0  0  0
  5  6  2  0  0  0
  6  7  1  0  0  0
  7  8  1  0  0  0
  8  9  2  0  0  0
 27 28  1  0  0  0
 28 29  1  0  0  0
 29 30  1  0  0  0
 30 31  1  0  0  0
 31 32  1  0  0  0
  9  1  1  0  0  0
 32 28  1  0  0  0
  9  4  1  0  0  0
 15 10  1  0  0  0
 20 21  1  0  0  0
 24 25  1  0  0  0
M  END
> <minimizedAffinity>
-7.92749

> <CNNscore>
0.2088013440

> <CNNaffinity>
5.8229393959

> <CNN_VS>
1.2158375978

> <CNNaffinity_variance>
0.3444482684

$$$$
[H]c1c(OC([H])([H])[H])c([H])c2c3nnc(SC([H])([H])[H])nc3n(C([H])([H])[H])c2c1[H]


 18 20  0  0  0  0  0  0  0  0999 V2000
   35.8615   11.7010  -15.7930 C   0  0  0  0  0  0  0  0  0  0  0  0
   35.8370   11.0395  -17.0023 C   0  0  0  0  0  0  0  0  0  0  0  0
   37.0237   10.9141  -17.7270 C   0  0  0  0  0  0  0  0  0  0  0  0
   38.2234   11.4364  -17.2630 C   0  0  0  0  0  0  0  0  0  0  0  0
   38.2291   12.0935  -16.0541 C   0  0  0  0  0  0  0  0  0  0  0  0
   37.0467   12.2226  -15.3242 C   0  0  0  0  0  0  0  0  0  0  0  0
   39.5169   12.5152  -15.8113 C   0  0  0  0  0  0  0  0  0  0  0  0
   40.0482   13.1930  -14.7818 N   0  0  0  0  0  0  0  0  0  0  0  0
   41.3392   13.4777  -14.7914 N   0  0  0  0  0  0  0  0  0  0  0  0
   42.0727   13.0778  -15.8327 C   0  0  0  0  0  0  0  0  0  0  0  0
   41.5761   12.3990  -16.8788 N   0  0  0  0  0  0  0  0  0  0  0  0
   40.2569   12.0891  -16.9036 C   0  0  0  0  0  0  0  0  0  0  0  0
   39.4759   11.4368  -17.7819 N   0  0  0  0  0  0  0  0  0  0  0  0
   39.9023   10.8432  -19.0543 C   0  0  0  0  0  0  0  0  0  0  0  0
   34.6500   12.5376  -13.8126 C   0  0  0  0  0  0  0  0  0  0  0  0
   34.7208   11.8580  -15.0291 O   0  0  0  0  0  0  0  0  0  0  0  0
   43.8170   13.4809  -15.8141 S   0  0  0  0  0  0  0  0  0  0  0  0
   44.7334   12.1857  -16.7118 C   0  0  0  0  0  0  0  0  0  0  0  0
 15 16  1  0  0  0
 16  1  1  0  0  0
  1  2  2  0  0  0
  2  3  1  0  0  0
  3  4  2  0  0  0
  4  5  1  0  0  0
  5  6  2  0  0  0
  5  7  1  0  0  0
  7  8  2  0  0  0
  8  9  1  0  0  0
  9 10  2  0  0  0
 10 17  1  0  0  0
 17 18  1  0  0  0
 10 11  1  0  0  0
 11 12  2  0  0  0
 12 13  1  0  0  0
 13 14  1  0  0  0
  6  1  1  0  0  0
 12  7  1  0  0  0
 13  4  1  0  0  0
M  END
> <minimizedAffinity>
-7.32930

> <CNNscore>
0.7900142670

> <CNNaffinity>
6.0098042488

> <CNN_VS>
4.7478308678

> <CNNaffinity_variance>
0.0360822938

$$$$
[H]c1c(OC([H])([H])[H])c([H])c2c3nnc(SC([H])([H])[H])nc3n(C([H])([H])[H])c2c1[H]


 18 20  0  0  0  0  0  0  0  0999 V2000
   35.6818   11.5339  -16.4591 C   0  0  0  0  0  0  0  0  0  0  0  0
   35.2815   12.2772  -15.3693 C   0  0  0  0  0  0  0  0  0  0  0  0
   36.2427   12.9853  -14.6456 C   0  0  0  0  0  0  0  0  0  0  0  0
   37.5864   12.9603  -14.9938 C   0  0  0  0  0  0  0  0  0  0  0  0
   37.9679   12.2131  -16.0843 C   0  0  0  0  0  0  0  0  0  0  0  0
   37.0125   11.5028  -16.8125 C   0  0  0  0  0  0  0  0  0  0  0  0
   39.3307   12.3446  -16.2279 C   0  0  0  0  0  0  0  0  0  0  0  0
   40.1817   11.8238  -17.1257 N   0  0  0  0  0  0  0  0  0  0  0  0
   41.4690   12.1131  -17.0414 N   0  0  0  0  0  0  0  0  0  0  0  0
   41.8784   12.9185  -16.0586 C   0  0  0  0  0  0  0  0  0  0  0  0
   41.0571   13.4571  -15.1437 N   0  0  0  0  0  0  0  0  0  0  0  0
   39.7309   13.1831  -15.1987 C   0  0  0  0  0  0  0  0  0  0  0  0
   38.6772   13.5559  -14.4520 N   0  0  0  0  0  0  0  0  0  0  0  0
   38.7083   14.4365  -13.2787 C   0  0  0  0  0  0  0  0  0  0  0  0
   33.3946   10.8113  -17.0389 C   0  0  0  0  0  0  0  0  0  0  0  0
   34.7787   10.8117  -17.2155 O   0  0  0  0  0  0  0  0  0  0  0  0
   43.6280   13.2887  -15.9730 S   0  0  0  0  0  0  0  0  0  0  0  0
   44.5621   11.9071  -16.7091 C   0  0  0  0  0  0  0  0  0  0  0  0
 15 16  1  0  0  0
 16  1  1  0  0  0
  1  2  2  0  0  0
  2  3  1  0  0  0
  3  4  2  0  0  0
  4  5  1  0  0  0
  5  6  2  0  0  0
  5  7  1  0  0  0
  7  8  2  0  0  0
  8  9  1  0  0  0
  9 10  2  0  0  0
 10 17  1  0  0  0
 17 18  1  0  0  0
 10 11  1  0  0  0
 11 12  2  0  0  0
 12 13  1  0  0  0
 13 14  1  0  0  0
  6  1  1  0  0  0
 12  7  1  0  0  0
 13  4  1  0  0  0
M  END
> <minimizedAffinity>
-7.22948

> <CNNscore>
0.7523823380

> <CNNaffinity>
5.7115335464

> <CNN_VS>
4.2972569466

> <CNNaffinity_variance>
0.0486084148

$$$$
[H]c1c(OC([H])([H])[H])c([H])c2c3nnc(SC([H])([H])[H])nc3n(C([H])([H])[H])c2c1[H]


 18 20  0  0  0  0  0  0  0  0999 V2000
   35.8105   12.8023  -12.7511 C   0  0  0  0  0  0  0  0  0  0  0  0
   37.1044   12.7486  -13.2240 C   0  0  0  0  0  0  0  0  0  0  0  0
   37.3385   12.2064  -14.4891 C   0  0  0  0  0  0  0  0  0  0  0  0
   36.3058   11.7215  -15.2802 C   0  0  0  0  0  0  0  0  0  0  0  0
   35.0209   11.7831  -14.7921 C   0  0  0  0  0  0  0  0  0  0  0  0
   34.7793   12.3239  -13.5284 C   0  0  0  0  0  0  0  0  0  0  0  0
   34.1833   11.2496  -15.7455 C   0  0  0  0  0  0  0  0  0  0  0  0
   32.8520   11.0789  -15.7601 N   0  0  0  0  0  0  0  0  0  0  0  0
   32.2811   10.5313  -16.8194 N   0  0  0  0  0  0  0  0  0  0  0  0
   33.0555   10.1651  -17.8433 C   0  0  0  0  0  0  0  0  0  0  0  0
   34.3886   10.3199  -17.8638 N   0  0  0  0  0  0  0  0  0  0  0  0
   35.0088   10.8779  -16.7955 C   0  0  0  0  0  0  0  0  0  0  0  0
   36.2922   11.1628  -16.5153 N   0  0  0  0  0  0  0  0  0  0  0  0
   37.4497   10.9140  -17.3823 C   0  0  0  0  0  0  0  0  0  0  0  0
   36.0837   14.4768  -10.9592 C   0  0  0  0  0  0  0  0  0  0  0  0
   35.5142   13.3272  -11.5077 O   0  0  0  0  0  0  0  0  0  0  0  0
   32.2501    9.4258  -19.2611 S   0  0  0  0  0  0  0  0  0  0  0  0
   31.7909    7.7095  -18.8529 C   0  0  0  0  0  0  0  0  0  0  0  0
 15 16  1  0  0  0
 16  1  1  0  0  0
  1  2  2  0  0  0
  2  3  1  0  0  0
  3  4  2  0  0  0
  4  5  1  0  0  0
  5  6  2  0  0  0
  5  7  1  0  0  0
  7  8  2  0  0  0
  8  9  1  0  0  0
  9 10  2  0  0  0
 10 17  1  0  0  0
 17 18  1  0  0  0
 10 11  1  0  0  0
 11 12  2  0  0  0
 12 13  1  0  0  0
 13 14  1  0  0  0
  6  1  1  0  0  0
 12  7  1  0  0  0
 13  4  1  0  0  0
M  END
> <minimizedAffinity>
-0.43875

> <CNNscore>
0.5945819616

> <CNNaffinity>
5.6641888618

> <CNN_VS>
3.3678245544

> <CNNaffinity_variance>
0.1173301563

$$$$
[H]c1c(OC([H])([H])[H])c([H])c2c3nnc(SC([H])([H])[H])nc3n(C([H])([H])[H])c2c1[H]


 18 20  0  0  0  0  0  0  0  0999 V2000
   37.9929   14.8458   -6.7736 C   0  0  0  0  0  0  0  0  0  0  0  0
   37.3412   13.6772   -6.4416 C   0  0  0  0  0  0  0  0  0  0  0  0
   35.9716   13.7208   -6.1739 C   0  0  0  0  0  0  0  0  0  0  0  0
   35.2517   14.9064   -6.2331 C   0  0  0  0  0  0  0  0  0  0  0  0
   35.9184   16.0630   -6.5660 C   0  0  0  0  0  0  0  0  0  0  0  0
   37.2873   16.0269   -6.8350 C   0  0  0  0  0  0  0  0  0  0  0  0
   35.0038   17.0919   -6.5596 C   0  0  0  0  0  0  0  0  0  0  0  0
   35.1425   18.4026   -6.8133 N   0  0  0  0  0  0  0  0  0  0  0  0
   34.0847   19.1922   -6.7377 N   0  0  0  0  0  0  0  0  0  0  0  0
   32.9086   18.6529   -6.4089 C   0  0  0  0  0  0  0  0  0  0  0  0
   32.7325   17.3479   -6.1485 N   0  0  0  0  0  0  0  0  0  0  0  0
   33.7940   16.5080   -6.2164 C   0  0  0  0  0  0  0  0  0  0  0  0
   33.9427   15.1868   -6.0188 N   0  0  0  0  0  0  0  0  0  0  0  0
   32.8886   14.2374   -5.6434 C   0  0  0  0  0  0  0  0  0  0  0  0
   39.9695   14.1853   -8.0950 C   0  0  0  0  0  0  0  0  0  0  0  0
   39.3466   14.8679   -7.0496 O   0  0  0  0  0  0  0  0  0  0  0  0
   31.4974   19.7506   -6.3145 S   0  0  0  0  0  0  0  0  0  0  0  0
   30.2322   19.1916   -7.5020 C   0  0  0  0  0  0  0  0  0  0  0  0
 15 16  1  0  0  0
 16  1  1  0  0  0
  1  2  2  0  0  0
  2  3  1  0  0  0
  3  4  2  0  0  0
  4  5  1  0  0  0
  5  6  2  0  0  0
  5  7  1  0  0  0
  7  8  2  0  0  0
  8  9  1  0  0  0
  9 10  2  0  0  0
 10 17  1  0  0  0
 17 18  1  0  0  0
 10 11  1  0  0  0
 11 12  2  0  0  0
 12 13  1  0  0  0
 13 14  1  0  0  0
  6  1  1  0  0  0
 12  7  1  0  0  0
 13  4  1  0  0  0
M  END
> <minimizedAffinity>
-3.46892

> <CNNscore>
0.4710083008

> <CNNaffinity>
4.4000425339

> <CNN_VS>
2.0724565983

> <CNNaffinity_variance>
0.3611601591

$$$$
[H]c1c(OC([H])([H])[H])c([H])c2c3nnc(SC([H])([H])[H])nc3n(C([H])([H])[H])c2c1[H]


 18 20  0  0  0  0  0  0  0  0999 V2000
   41.8969   12.9351  -15.8505 C   0  0  0  0  0  0  0  0  0  0  0  0
   42.0987   12.3089  -17.0620 C   0  0  0  0  0  0  0  0  0  0  0  0
   41.0058   11.7385  -17.7172 C   0  0  0  0  0  0  0  0  0  0  0  0
   39.7256   11.7853  -17.1821 C   0  0  0  0  0  0  0  0  0  0  0  0
   39.5428   12.4143  -15.9721 C   0  0  0  0  0  0  0  0  0  0  0  0
   40.6306   12.9869  -15.3116 C   0  0  0  0  0  0  0  0  0  0  0  0
   38.2060   12.3320  -15.6535 C   0  0  0  0  0  0  0  0  0  0  0  0
   37.5184   12.7824  -14.5924 N   0  0  0  0  0  0  0  0  0  0  0  0
   36.2154   12.5684  -14.5270 N   0  0  0  0  0  0  0  0  0  0  0  0
   35.6268   11.9068  -15.5261 C   0  0  0  0  0  0  0  0  0  0  0  0
   36.2818   11.4419  -16.6016 N   0  0  0  0  0  0  0  0  0  0  0  0
   37.6183   11.6428  -16.7033 C   0  0  0  0  0  0  0  0  0  0  0  0
   38.5361   11.3118  -17.6279 N   0  0  0  0  0  0  0  0  0  0  0  0
   38.2915   10.5793  -18.8757 C   0  0  0  0  0  0  0  0  0  0  0  0
   44.2323   13.7038  -15.6396 C   0  0  0  0  0  0  0  0  0  0  0  0
   42.9376   13.5186  -15.1536 O   0  0  0  0  0  0  0  0  0  0  0  0
   33.8616   11.6334  -15.4049 S   0  0  0  0  0  0  0  0  0  0  0  0
   33.2851   10.8062  -16.9237 C   0  0  0  0  0  0  0  0  0  0  0  0
 15 16  1  0  0  0
 16  1  1  0  0  0
  1  2  2  0  0  0
  2  3  1  0  0  0
  3  4  2  0  0  0
  4  5  1  0  0  0
  5  6  2  0  0  0
  5  7  1  0  0  0
  7  8  2  0  0  0
  8  9  1  0  0  0
  9 10  2  0  0  0
 10 17  1  0  0  0
 17 18  1  0  0  0
 10 11  1  0  0  0
 11 12  2  0  0  0
 12 13  1  0  0  0
 13 14  1  0  0  0
  6  1  1  0  0  0
 12  7  1  0  0  0
 13  4  1  0  0  0
M  END
> <minimizedAffinity>
-6.96376

> <CNNscore>
0.4684863389

> <CNNaffinity>
5.7608041763

> <CNN_VS>
2.6988580227

> <CNNaffinity_variance>
0.0917943865

$$$$
[H]c1c(OC([H])([H])[H])c([H])c2c3nnc(SC([H])([H])[H])nc3n(C([H])([H])[H])c2c1[H]


 18 20  0  0  0  0  0  0  0  0999 V2000
   42.0601   12.8758  -15.8213 C   0  0  0  0  0  0  0  0  0  0  0  0
   42.1516   13.6723  -14.6998 C   0  0  0  0  0  0  0  0  0  0  0  0
   40.9871   13.9807  -13.9942 C   0  0  0  0  0  0  0  0  0  0  0  0
   39.7437   13.5077  -14.3913 C   0  0  0  0  0  0  0  0  0  0  0  0
   39.6712   12.7141  -15.5129 C   0  0  0  0  0  0  0  0  0  0  0  0
   40.8312   12.4017  -16.2232 C   0  0  0  0  0  0  0  0  0  0  0  0
   38.3508   12.3734  -15.7019 C   0  0  0  0  0  0  0  0  0  0  0  0
   37.7548   11.6234  -16.6420 N   0  0  0  0  0  0  0  0  0  0  0  0
   36.4453   11.4475  -16.5960 N   0  0  0  0  0  0  0  0  0  0  0  0
   35.7584   12.0271  -15.6088 C   0  0  0  0  0  0  0  0  0  0  0  0
   36.3200   12.7833  -14.6525 N   0  0  0  0  0  0  0  0  0  0  0  0
   37.6601   12.9855  -14.6673 C   0  0  0  0  0  0  0  0  0  0  0  0
   38.5012   13.6715  -13.8743 N   0  0  0  0  0  0  0  0  0  0  0  0
   38.1384   14.4462  -12.6820 C   0  0  0  0  0  0  0  0  0  0  0  0
   44.4770   12.9715  -16.3100 C   0  0  0  0  0  0  0  0  0  0  0  0
   43.1758   12.5353  -16.5618 O   0  0  0  0  0  0  0  0  0  0  0  0
   33.9870   11.7693  -15.5770 S   0  0  0  0  0  0  0  0  0  0  0  0
   33.5091   10.7644  -17.0210 C   0  0  0  0  0  0  0  0  0  0  0  0
 15 16  1  0  0  0
 16  1  1  0  0  0
  1  2  2  0  0  0
  2  3  1  0  0  0
  3  4  2  0  0  0
  4  5  1  0  0  0
  5  6  2  0  0  0
  5  7  1  0  0  0
  7  8  2  0  0  0
  8  9  1  0  0  0
  9 10  2  0  0  0
 10 17  1  0  0  0
 17 18  1  0  0  0
 10 11  1  0  0  0
 11 12  2  0  0  0
 12 13  1  0  0  0
 13 14  1  0  0  0
  6  1  1  0  0  0
 12  7  1  0  0  0
 13  4  1  0  0  0
M  END
> <minimizedAffinity>
-6.82090

> <CNNscore>
0.4592265785

> <CNNaffinity>
5.4949769974

> <CNN_VS>
2.5234394073

> <CNNaffinity_variance>
0.1343803853

$$$$
[H]c1c(OC([H])([H])[H])c([H])c2c3nnc(SC([H])([H])[H])nc3n(C([H])([H])[H])c2c1[H]


 18 20  0  0  0  0  0  0  0  0999 V2000
   36.1638   11.0338  -16.8114 C   0  0  0  0  0  0  0  0  0  0  0  0
   37.1732   10.5908  -17.6392 C   0  0  0  0  0  0  0  0  0  0  0  0
   38.4637   11.0917  -17.4576 C   0  0  0  0  0  0  0  0  0  0  0  0
   38.7556   12.0211  -16.4685 C   0  0  0  0  0  0  0  0  0  0  0  0
   37.7358   12.4520  -15.6515 C   0  0  0  0  0  0  0  0  0  0  0  0
   36.4434   11.9556  -15.8271 C   0  0  0  0  0  0  0  0  0  0  0  0
   38.2653   13.3590  -14.7614 C   0  0  0  0  0  0  0  0  0  0  0  0
   37.6975   14.0614  -13.7686 N   0  0  0  0  0  0  0  0  0  0  0  0
   38.4429   14.8805  -13.0465 N   0  0  0  0  0  0  0  0  0  0  0  0
   39.7428   14.9800  -13.3337 C   0  0  0  0  0  0  0  0  0  0  0  0
   40.3444   14.2941  -14.3182 N   0  0  0  0  0  0  0  0  0  0  0  0
   39.6122   13.4446  -15.0792 C   0  0  0  0  0  0  0  0  0  0  0  0
   39.9097   12.6362  -16.1111 N   0  0  0  0  0  0  0  0  0  0  0  0
   41.2296   12.4589  -16.7272 C   0  0  0  0  0  0  0  0  0  0  0  0
   33.7500   11.1216  -16.3063 C   0  0  0  0  0  0  0  0  0  0  0  0
   34.8665   10.5760  -16.9406 O   0  0  0  0  0  0  0  0  0  0  0  0
   40.7226   16.0990  -12.3370 S   0  0  0  0  0  0  0  0  0  0  0  0
   39.9218   16.2996  -10.7116 C   0  0  0  0  0  0  0  0  0  0  0  0
 15 16  1  0  0  0
 16  1  1  0  0  0
  1  2  2  0  0  0
  2  3  1  0  0  0
  3  4  2  0  0  0
  4  5  1  0  0  0
  5  6  2  0  0  0
  5  7  1  0  0  0
  7  8  2  0  0  0
  8  9  1  0  0  0
  9 10  2  0  0  0
 10 17  1  0  0  0
 17 18  1  0  0  0
 10 11  1  0  0  0
 11 12  2  0  0  0
 12 13  1  0  0  0
 13 14  1  0  0  0
  6  1  1  0  0  0
 12  7  1  0  0  0
 13  4  1  0  0  0
M  END
> <minimizedAffinity>
-7.43038

> <CNNscore>
0.4210410714

> <CNNaffinity>
5.4747948647

> <CNN_VS>
2.3051135540

> <CNNaffinity_variance>
0.1675356776

$$$$
[H]c1c(OC([H])([H])[H])c([H])c2c3nnc(SC([H])([H])[H])nc3n(C([H])([H])[H])c2c1[H]


 18 20  0  0  0  0  0  0  0  0999 V2000
   36.6592   11.8709  -16.2811 C   0  0  0  0  0  0  0  0  0  0  0  0
   36.1264   12.6340  -15.2641 C   0  0  0  0  0  0  0  0  0  0  0  0
   36.9874   13.3856  -14.4621 C   0  0  0  0  0  0  0  0  0  0  0  0
   38.3613   13.3842  -14.6616 C   0  0  0  0  0  0  0  0  0  0  0  0
   38.8755   12.6168  -15.6812 C   0  0  0  0  0  0  0  0  0  0  0  0
   38.0209   11.8630  -16.4869 C   0  0  0  0  0  0  0  0  0  0  0  0
   40.2427   12.7781  -15.6801 C   0  0  0  0  0  0  0  0  0  0  0  0
   41.1976   12.2538  -16.4642 N   0  0  0  0  0  0  0  0  0  0  0  0
   42.4615   12.5773  -16.2495 N   0  0  0  0  0  0  0  0  0  0  0  0
   42.7437   13.4196  -15.2530 C   0  0  0  0  0  0  0  0  0  0  0  0
   41.8160   13.9627  -14.4492 N   0  0  0  0  0  0  0  0  0  0  0  0
   40.5099   13.6544  -14.6395 C   0  0  0  0  0  0  0  0  0  0  0  0
   39.3732   14.0215  -14.0230 N   0  0  0  0  0  0  0  0  0  0  0  0
   39.2570   14.9349  -12.8804 C   0  0  0  0  0  0  0  0  0  0  0  0
   34.5032   10.8481  -16.9094 C   0  0  0  0  0  0  0  0  0  0  0  0
   35.8599   11.1059  -17.1087 O   0  0  0  0  0  0  0  0  0  0  0  0
   44.4651   13.8353  -14.9894 S   0  0  0  0  0  0  0  0  0  0  0  0
   44.5668   15.1986  -13.7834 C   0  0  0  0  0  0  0  0  0  0  0  0
 15 16  1  0  0  0
 16  1  1  0  0  0
  1  2  2  0  0  0
  2  3  1  0  0  0
  3  4  2  0  0  0
  4  5  1  0  0  0
  5  6  2  0  0  0
  5  7  1  0  0  0
  7  8  2  0  0  0
  8  9  1  0  0  0
  9 10  2  0  0  0
 10 17  1  0  0  0
 17 18  1  0  0  0
 10 11  1  0  0  0
 11 12  2  0  0  0
 12 13  1  0  0  0
 13 14  1  0  0  0
  6  1  1  0  0  0
 12  7  1  0  0  0
 13  4  1  0  0  0
M  END
> <minimizedAffinity>
-6.56263

> <CNNscore>
0.3934743106

> <CNNaffinity>
5.2951555252

> <CNN_VS>
2.0835077763

> <CNNaffinity_variance>
0.0799008906

$$$$
[H]c1c(OC([H])([H])[H])c([H])c2c3nnc(SC([H])([H])[H])nc3n(C([H])([H])[H])c2c1[H]


 18 20  0  0  0  0  0  0  0  0999 V2000
   38.2503   15.2934   -7.0291 C   0  0  0  0  0  0  0  0  0  0  0  0
   39.0000   16.4466   -7.1231 C   0  0  0  0  0  0  0  0  0  0  0  0
   40.3411   16.4130   -6.7365 C   0  0  0  0  0  0  0  0  0  0  0  0
   40.9371   15.2526   -6.2615 C   0  0  0  0  0  0  0  0  0  0  0  0
   40.1738   14.1112   -6.1744 C   0  0  0  0  0  0  0  0  0  0  0  0
   38.8326   14.1372   -6.5592 C   0  0  0  0  0  0  0  0  0  0  0  0
   40.9758   13.1059   -5.6830 C   0  0  0  0  0  0  0  0  0  0  0  0
   40.7167   11.8165   -5.4151 N   0  0  0  0  0  0  0  0  0  0  0  0
   41.6817   11.0471   -4.9410 N   0  0  0  0  0  0  0  0  0  0  0  0
   42.8875   11.5852   -4.7441 C   0  0  0  0  0  0  0  0  0  0  0  0
   43.1828   12.8693   -5.0001 N   0  0  0  0  0  0  0  0  0  0  0  0
   42.2188   13.6880   -5.4873 C   0  0  0  0  0  0  0  0  0  0  0  0
   42.1966   14.9858   -5.8367 N   0  0  0  0  0  0  0  0  0  0  0  0
   43.3209   15.9263   -5.7685 C   0  0  0  0  0  0  0  0  0  0  0  0
   35.9232   16.1037   -6.8981 C   0  0  0  0  0  0  0  0  0  0  0  0
   36.9186   15.2624   -7.3962 O   0  0  0  0  0  0  0  0  0  0  0  0
   44.1708   10.5156   -4.1000 S   0  0  0  0  0  0  0  0  0  0  0  0
   45.7461   10.9185   -4.9243 C   0  0  0  0  0  0  0  0  0  0  0  0
 15 16  1  0  0  0
 16  1  1  0  0  0
  1  2  2  0  0  0
  2  3  1  0  0  0
  3  4  2  0  0  0
  4  5  1  0  0  0
  5  6  2  0  0  0
  5  7  1  0  0  0
  7  8  2  0  0  0
  8  9  1  0  0  0
  9 10  2  0  0  0
 10 17  1  0  0  0
 17 18  1  0  0  0
 10 11  1  0  0  0
 11 12  2  0  0  0
 12 13  1  0  0  0
 13 14  1  0  0  0
  6  1  1  0  0  0
 12  7  1  0  0  0
 13  4  1  0  0  0
M  END
> <minimizedAffinity>
-3.97067

> <CNNscore>
0.3783247173

> <CNNaffinity>
3.9803402424

> <CNN_VS>
1.5058610439

> <CNNaffinity_variance>
0.1959182322

$$$$
[H]OC1(c2c([H])c([H])c(C([H])([H])C([H])([H])C([H])([H])[H])c([H])c2[H])C([H])([H])C([H])([H])N(C([H])(c2c([H])c([H])c([H])c([H])c2[H])c2c([H])c([H])c([H])c([H])c2[H])C([H])([H])C1([H])[H]


 30 33  0  0  0  0  0  0  0  0999 V2000
   36.2551   14.3907  -11.7844 C   0  0  0  0  0  0  0  0  0  0  0  0
   35.8879   13.0291  -11.8654 O   0  0  0  0  0  0  0  0  0  0  0  0
   35.7176   15.0743  -12.9826 C   0  0  0  0  0  0  0  0  0  0  0  0
   36.1823   14.3230  -14.2003 C   0  0  0  0  0  0  0  0  0  0  0  0
   37.3985   13.6206  -14.0234 N   0  0  0  0  0  0  0  0  0  0  0  0
   38.3440   14.0122  -13.0913 C   0  0  0  0  0  0  0  0  0  0  0  0
   37.7518   14.4640  -11.7769 C   0  0  0  0  0  0  0  0  0  0  0  0
   35.0457   12.8814  -11.3645 H   0  0  0  0  0  0  0  0  0  0  0  0
   34.4110   15.8687   -8.2075 C   0  0  0  0  0  0  0  0  0  0  0  0
   35.6251   15.2116   -8.1485 C   0  0  0  0  0  0  0  0  0  0  0  0
   36.2541   14.7389   -9.2986 C   0  0  0  0  0  0  0  0  0  0  0  0
   35.6737   14.9156  -10.5417 C   0  0  0  0  0  0  0  0  0  0  0  0
   34.4664   15.5769  -10.5717 C   0  0  0  0  0  0  0  0  0  0  0  0
   33.8328   16.0494   -9.4471 C   0  0  0  0  0  0  0  0  0  0  0  0
   33.7353   16.2449   -6.9484 C   0  0  0  0  0  0  0  0  0  0  0  0
   32.7941   14.2787   -5.7861 C   0  0  0  0  0  0  0  0  0  0  0  0
   33.9725   15.2114   -5.8600 C   0  0  0  0  0  0  0  0  0  0  0  0
   37.4785   12.3858  -14.6971 C   0  0  0  0  0  0  0  0  0  0  0  0
   36.1727   11.9657  -15.3515 C   0  0  0  0  0  0  0  0  0  0  0  0
   35.0313   11.7751  -14.5692 C   0  0  0  0  0  0  0  0  0  0  0  0
   33.8530   11.3523  -15.1193 C   0  0  0  0  0  0  0  0  0  0  0  0
   33.8218   11.1171  -16.4818 C   0  0  0  0  0  0  0  0  0  0  0  0
   34.9348   11.3069  -17.2470 C   0  0  0  0  0  0  0  0  0  0  0  0
   36.1403   11.7417  -16.6714 C   0  0  0  0  0  0  0  0  0  0  0  0
   38.4656   12.2536  -15.7671 C   0  0  0  0  0  0  0  0  0  0  0  0
   39.3691   13.2795  -16.0303 C   0  0  0  0  0  0  0  0  0  0  0  0
   40.3500   13.1653  -16.9740 C   0  0  0  0  0  0  0  0  0  0  0  0
   40.4810   11.9941  -17.7148 C   0  0  0  0  0  0  0  0  0  0  0  0
   39.6001   10.9777  -17.4755 C   0  0  0  0  0  0  0  0  0  0  0  0
   38.6117   11.1217  -16.5135 C   0  0  0  0  0  0  0  0  0  0  0  0
 16 17  1  0  0  0
 17 15  1  0  0  0
 15  9  1  0  0  0
  9 10  2  0  0  0
 10 11  1  0  0  0
 11 12  2  0  0  0
 12  1  1  0  0  0
  1  2  1  0  0  0
  1  3  1  0  0  0
  3  4  1  0  0  0
  4  5  1  0  0  0
  5 18  1  0  0  0
 18 19  1  0  0  0
 19 20  2  0  0  0
 20 21  1  0  0  0
 21 22  2  0  0  0
 22 23  1  0  0  0
 23 24  2  0  0  0
 18 25  1  0  0  0
 25 26  2  0  0  0
 26 27  1  0  0  0
 27 28  2  0  0  0
 28 29  1  0  0  0
 29 30  2  0  0  0
  5  6  1  0  0  0
  6  7  1  0  0  0
 12 13  1  0  0  0
 13 14  2  0  0  0
 14  9  1  0  0  0
  7  1  1  0  0  0
 24 19  1  0  0  0
 30 25  1  0  0  0
  2  8  1  0  0  0
M  END
> <minimizedAffinity>
-8.79596

> <CNNscore>
0.2597453296

> <CNNaffinity>
5.9975876808

> <CNN_VS>
1.5578453541

> <CNNaffinity_variance>
0.4006532133

$$$$
[H]OC1(c2c([H])c([H])c(C([H])([H])C([H])([H])C([H])([H])[H])c([H])c2[H])C([H])([H])C([H])([H])N(C([H])(c2c([H])c([H])c([H])c([H])c2[H])c2c([H])c([H])c([H])c([H])c2[H])C([H])([H])C1([H])[H]


 30 33  0  0  0  0  0  0  0  0999 V2000
   37.7032   15.2218  -11.8695 C   0  0  0  0  0  0  0  0  0  0  0  0
   37.4793   13.8539  -11.5970 O   0  0  0  0  0  0  0  0  0  0  0  0
   36.7108   15.6477  -12.8823 C   0  0  0  0  0  0  0  0  0  0  0  0
   36.7987   14.7052  -14.0516 C   0  0  0  0  0  0  0  0  0  0  0  0
   38.0680   14.1018  -14.2202 N   0  0  0  0  0  0  0  0  0  0  0  0
   39.2316   14.7002  -13.7685 C   0  0  0  0  0  0  0  0  0  0  0  0
   39.0910   15.3609  -12.4172 C   0  0  0  0  0  0  0  0  0  0  0  0
   36.8862   13.7646  -10.8082 H   0  0  0  0  0  0  0  0  0  0  0  0
   37.3636   17.4059   -8.1960 C   0  0  0  0  0  0  0  0  0  0  0  0
   36.2494   17.1808   -8.9816 C   0  0  0  0  0  0  0  0  0  0  0  0
   36.3301   16.4575  -10.1700 C   0  0  0  0  0  0  0  0  0  0  0  0
   37.5396   15.9415  -10.5994 C   0  0  0  0  0  0  0  0  0  0  0  0
   38.6323   16.1772   -9.7955 C   0  0  0  0  0  0  0  0  0  0  0  0
   38.5700   16.8883   -8.6209 C   0  0  0  0  0  0  0  0  0  0  0  0
   37.2417   18.2764   -7.0083 C   0  0  0  0  0  0  0  0  0  0  0  0
   37.6020   20.4739   -8.0780 C   0  0  0  0  0  0  0  0  0  0  0  0
   38.1676   19.4776   -7.1024 C   0  0  0  0  0  0  0  0  0  0  0  0
   38.0399   12.7684  -14.6743 C   0  0  0  0  0  0  0  0  0  0  0  0
   36.6439   12.2717  -15.0123 C   0  0  0  0  0  0  0  0  0  0  0  0
   36.2930   12.0322  -16.3431 C   0  0  0  0  0  0  0  0  0  0  0  0
   35.0320   11.6298  -16.6859 C   0  0  0  0  0  0  0  0  0  0  0  0
   34.1064   11.4650  -15.6716 C   0  0  0  0  0  0  0  0  0  0  0  0
   34.4493   11.6947  -14.3717 C   0  0  0  0  0  0  0  0  0  0  0  0
   35.7480   12.1078  -14.0305 C   0  0  0  0  0  0  0  0  0  0  0  0
   38.8279   12.4330  -15.8589 C   0  0  0  0  0  0  0  0  0  0  0  0
   39.6938   13.3658  -16.4231 C   0  0  0  0  0  0  0  0  0  0  0  0
   40.4976   13.0673  -17.4865 C   0  0  0  0  0  0  0  0  0  0  0  0
   40.4774   11.7938  -18.0484 C   0  0  0  0  0  0  0  0  0  0  0  0
   39.6299   10.8659  -17.5127 C   0  0  0  0  0  0  0  0  0  0  0  0
   38.8224   11.1969  -16.4349 C   0  0  0  0  0  0  0  0  0  0  0  0
 16 17  1  0  0  0
 17 15  1  0  0  0
 15  9  1  0  0  0
  9 10  2  0  0  0
 10 11  1  0  0  0
 11 12  2  0  0  0
 12  1  1  0  0  0
  1  2  1  0  0  0
  1  3  1  0  0  0
  3  4  1  0  0  0
  4  5  1  0  0  0
  5 18  1  0  0  0
 18 19  1  0  0  0
 19 20  2  0  0  0
 20 21  1  0  0  0
 21 22  2  0  0  0
 22 23  1  0  0  0
 23 24  2  0  0  0
 18 25  1  0  0  0
 25 26  2  0  0  0
 26 27  1  0  0  0
 27 28  2  0  0  0
 28 29  1  0  0  0
 29 30  2  0  0  0
  5  6  1  0  0  0
  6  7  1  0  0  0
 12 13  1  0  0  0
 13 14  2  0  0  0
 14  9  1  0  0  0
  7  1  1  0  0  0
 24 19  1  0  0  0
 30 25  1  0  0  0
  2  8  1  0  0  0
M  END
> <minimizedAffinity>
-8.39370

> <CNNscore>
0.2390689105

> <CNNaffinity>
5.8140931129

> <CNN_VS>
1.3899688721

> <CNNaffinity_variance>
0.3483751714

$$$$
[H]OC1(c2c([H])c([H])c(C([H])([H])C([H])([H])C([H])([H])[H])c([H])c2[H])C([H])([H])C([H])([H])N(C([H])(c2c([H])c([H])c([H])c([H])c2[H])c2c([H])c([H])c([H])c([H])c2[H])C([H])([H])C1([H])[H]


 30 33  0  0  0  0  0  0  0  0999 V2000
   36.1539   14.5218  -11.9094 C   0  0  0  0  0  0  0  0  0  0  0  0
   35.9419   13.9557  -10.6327 O   0  0  0  0  0  0  0  0  0  0  0  0
   37.6156   14.5975  -12.1316 C   0  0  0  0  0  0  0  0  0  0  0  0
   38.2316   15.3197  -10.9644 C   0  0  0  0  0  0  0  0  0  0  0  0
   37.3621   16.2300  -10.3171 N   0  0  0  0  0  0  0  0  0  0  0  0
   36.3023   16.8287  -10.9762 C   0  0  0  0  0  0  0  0  0  0  0  0
   35.5607   15.8978  -11.9069 C   0  0  0  0  0  0  0  0  0  0  0  0
   35.8094   12.9776  -10.7204 H   0  0  0  0  0  0  0  0  0  0  0  0
   34.1862   12.0831  -14.8354 C   0  0  0  0  0  0  0  0  0  0  0  0
   35.3953   11.6890  -14.2950 C   0  0  0  0  0  0  0  0  0  0  0  0
   36.0452   12.4543  -13.3286 C   0  0  0  0  0  0  0  0  0  0  0  0
   35.4925   13.6407  -12.8812 C   0  0  0  0  0  0  0  0  0  0  0  0
   34.2858   14.0073  -13.4335 C   0  0  0  0  0  0  0  0  0  0  0  0
   33.6316   13.2643  -14.3871 C   0  0  0  0  0  0  0  0  0  0  0  0
   33.6004   11.2936  -15.9385 C   0  0  0  0  0  0  0  0  0  0  0  0
   35.5955   11.2732  -17.3952 C   0  0  0  0  0  0  0  0  0  0  0  0
   34.6435   10.4143  -16.6076 C   0  0  0  0  0  0  0  0  0  0  0  0
   37.5157   16.3112   -8.9190 C   0  0  0  0  0  0  0  0  0  0  0  0
   38.8280   15.7311   -8.4178 C   0  0  0  0  0  0  0  0  0  0  0  0
   40.0371   16.3316   -8.7767 C   0  0  0  0  0  0  0  0  0  0  0  0
   41.2371   15.8083   -8.3818 C   0  0  0  0  0  0  0  0  0  0  0  0
   41.2210   14.6598   -7.6115 C   0  0  0  0  0  0  0  0  0  0  0  0
   40.0408   14.0753   -7.2573 C   0  0  0  0  0  0  0  0  0  0  0  0
   38.8134   14.6214   -7.6684 C   0  0  0  0  0  0  0  0  0  0  0  0
   37.4584   17.6346   -8.3008 C   0  0  0  0  0  0  0  0  0  0  0  0
   37.0902   17.7795   -6.9660 C   0  0  0  0  0  0  0  0  0  0  0  0
   37.0924   18.9906   -6.3345 C   0  0  0  0  0  0  0  0  0  0  0  0
   37.4738   20.1408   -7.0195 C   0  0  0  0  0  0  0  0  0  0  0  0
   37.8330   20.0205   -8.3321 C   0  0  0  0  0  0  0  0  0  0  0  0
   37.8187   18.7788   -8.9494 C   0  0  0  0  0  0  0  0  0  0  0  0
 16 17  1  0  0  0
 17 15  1  0  0  0
 15  9  1  0  0  0
  9 10  2  0  0  0
 10 11  1  0  0  0
 11 12  2  0  0  0
 12  1  1  0  0  0
  1  2  1  0  0  0
  1  3  1  0  0  0
  3  4  1  0  0  0
  4  5  1  0  0  0
  5 18  1  0  0  0
 18 19  1  0  0  0
 19 20  2  0  0  0
 20 21  1  0  0  0
 21 22  2  0  0  0
 22 23  1  0  0  0
 23 24  2  0  0  0
 18 25  1  0  0  0
 25 26  2  0  0  0
 26 27  1  0  0  0
 27 28  2  0  0  0
 28 29  1  0  0  0
 29 30  2  0  0  0
  5  6  1  0  0  0
  6  7  1  0  0  0
 12 13  1  0  0  0
 13 14  2  0  0  0
 14  9  1  0  0  0
  7  1  1  0  0  0
 24 19  1  0  0  0
 30 25  1  0  0  0
  2  8  1  0  0  0
M  END
> <minimizedAffinity>
-7.43668

> <CNNscore>
0.2263253480

> <CNNaffinity>
5.3942737579

> <CNN_VS>
1.2208608389

> <CNNaffinity_variance>
0.4027664661

$$$$
[H]OC1(c2c([H])c([H])c(C([H])([H])C([H])([H])C([H])([H])[H])c([H])c2[H])C([H])([H])C([H])([H])N(C([H])(c2c([H])c([H])c([H])c([H])c2[H])c2c([H])c([H])c([H])c([H])c2[H])C([H])([H])C1([H])[H]


 30 33  0  0  0  0  0  0  0  0999 V2000
   35.9913   14.8983  -11.3138 C   0  0  0  0  0  0  0  0  0  0  0  0
   34.6656   14.9562  -10.8296 O   0  0  0  0  0  0  0  0  0  0  0  0
   36.8449   14.3661  -10.2275 C   0  0  0  0  0  0  0  0  0  0  0  0
   36.6136   15.1998   -8.9968 C   0  0  0  0  0  0  0  0  0  0  0  0
   36.2015   16.5279   -9.2611 N   0  0  0  0  0  0  0  0  0  0  0  0
   36.5188   17.1740  -10.4434 C   0  0  0  0  0  0  0  0  0  0  0  0
   36.4141   16.2922  -11.6657 C   0  0  0  0  0  0  0  0  0  0  0  0
   34.1823   14.1293  -11.0836 H   0  0  0  0  0  0  0  0  0  0  0  0
   35.8195   12.4037  -14.7963 C   0  0  0  0  0  0  0  0  0  0  0  0
   37.0310   12.8895  -14.3428 C   0  0  0  0  0  0  0  0  0  0  0  0
   37.1155   13.6862  -13.2026 C   0  0  0  0  0  0  0  0  0  0  0  0
   35.9778   14.0159  -12.4882 C   0  0  0  0  0  0  0  0  0  0  0  0
   34.7851   13.5152  -12.9599 C   0  0  0  0  0  0  0  0  0  0  0  0
   34.6843   12.7283  -14.0823 C   0  0  0  0  0  0  0  0  0  0  0  0
   35.7751   11.6619  -16.0734 C   0  0  0  0  0  0  0  0  0  0  0  0
   37.0888   10.5800  -17.8640 C   0  0  0  0  0  0  0  0  0  0  0  0
   37.1663   11.4709  -16.6538 C   0  0  0  0  0  0  0  0  0  0  0  0
   35.2722   17.0585   -8.3446 C   0  0  0  0  0  0  0  0  0  0  0  0
   34.7376   16.0320   -7.3594 C   0  0  0  0  0  0  0  0  0  0  0  0
   35.5161   15.6449   -6.2660 C   0  0  0  0  0  0  0  0  0  0  0  0
   35.0850   14.6903   -5.3871 C   0  0  0  0  0  0  0  0  0  0  0  0
   33.8479   14.1142   -5.6117 C   0  0  0  0  0  0  0  0  0  0  0  0
   33.0856   14.4945   -6.6767 C   0  0  0  0  0  0  0  0  0  0  0  0
   33.5381   15.4766   -7.5737 C   0  0  0  0  0  0  0  0  0  0  0  0
   35.7057   18.1668   -7.4959 C   0  0  0  0  0  0  0  0  0  0  0  0
   37.0596   18.4417   -7.3236 C   0  0  0  0  0  0  0  0  0  0  0  0
   37.5016   19.5097   -6.5957 C   0  0  0  0  0  0  0  0  0  0  0  0
   36.5931   20.3757   -5.9938 C   0  0  0  0  0  0  0  0  0  0  0  0
   35.2599   20.1196   -6.1462 C   0  0  0  0  0  0  0  0  0  0  0  0
   34.8387   19.0262   -6.8881 C   0  0  0  0  0  0  0  0  0  0  0  0
 16 17  1  0  0  0
 17 15  1  0  0  0
 15  9  1  0  0  0
  9 10  2  0  0  0
 10 11  1  0  0  0
 11 12  2  0  0  0
 12  1  1  0  0  0
  1  2  1  0  0  0
  1  3  1  0  0  0
  3  4  1  0  0  0
  4  5  1  0  0  0
  5 18  1  0  0  0
 18 19  1  0  0  0
 19 20  2  0  0  0
 20 21  1  0  0  0
 21 22  2  0  0  0
 22 23  1  0  0  0
 23 24  2  0  0  0
 18 25  1  0  0  0
 25 26  2  0  0  0
 26 27  1  0  0  0
 27 28  2  0  0  0
 28 29  1  0  0  0
 29 30  2  0  0  0
  5  6  1  0  0  0
  6  7  1  0  0  0
 12 13  1  0  0  0
 13 14  2  0  0  0
 14  9  1  0  0  0
  7  1  1  0  0  0
 24 19  1  0  0  0
 30 25  1  0  0  0
  2  8  1  0  0  0
M  END
> <minimizedAffinity>
-6.98009

> <CNNscore>
0.2172913551

> <CNNaffinity>
5.3181624413

> <CNN_VS>
1.1555907726

> <CNNaffinity_variance>
0.2845941186

$$$$
[H]OC1(c2c([H])c([H])c(C([H])([H])C([H])([H])C([H])([H])[H])c([H])c2[H])C([H])([H])C([H])([H])N(C([H])(c2c([H])c([H])c([H])c([H])c2[H])c2c([H])c([H])c([H])c([H])c2[H])C([H])([H])C1([H])[H]


 30 33  0  0  0  0  0  0  0  0999 V2000
   37.2084   14.6821  -12.1787 C   0  0  0  0  0  0  0  0  0  0  0  0
   36.9516   13.9450  -11.0014 O   0  0  0  0  0  0  0  0  0  0  0  0
   38.5714   15.2492  -12.0670 C   0  0  0  0  0  0  0  0  0  0  0  0
   38.6619   16.0025  -10.7679 C   0  0  0  0  0  0  0  0  0  0  0  0
   37.4256   16.5087  -10.2999 N   0  0  0  0  0  0  0  0  0  0  0  0
   36.3790   16.7997  -11.1578 C   0  0  0  0  0  0  0  0  0  0  0  0
   36.1966   15.7843  -12.2614 C   0  0  0  0  0  0  0  0  0  0  0  0
   37.1781   12.9918  -11.1497 H   0  0  0  0  0  0  0  0  0  0  0  0
   36.8220   12.0696  -15.5560 C   0  0  0  0  0  0  0  0  0  0  0  0
   37.8939   11.9437  -14.6931 C   0  0  0  0  0  0  0  0  0  0  0  0
   38.0319   12.7677  -13.5778 C   0  0  0  0  0  0  0  0  0  0  0  0
   37.0911   13.7438  -13.3029 C   0  0  0  0  0  0  0  0  0  0  0  0
   36.0317   13.8446  -14.1766 C   0  0  0  0  0  0  0  0  0  0  0  0
   35.8806   13.0400  -15.2807 C   0  0  0  0  0  0  0  0  0  0  0  0
   36.7873   11.2484  -16.7839 C   0  0  0  0  0  0  0  0  0  0  0  0
   34.5758   10.1487  -16.7324 C   0  0  0  0  0  0  0  0  0  0  0  0
   35.3966   11.2216  -17.3954 C   0  0  0  0  0  0  0  0  0  0  0  0
   37.2619   16.4853   -8.9007 C   0  0  0  0  0  0  0  0  0  0  0  0
   37.4689   17.8396   -8.2428 C   0  0  0  0  0  0  0  0  0  0  0  0
   37.5897   18.9861   -9.0318 C   0  0  0  0  0  0  0  0  0  0  0  0
   37.8231   20.2128   -8.4747 C   0  0  0  0  0  0  0  0  0  0  0  0
   37.9371   20.2882   -7.0984 C   0  0  0  0  0  0  0  0  0  0  0  0
   37.8153   19.1700   -6.3272 C   0  0  0  0  0  0  0  0  0  0  0  0
   37.5753   17.9144   -6.9100 C   0  0  0  0  0  0  0  0  0  0  0  0
   35.9781   16.0302   -8.3703 C   0  0  0  0  0  0  0  0  0  0  0  0
   35.8702   14.7972   -7.7328 C   0  0  0  0  0  0  0  0  0  0  0  0
   34.7051   14.3684   -7.1633 C   0  0  0  0  0  0  0  0  0  0  0  0
   33.5669   15.1690   -7.2009 C   0  0  0  0  0  0  0  0  0  0  0  0
   33.6508   16.3802   -7.8272 C   0  0  0  0  0  0  0  0  0  0  0  0
   34.8457   16.7894   -8.3999 C   0  0  0  0  0  0  0  0  0  0  0  0
 16 17  1  0  0  0
 17 15  1  0  0  0
 15  9  1  0  0  0
  9 10  2  0  0  0
 10 11  1  0  0  0
 11 12  2  0  0  0
 12  1  1  0  0  0
  1  2  1  0  0  0
  1  3  1  0  0  0
  3  4  1  0  0  0
  4  5  1  0  0  0
  5 18  1  0  0  0
 18 19  1  0  0  0
 19 20  2  0  0  0
 20 21  1  0  0  0
 21 22  2  0  0  0
 22 23  1  0  0  0
 23 24  2  0  0  0
 18 25  1  0  0  0
 25 26  2  0  0  0
 26 27  1  0  0  0
 27 28  2  0  0  0
 28 29  1  0  0  0
 29 30  2  0  0  0
  5  6  1  0  0  0
  6  7  1  0  0  0
 12 13  1  0  0  0
 13 14  2  0  0  0
 14  9  1  0  0  0
  7  1  1  0  0  0
 24 19  1  0  0  0
 30 25  1  0  0  0
  2  8  1  0  0  0
M  END
> <minimizedAffinity>
-7.65660

> <CNNscore>
0.2110203207

> <CNNaffinity>
5.4039597511

> <CNN_VS>
1.1403453350

> <CNNaffinity_variance>
0.4313513637

$$$$
[H]OC1(c2c([H])c([H])c(C([H])([H])C([H])([H])C([H])([H])[H])c([H])c2[H])C([H])([H])C([H])([H])N(C([H])(c2c([H])c([H])c([H])c([H])c2[H])c2c([H])c([H])c([H])c([H])c2[H])C([H])([H])C1([H])[H]


 30 33  0  0  0  0  0  0  0  0999 V2000
   36.8187   14.8465  -11.5289 C   0  0  0  0  0  0  0  0  0  0  0  0
   38.1778   14.7849  -11.1489 O   0  0  0  0  0  0  0  0  0  0  0  0
   36.4767   16.2699  -11.7499 C   0  0  0  0  0  0  0  0  0  0  0  0
   36.8675   17.0434  -10.5202 C   0  0  0  0  0  0  0  0  0  0  0  0
   36.8637   16.2823   -9.3267 N   0  0  0  0  0  0  0  0  0  0  0  0
   36.0667   15.1610   -9.1731 C   0  0  0  0  0  0  0  0  0  0  0  0
   36.0006   14.2882  -10.4045 C   0  0  0  0  0  0  0  0  0  0  0  0
   38.7397   14.6213  -11.9485 H   0  0  0  0  0  0  0  0  0  0  0  0
   36.3565   12.6508  -15.1821 C   0  0  0  0  0  0  0  0  0  0  0  0
   37.5155   12.5357  -14.4386 C   0  0  0  0  0  0  0  0  0  0  0  0
   37.6822   13.2238  -13.2383 C   0  0  0  0  0  0  0  0  0  0  0  0
   36.6827   14.0491  -12.7552 C   0  0  0  0  0  0  0  0  0  0  0  0
   35.5375   14.1421  -13.5138 C   0  0  0  0  0  0  0  0  0  0  0  0
   35.3570   13.4704  -14.6994 C   0  0  0  0  0  0  0  0  0  0  0  0
   36.2807   11.9909  -16.5020 C   0  0  0  0  0  0  0  0  0  0  0  0
   37.4111   10.5078  -18.1223 C   0  0  0  0  0  0  0  0  0  0  0  0
   37.5840   11.2910  -16.8491 C   0  0  0  0  0  0  0  0  0  0  0  0
   37.8764   16.6125   -8.4045 C   0  0  0  0  0  0  0  0  0  0  0  0
   37.4319   17.6080   -7.3456 C   0  0  0  0  0  0  0  0  0  0  0  0
   38.3780   18.2000   -6.5055 C   0  0  0  0  0  0  0  0  0  0  0  0
   38.0073   19.0636   -5.5123 C   0  0  0  0  0  0  0  0  0  0  0  0
   36.6600   19.3373   -5.3612 C   0  0  0  0  0  0  0  0  0  0  0  0
   35.7362   18.7628   -6.1837 C   0  0  0  0  0  0  0  0  0  0  0  0
   36.1280   17.8768   -7.2011 C   0  0  0  0  0  0  0  0  0  0  0  0
   38.4797   15.5266   -7.6340 C   0  0  0  0  0  0  0  0  0  0  0  0
   37.8125   14.9730   -6.5447 C   0  0  0  0  0  0  0  0  0  0  0  0
   38.3118   13.9122   -5.8439 C   0  0  0  0  0  0  0  0  0  0  0  0
   39.5269   13.3382   -6.2068 C   0  0  0  0  0  0  0  0  0  0  0  0
   40.2001   13.8709   -7.2694 C   0  0  0  0  0  0  0  0  0  0  0  0
   39.6715   14.9503   -7.9614 C   0  0  0  0  0  0  0  0  0  0  0  0
 16 17  1  0  0  0
 17 15  1  0  0  0
 15  9  1  0  0  0
  9 10  2  0  0  0
 10 11  1  0  0  0
 11 12  2  0  0  0
 12  1  1  0  0  0
  1  2  1  0  0  0
  1  3  1  0  0  0
  3  4  1  0  0  0
  4  5  1  0  0  0
  5 18  1  0  0  0
 18 19  1  0  0  0
 19 20  2  0  0  0
 20 21  1  0  0  0
 21 22  2  0  0  0
 22 23  1  0  0  0
 23 24  2  0  0  0
 18 25  1  0  0  0
 25 26  2  0  0  0
 26 27  1  0  0  0
 27 28  2  0  0  0
 28 29  1  0  0  0
 29 30  2  0  0  0
  5  6  1  0  0  0
  6  7  1  0  0  0
 12 13  1  0  0  0
 13 14  2  0  0  0
 14  9  1  0  0  0
  7  1  1  0  0  0
 24 19  1  0  0  0
 30 25  1  0  0  0
  2  8  1  0  0  0
M  END
> <minimizedAffinity>
-6.88276

> <CNNscore>
0.2001883984

> <CNNaffinity>
5.4106454849

> <CNN_VS>
1.0831484795

> <CNNaffinity_variance>
0.2677679956

$$$$
[H]OC1(c2c([H])c([H])c(C([H])([H])C([H])([H])C([H])([H])[H])c([H])c2[H])C([H])([H])C([H])([H])N(C([H])(c2c([H])c([H])c([H])c([H])c2[H])c2c([H])c([H])c([H])c([H])c2[H])C([H])([H])C1([H])[H]


 30 33  0  0  0  0  0  0  0  0999 V2000
   35.8837   14.6348  -11.6162 C   0  0  0  0  0  0  0  0  0  0  0  0
   36.1302   13.7986  -10.5047 O   0  0  0  0  0  0  0  0  0  0  0  0
   36.8014   15.7927  -11.5212 C   0  0  0  0  0  0  0  0  0  0  0  0
   36.6347   16.4141  -10.1613 C   0  0  0  0  0  0  0  0  0  0  0  0
   35.3585   16.2157   -9.5820 N   0  0  0  0  0  0  0  0  0  0  0  0
   34.2276   16.0028  -10.3512 C   0  0  0  0  0  0  0  0  0  0  0  0
   34.4605   15.0971  -11.5377 C   0  0  0  0  0  0  0  0  0  0  0  0
   36.7773   13.0919  -10.7571 H   0  0  0  0  0  0  0  0  0  0  0  0
   36.6331   12.4232  -15.2117 C   0  0  0  0  0  0  0  0  0  0  0  0
   37.1981   12.0254  -14.0151 C   0  0  0  0  0  0  0  0  0  0  0  0
   36.9544   12.7159  -12.8295 C   0  0  0  0  0  0  0  0  0  0  0  0
   36.1337   13.8293  -12.8190 C   0  0  0  0  0  0  0  0  0  0  0  0
   35.5811   14.2010  -14.0240 C   0  0  0  0  0  0  0  0  0  0  0  0
   35.8109   13.5312  -15.2022 C   0  0  0  0  0  0  0  0  0  0  0  0
   37.0178   11.7247  -16.4557 C   0  0  0  0  0  0  0  0  0  0  0  0
   34.9700   10.3672  -16.7127 C   0  0  0  0  0  0  0  0  0  0  0  0
   35.8095   11.4497  -17.3351 C   0  0  0  0  0  0  0  0  0  0  0  0
   35.3588   16.0317   -8.1851 C   0  0  0  0  0  0  0  0  0  0  0  0
   35.9337   17.2109   -7.4177 C   0  0  0  0  0  0  0  0  0  0  0  0
   36.6600   16.9912   -6.2450 C   0  0  0  0  0  0  0  0  0  0  0  0
   37.1508   18.0315   -5.5057 C   0  0  0  0  0  0  0  0  0  0  0  0
   36.9069   19.3169   -5.9542 C   0  0  0  0  0  0  0  0  0  0  0  0
   36.2012   19.5320   -7.1013 C   0  0  0  0  0  0  0  0  0  0  0  0
   35.7015   18.4558   -7.8534 C   0  0  0  0  0  0  0  0  0  0  0  0
   34.0776   15.7772   -7.5290 C   0  0  0  0  0  0  0  0  0  0  0  0
   33.1160   16.7796   -7.4359 C   0  0  0  0  0  0  0  0  0  0  0  0
   31.8819   16.5605   -6.8931 C   0  0  0  0  0  0  0  0  0  0  0  0
   31.5395   15.3010   -6.4090 C   0  0  0  0  0  0  0  0  0  0  0  0
   32.4716   14.3053   -6.4858 C   0  0  0  0  0  0  0  0  0  0  0  0
   33.7183   14.5563   -7.0390 C   0  0  0  0  0  0  0  0  0  0  0  0
 16 17  1  0  0  0
 17 15  1  0  0  0
 15  9  1  0  0  0
  9 10  2  0  0  0
 10 11  1  0  0  0
 11 12  2  0  0  0
 12  1  1  0  0  0
  1  2  1  0  0  0
  1  3  1  0  0  0
  3  4  1  0  0  0
  4  5  1  0  0  0
  5 18  1  0  0  0
 18 19  1  0  0  0
 19 20  2  0  0  0
 20 21  1  0  0  0
 21 22  2  0  0  0
 22 23  1  0  0  0
 23 24  2  0  0  0
 18 25  1  0  0  0
 25 26  2  0  0  0
 26 27  1  0  0  0
 27 28  2  0  0  0
 28 29  1  0  0  0
 29 30  2  0  0  0
  5  6  1  0  0  0
  6  7  1  0  0  0
 12 13  1  0  0  0
 13 14  2  0  0  0
 14  9  1  0  0  0
  7  1  1  0  0  0
 24 19  1  0  0  0
 30 25  1  0  0  0
  2  8  1  0  0  0
M  END
> <minimizedAffinity>
-7.10504

> <CNNscore>
0.1885956675

> <CNNaffinity>
5.3710579872

> <CNN_VS>
1.0129582882

> <CNNaffinity_variance>
0.5526612997

$$$$
[H]OC1(c2c([H])c([H])c(C([H])([H])C([H])([H])C([H])([H])[H])c([H])c2[H])C([H])([H])C([H])([H])N(C([H])(c2c([H])c([H])c([H])c([H])c2[H])c2c([H])c([H])c([H])c([H])c2[H])C([H])([H])C1([H])[H]


 30 33  0  0  0  0  0  0  0  0999 V2000
   36.7747   14.8643  -10.7793 C   0  0  0  0  0  0  0  0  0  0  0  0
   36.0339   14.0527   -9.8916 O   0  0  0  0  0  0  0  0  0  0  0  0
   38.1134   15.0777  -10.1841 C   0  0  0  0  0  0  0  0  0  0  0  0
   37.9280   15.6036   -8.7868 C   0  0  0  0  0  0  0  0  0  0  0  0
   36.7204   16.3144   -8.5867 N   0  0  0  0  0  0  0  0  0  0  0  0
   36.0652   16.9561   -9.6236 C   0  0  0  0  0  0  0  0  0  0  0  0
   36.0564   16.1724  -10.9152 C   0  0  0  0  0  0  0  0  0  0  0  0
   36.1191   13.1026  -10.1599 H   0  0  0  0  0  0  0  0  0  0  0  0
   37.1493   12.7518  -14.4911 C   0  0  0  0  0  0  0  0  0  0  0  0
   36.1538   12.4173  -13.5932 C   0  0  0  0  0  0  0  0  0  0  0  0
   35.9991   13.1013  -12.3890 C   0  0  0  0  0  0  0  0  0  0  0  0
   36.8470   14.1425  -12.0567 C   0  0  0  0  0  0  0  0  0  0  0  0
   37.8272   14.4571  -12.9711 C   0  0  0  0  0  0  0  0  0  0  0  0
   37.9933   13.7929  -14.1630 C   0  0  0  0  0  0  0  0  0  0  0  0
   37.3393   11.9191  -15.6968 C   0  0  0  0  0  0  0  0  0  0  0  0
   38.9477   11.0255  -17.3453 C   0  0  0  0  0  0  0  0  0  0  0  0
   38.8103   11.7853  -16.0537 C   0  0  0  0  0  0  0  0  0  0  0  0
   36.1261   16.1380   -7.3215 C   0  0  0  0  0  0  0  0  0  0  0  0
   36.5603   17.1736   -6.2973 C   0  0  0  0  0  0  0  0  0  0  0  0
   36.4728   16.8837   -4.9336 C   0  0  0  0  0  0  0  0  0  0  0  0
   36.8108   17.8092   -3.9855 C   0  0  0  0  0  0  0  0  0  0  0  0
   37.2453   19.0494   -4.4168 C   0  0  0  0  0  0  0  0  0  0  0  0
   37.3348   19.3318   -5.7481 C   0  0  0  0  0  0  0  0  0  0  0  0
   36.9850   18.3733   -6.7139 C   0  0  0  0  0  0  0  0  0  0  0  0
   34.6666   16.1576   -7.2431 C   0  0  0  0  0  0  0  0  0  0  0  0
   33.9411   14.9698   -7.2137 C   0  0  0  0  0  0  0  0  0  0  0  0
   32.5829   14.9463   -7.0707 C   0  0  0  0  0  0  0  0  0  0  0  0
   31.8678   16.1339   -6.9442 C   0  0  0  0  0  0  0  0  0  0  0  0
   32.5610   17.3106   -6.9767 C   0  0  0  0  0  0  0  0  0  0  0  0
   33.9397   17.3056   -7.1261 C   0  0  0  0  0  0  0  0  0  0  0  0
 16 17  1  0  0  0
 17 15  1  0  0  0
 15  9  1  0  0  0
  9 10  2  0  0  0
 10 11  1  0  0  0
 11 12  2  0  0  0
 12  1  1  0  0  0
  1  2  1  0  0  0
  1  3  1  0  0  0
  3  4  1  0  0  0
  4  5  1  0  0  0
  5 18  1  0  0  0
 18 19  1  0  0  0
 19 20  2  0  0  0
 20 21  1  0  0  0
 21 22  2  0  0  0
 22 23  1  0  0  0
 23 24  2  0  0  0
 18 25  1  0  0  0
 25 26  2  0  0  0
 26 27  1  0  0  0
 27 28  2  0  0  0
 28 29  1  0  0  0
 29 30  2  0  0  0
  5  6  1  0  0  0
  6  7  1  0  0  0
 12 13  1  0  0  0
 13 14  2  0  0  0
 14  9  1  0  0  0
  7  1  1  0  0  0
 24 19  1  0  0  0
 30 25  1  0  0  0
  2  8  1  0  0  0
M  END
> <minimizedAffinity>
-7.00625

> <CNNscore>
0.1877781153

> <CNNaffinity>
5.1598253250

> <CNN_VS>
0.9689022899

> <CNNaffinity_variance>
0.5450955033

$$$$
[H]OC1(c2c([H])c([H])c(C([H])([H])C([H])([H])C([H])([H])[H])c([H])c2[H])C([H])([H])C([H])([H])N(C([H])(c2c([H])c([H])c([H])c([H])c2[H])c2c([H])c([H])c([H])c([H])c2[H])C([H])([H])C1([H])[H]


 30 33  0  0  0  0  0  0  0  0999 V2000
   42.8108   14.4709  -12.6884 C   0  0  0  0  0  0  0  0  0  0  0  0
   41.7259   14.8275  -11.8571 O   0  0  0  0  0  0  0  0  0  0  0  0
   43.6075   13.4470  -11.9749 C   0  0  0  0  0  0  0  0  0  0  0  0
   43.9517   13.9846  -10.6126 C   0  0  0  0  0  0  0  0  0  0  0  0
   44.0138   15.3970  -10.5416 N   0  0  0  0  0  0  0  0  0  0  0  0
   44.3027   16.1761  -11.6487 C   0  0  0  0  0  0  0  0  0  0  0  0
   43.6375   15.6993  -12.9185 C   0  0  0  0  0  0  0  0  0  0  0  0
   40.9315   14.2855  -12.0960 H   0  0  0  0  0  0  0  0  0  0  0  0
   41.2376   12.8282  -16.3225 C   0  0  0  0  0  0  0  0  0  0  0  0
   40.3926   13.3950  -15.3876 C   0  0  0  0  0  0  0  0  0  0  0  0
   40.8811   13.9528  -14.2077 C   0  0  0  0  0  0  0  0  0  0  0  0
   42.2378   13.9528  -13.9379 C   0  0  0  0  0  0  0  0  0  0  0  0
   43.0569   13.3854  -14.8880 C   0  0  0  0  0  0  0  0  0  0  0  0
   42.5915   12.8312  -16.0567 C   0  0  0  0  0  0  0  0  0  0  0  0
   40.6560   12.1493  -17.4989 C   0  0  0  0  0  0  0  0  0  0  0  0
   38.7616   10.8336  -18.3839 C   0  0  0  0  0  0  0  0  0  0  0  0
   39.2631   11.6194  -17.2026 C   0  0  0  0  0  0  0  0  0  0  0  0
   43.5496   15.9553   -9.3342 C   0  0  0  0  0  0  0  0  0  0  0  0
   42.7949   14.9678   -8.4595 C   0  0  0  0  0  0  0  0  0  0  0  0
   43.4992   14.0322   -7.6980 C   0  0  0  0  0  0  0  0  0  0  0  0
   42.8503   13.0998   -6.9369 C   0  0  0  0  0  0  0  0  0  0  0  0
   41.4673   13.1084   -6.9415 C   0  0  0  0  0  0  0  0  0  0  0  0
   40.7790   14.0241   -7.6816 C   0  0  0  0  0  0  0  0  0  0  0  0
   41.4558   14.9780   -8.4600 C   0  0  0  0  0  0  0  0  0  0  0  0
   44.5357   16.5431   -8.4293 C   0  0  0  0  0  0  0  0  0  0  0  0
   44.1373   17.3884   -7.3974 C   0  0  0  0  0  0  0  0  0  0  0  0
   45.0205   17.9006   -6.4900 C   0  0  0  0  0  0  0  0  0  0  0  0
   46.3738   17.5840   -6.5690 C   0  0  0  0  0  0  0  0  0  0  0  0
   46.7857   16.7607   -7.5783 C   0  0  0  0  0  0  0  0  0  0  0  0
   45.8678   16.2572   -8.4879 C   0  0  0  0  0  0  0  0  0  0  0  0
 16 17  1  0  0  0
 17 15  1  0  0  0
 15  9  1  0  0  0
  9 10  2  0  0  0
 10 11  1  0  0  0
 11 12  2  0  0  0
 12  1  1  0  0  0
  1  2  1  0  0  0
  1  3  1  0  0  0
  3  4  1  0  0  0
  4  5  1  0  0  0
  5 18  1  0  0  0
 18 19  1  0  0  0
 19 20  2  0  0  0
 20 21  1  0  0  0
 21 22  2  0  0  0
 22 23  1  0  0  0
 23 24  2  0  0  0
 18 25  1  0  0  0
 25 26  2  0  0  0
 26 27  1  0  0  0
 27 28  2  0  0  0
 28 29  1  0  0  0
 29 30  2  0  0  0
  5  6  1  0  0  0
  6  7  1  0  0  0
 12 13  1  0  0  0
 13 14  2  0  0  0
 14  9  1  0  0  0
  7  1  1  0  0  0
 24 19  1  0  0  0
 30 25  1  0  0  0
  2  8  1  0  0  0
M  END
> <minimizedAffinity>
-6.42773

> <CNNscore>
0.1874563247

> <CNNaffinity>
4.9293389320

> <CNN_VS>
0.9240357876

> <CNNaffinity_variance>
0.2263816297

$$$$
[H]N=C(c1c([H])c([H])c([H])c(Oc2nc(Oc3c([H])c([H])c([H])c(N([H])C(=O)C([H])([H])[H])c3[H])c(F)c(C([H])([H])[H])c2F)c1[H])N([H])[H]


 34 36  0  0  0  0  0  0  0  0999 V2000
   40.1853   12.3677  -16.2926 C   0  0  0  0  0  0  0  0  0  0  0  0
   39.5434   12.3766  -15.0993 N   0  0  0  0  0  0  0  0  0  0  0  0
   38.3009   11.9290  -14.9032 C   0  0  0  0  0  0  0  0  0  0  0  0
   37.6083   11.4180  -15.9814 C   0  0  0  0  0  0  0  0  0  0  0  0
   36.3372   10.9551  -15.8020 F   0  0  0  0  0  0  0  0  0  0  0  0
   38.1903   11.3739  -17.2273 C   0  0  0  0  0  0  0  0  0  0  0  0
   37.4654   10.8288  -18.4021 C   0  0  0  0  0  0  0  0  0  0  0  0
   39.4749   11.8532  -17.3552 C   0  0  0  0  0  0  0  0  0  0  0  0
   40.0080   11.7880  -18.6121 F   0  0  0  0  0  0  0  0  0  0  0  0
   41.4556   12.8423  -16.4168 O   0  0  0  0  0  0  0  0  0  0  0  0
   42.4156   14.2965  -13.1868 C   0  0  0  0  0  0  0  0  0  0  0  0
   43.7791   14.2294  -13.3354 C   0  0  0  0  0  0  0  0  0  0  0  0
   44.4024   13.7236  -14.4587 C   0  0  0  0  0  0  0  0  0  0  0  0
   43.6538   13.2561  -15.4966 C   0  0  0  0  0  0  0  0  0  0  0  0
   42.2833   13.2958  -15.4084 C   0  0  0  0  0  0  0  0  0  0  0  0
   41.6924   13.8035  -14.2811 C   0  0  0  0  0  0  0  0  0  0  0  0
   40.3878   16.3705  -10.6352 C   0  0  0  0  0  0  0  0  0  0  0  0
   41.0485   16.0178  -11.9347 C   0  0  0  0  0  0  0  0  0  0  0  0
   40.9410   16.8526  -12.8402 O   0  0  0  0  0  0  0  0  0  0  0  0
   41.7285   14.8172  -12.0678 N   0  0  0  0  0  0  0  0  0  0  0  0
   41.7573   14.1664  -11.2045 H   0  0  0  0  0  0  0  0  0  0  0  0
   37.7299   11.9830  -13.6321 O   0  0  0  0  0  0  0  0  0  0  0  0
   37.0619   13.0998  -13.1686 C   0  0  0  0  0  0  0  0  0  0  0  0
   37.7062   14.1824  -12.5855 C   0  0  0  0  0  0  0  0  0  0  0  0
   36.9973   15.2706  -12.1403 C   0  0  0  0  0  0  0  0  0  0  0  0
   35.6051   15.3164  -12.2628 C   0  0  0  0  0  0  0  0  0  0  0  0
   34.9486   14.2660  -12.8318 C   0  0  0  0  0  0  0  0  0  0  0  0
   35.7002   13.1619  -13.2803 C   0  0  0  0  0  0  0  0  0  0  0  0
   33.5021   14.2547  -12.9879 C   0  0  0  0  0  0  0  0  0  0  0  0
   32.9483   13.8246  -14.0409 N   0  0  0  0  0  0  0  0  0  0  0  0
   32.6865   14.7371  -11.9347 N   0  0  0  0  0  0  0  0  0  0  0  0
   33.4651   13.4620  -14.8407 H   0  0  0  0  0  0  0  0  0  0  0  0
   32.0292   15.5098  -12.1301 H   0  0  0  0  0  0  0  0  0  0  0  0
   32.7572   14.3156  -10.9940 H   0  0  0  0  0  0  0  0  0  0  0  0
 17 18  1  0  0  0
 18 19  2  0  0  0
 18 20  1  0  0  0
 20 11  1  0  0  0
 11 12  2  0  0  0
 12 13  1  0  0  0
 13 14  2  0  0  0
 14 15  1  0  0  0
 15 10  1  0  0  0
 10  1  1  0  0  0
  1  2  2  0  0  0
  2  3  1  0  0  0
  3 22  1  0  0  0
 22 23  1  0  0  0
 23 24  2  0  0  0
 24 25  1  0  0  0
 25 26  2  0  0  0
 26 27  1  0  0  0
 27 29  1  0  0  0
 29 30  2  0  0  0
 29 31  1  0  0  0
 27 28  2  0  0  0
  3  4  2  0  0  0
  4  5  1  0  0  0
  4  6  1  0  0  0
  6  7  1  0  0  0
  6  8  2  0  0  0
  8  9  1  0  0  0
 15 16  2  0  0  0
 16 11  1  0  0  0
  8  1  1  0  0  0
 28 23  1  0  0  0
 20 21  1  0  0  0
 30 32  1  0  0  0
 31 33  1  0  0  0
 31 34  1  0  0  0
M  END
> <minimizedAffinity>
-9.50832

> <CNNscore>
0.7696204185

> <CNNaffinity>
7.3493185043

> <CNN_VS>
5.6561856270

> <CNNaffinity_variance>
0.3550317883

$$$$
[H]N=C(c1c([H])c([H])c([H])c(Oc2nc(Oc3c([H])c([H])c([H])c(N([H])C(=O)C([H])([H])[H])c3[H])c(F)c(C([H])([H])[H])c2F)c1[H])N([H])[H]


 34 36  0  0  0  0  0  0  0  0999 V2000
   40.2045   12.2896  -16.1899 C   0  0  0  0  0  0  0  0  0  0  0  0
   39.0822   12.1351  -15.4466 N   0  0  0  0  0  0  0  0  0  0  0  0
   37.9445   11.5980  -15.8936 C   0  0  0  0  0  0  0  0  0  0  0  0
   37.8918   11.1645  -17.2022 C   0  0  0  0  0  0  0  0  0  0  0  0
   36.7383   10.6123  -17.6786 F   0  0  0  0  0  0  0  0  0  0  0  0
   38.9897   11.2861  -18.0225 C   0  0  0  0  0  0  0  0  0  0  0  0
   38.9571   10.8270  -19.4335 C   0  0  0  0  0  0  0  0  0  0  0  0
   40.1292   11.8499  -17.4935 C   0  0  0  0  0  0  0  0  0  0  0  0
   41.1915   11.9489  -18.3480 F   0  0  0  0  0  0  0  0  0  0  0  0
   41.3303   12.8476  -15.6647 O   0  0  0  0  0  0  0  0  0  0  0  0
   42.7926   14.5740  -12.7752 C   0  0  0  0  0  0  0  0  0  0  0  0
   41.7303   15.3892  -12.4714 C   0  0  0  0  0  0  0  0  0  0  0  0
   40.5449   15.3971  -13.1793 C   0  0  0  0  0  0  0  0  0  0  0  0
   40.3862   14.5627  -14.2446 C   0  0  0  0  0  0  0  0  0  0  0  0
   41.4136   13.7223  -14.5993 C   0  0  0  0  0  0  0  0  0  0  0  0
   42.5786   13.7363  -13.8779 C   0  0  0  0  0  0  0  0  0  0  0  0
   45.7614   13.8124  -10.4232 C   0  0  0  0  0  0  0  0  0  0  0  0
   44.3904   13.6972  -11.0207 C   0  0  0  0  0  0  0  0  0  0  0  0
   43.6495   12.8468  -10.5144 O   0  0  0  0  0  0  0  0  0  0  0  0
   44.0188   14.5154  -12.0761 N   0  0  0  0  0  0  0  0  0  0  0  0
   44.7524   15.2247  -12.4346 H   0  0  0  0  0  0  0  0  0  0  0  0
   36.8434   11.4842  -15.0454 O   0  0  0  0  0  0  0  0  0  0  0  0
   36.5705   12.4128  -14.0598 C   0  0  0  0  0  0  0  0  0  0  0  0
   37.5440   12.9380  -13.2209 C   0  0  0  0  0  0  0  0  0  0  0  0
   37.2225   13.8598  -12.2556 C   0  0  0  0  0  0  0  0  0  0  0  0
   35.9034   14.2941  -12.0921 C   0  0  0  0  0  0  0  0  0  0  0  0
   34.9288   13.7935  -12.9032 C   0  0  0  0  0  0  0  0  0  0  0  0
   35.2860   12.8489  -13.8855 C   0  0  0  0  0  0  0  0  0  0  0  0
   33.5388   14.2063  -12.7827 C   0  0  0  0  0  0  0  0  0  0  0  0
   33.1410   14.9396  -11.8317 N   0  0  0  0  0  0  0  0  0  0  0  0
   32.6009   13.7784  -13.7545 N   0  0  0  0  0  0  0  0  0  0  0  0
   33.7532   15.2876  -11.0953 H   0  0  0  0  0  0  0  0  0  0  0  0
   31.7708   13.2481  -13.4433 H   0  0  0  0  0  0  0  0  0  0  0  0
   32.7558   13.9989  -14.7520 H   0  0  0  0  0  0  0  0  0  0  0  0
 17 18  1  0  0  0
 18 19  2  0  0  0
 18 20  1  0  0  0
 20 11  1  0  0  0
 11 12  2  0  0  0
 12 13  1  0  0  0
 13 14  2  0  0  0
 14 15  1  0  0  0
 15 10  1  0  0  0
 10  1  1  0  0  0
  1  2  2  0  0  0
  2  3  1  0  0  0
  3 22  1  0  0  0
 22 23  1  0  0  0
 23 24  2  0  0  0
 24 25  1  0  0  0
 25 26  2  0  0  0
 26 27  1  0  0  0
 27 29  1  0  0  0
 29 30  2  0  0  0
 29 31  1  0  0  0
 27 28  2  0  0  0
  3  4  2  0  0  0
  4  5  1  0  0  0
  4  6  1  0  0  0
  6  7  1  0  0  0
  6  8  2  0  0  0
  8  9  1  0  0  0
 15 16  2  0  0  0
 16 11  1  0  0  0
  8  1  1  0  0  0
 28 23  1  0  0  0
 20 21  1  0  0  0
 30 32  1  0  0  0
 31 33  1  0  0  0
 31 34  1  0  0  0
M  END
> <minimizedAffinity>
-8.68255

> <CNNscore>
0.6427139044

> <CNNaffinity>
7.2412681580

> <CNN_VS>
4.6540637016

> <CNNaffinity_variance>
0.1358679533

$$$$
[H]N=C(c1c([H])c([H])c([H])c(Oc2nc(Oc3c([H])c([H])c([H])c(N([H])C(=O)C([H])([H])[H])c3[H])c(F)c(C([H])([H])[H])c2F)c1[H])N([H])[H]


 34 36  0  0  0  0  0  0  0  0999 V2000
   40.1435   13.0445  -16.1218 C   0  0  0  0  0  0  0  0  0  0  0  0
   39.1655   12.6755  -15.2596 N   0  0  0  0  0  0  0  0  0  0  0  0
   38.1923   11.8066  -15.5434 C   0  0  0  0  0  0  0  0  0  0  0  0
   38.1668   11.2350  -16.7988 C   0  0  0  0  0  0  0  0  0  0  0  0
   37.1805   10.3443  -17.1088 F   0  0  0  0  0  0  0  0  0  0  0  0
   39.1249   11.5575  -17.7321 C   0  0  0  0  0  0  0  0  0  0  0  0
   39.1183   10.9558  -19.0887 C   0  0  0  0  0  0  0  0  0  0  0  0
   40.0983   12.4614  -17.3694 C   0  0  0  0  0  0  0  0  0  0  0  0
   41.0261   12.7490  -18.3312 F   0  0  0  0  0  0  0  0  0  0  0  0
   41.1051   13.9386  -15.7611 O   0  0  0  0  0  0  0  0  0  0  0  0
   43.4508   13.5368  -12.9673 C   0  0  0  0  0  0  0  0  0  0  0  0
   44.5636   13.1841  -13.6905 C   0  0  0  0  0  0  0  0  0  0  0  0
   44.5778   13.0715  -15.0665 C   0  0  0  0  0  0  0  0  0  0  0  0
   43.4423   13.3165  -15.7783 C   0  0  0  0  0  0  0  0  0  0  0  0
   42.2950   13.6736  -15.1121 C   0  0  0  0  0  0  0  0  0  0  0  0
   42.3108   13.7776  -13.7458 C   0  0  0  0  0  0  0  0  0  0  0  0
   43.7592   13.2472   -9.1273 C   0  0  0  0  0  0  0  0  0  0  0  0
   43.9690   12.9064  -10.5728 C   0  0  0  0  0  0  0  0  0  0  0  0
   44.6761   11.9175  -10.7982 O   0  0  0  0  0  0  0  0  0  0  0  0
   43.3860   13.6809  -11.5635 N   0  0  0  0  0  0  0  0  0  0  0  0
   42.7852   14.5219  -11.2450 H   0  0  0  0  0  0  0  0  0  0  0  0
   37.2311   11.4937  -14.5827 O   0  0  0  0  0  0  0  0  0  0  0  0
   35.9793   12.0778  -14.5719 C   0  0  0  0  0  0  0  0  0  0  0  0
   34.9941   11.7794  -15.5035 C   0  0  0  0  0  0  0  0  0  0  0  0
   33.7642   12.3872  -15.4504 C   0  0  0  0  0  0  0  0  0  0  0  0
   33.4716   13.3244  -14.4547 C   0  0  0  0  0  0  0  0  0  0  0  0
   34.4220   13.6349  -13.5281 C   0  0  0  0  0  0  0  0  0  0  0  0
   35.6756   12.9967  -13.6055 C   0  0  0  0  0  0  0  0  0  0  0  0
   34.1778   14.6011  -12.4680 C   0  0  0  0  0  0  0  0  0  0  0  0
   33.1887   15.3892  -12.4987 N   0  0  0  0  0  0  0  0  0  0  0  0
   35.0689   14.6651  -11.3684 N   0  0  0  0  0  0  0  0  0  0  0  0
   32.5045   15.4043  -13.2537 H   0  0  0  0  0  0  0  0  0  0  0  0
   35.5372   15.5622  -11.1608 H   0  0  0  0  0  0  0  0  0  0  0  0
   35.2385   13.8238  -10.7931 H   0  0  0  0  0  0  0  0  0  0  0  0
 17 18  1  0  0  0
 18 19  2  0  0  0
 18 20  1  0  0  0
 20 11  1  0  0  0
 11 12  2  0  0  0
 12 13  1  0  0  0
 13 14  2  0  0  0
 14 15  1  0  0  0
 15 10  1  0  0  0
 10  1  1  0  0  0
  1  2  2  0  0  0
  2  3  1  0  0  0
  3 22  1  0  0  0
 22 23  1  0  0  0
 23 24  2  0  0  0
 24 25  1  0  0  0
 25 26  2  0  0  0
 26 27  1  0  0  0
 27 29  1  0  0  0
 29 30  2  0  0  0
 29 31  1  0  0  0
 27 28  2  0  0  0
  3  4  2  0  0  0
  4  5  1  0  0  0
  4  6  1  0  0  0
  6  7  1  0  0  0
  6  8  2  0  0  0
  8  9  1  0  0  0
 15 16  2  0  0  0
 16 11  1  0  0  0
  8  1  1  0  0  0
 28 23  1  0  0  0
 20 21  1  0  0  0
 30 32  1  0  0  0
 31 33  1  0  0  0
 31 34  1  0  0  0
M  END
> <minimizedAffinity>
-8.43163

> <CNNscore>
0.6095747352

> <CNNaffinity>
7.1640443802

> <CNN_VS>
4.3670206070

> <CNNaffinity_variance>
0.1012940034

$$$$
[H]N=C(c1c([H])c([H])c([H])c(Oc2nc(Oc3c([H])c([H])c([H])c(N([H])C(=O)C([H])([H])[H])c3[H])c(F)c(C([H])([H])[H])c2F)c1[H])N([H])[H]


 34 36  0  0  0  0  0  0  0  0999 V2000
   37.8842   11.8939  -15.4527 C   0  0  0  0  0  0  0  0  0  0  0  0
   38.8758   12.7979  -15.2637 N   0  0  0  0  0  0  0  0  0  0  0  0
   39.8200   13.0869  -16.1624 C   0  0  0  0  0  0  0  0  0  0  0  0
   39.7983   12.4275  -17.3739 C   0  0  0  0  0  0  0  0  0  0  0  0
   40.7544   12.7086  -18.3063 F   0  0  0  0  0  0  0  0  0  0  0  0
   38.8236   11.4945  -17.6434 C   0  0  0  0  0  0  0  0  0  0  0  0
   38.7797   10.7724  -18.9393 C   0  0  0  0  0  0  0  0  0  0  0  0
   37.8821   11.2474  -16.6695 C   0  0  0  0  0  0  0  0  0  0  0  0
   36.9362   10.3125  -16.9850 F   0  0  0  0  0  0  0  0  0  0  0  0
   36.9542   11.6511  -14.4881 O   0  0  0  0  0  0  0  0  0  0  0  0
   34.8433   13.9993  -12.6175 C   0  0  0  0  0  0  0  0  0  0  0  0
   33.7432   13.9763  -13.4389 C   0  0  0  0  0  0  0  0  0  0  0  0
   33.6632   13.2173  -14.5895 C   0  0  0  0  0  0  0  0  0  0  0  0
   34.7160   12.4363  -14.9608 C   0  0  0  0  0  0  0  0  0  0  0  0
   35.8464   12.4162  -14.1803 C   0  0  0  0  0  0  0  0  0  0  0  0
   35.8972   13.1799  -13.0436 C   0  0  0  0  0  0  0  0  0  0  0  0
   35.6936   16.5223   -9.8182 C   0  0  0  0  0  0  0  0  0  0  0  0
   35.7012   15.8972  -11.1816 C   0  0  0  0  0  0  0  0  0  0  0  0
   36.3849   16.4720  -12.0364 O   0  0  0  0  0  0  0  0  0  0  0  0
   34.9710   14.7441  -11.4240 N   0  0  0  0  0  0  0  0  0  0  0  0
   34.4115   14.3295  -10.5965 H   0  0  0  0  0  0  0  0  0  0  0  0
   40.7987   14.0359  -15.8688 O   0  0  0  0  0  0  0  0  0  0  0  0
   41.9812   13.7066  -15.2352 C   0  0  0  0  0  0  0  0  0  0  0  0
   42.1246   13.6935  -13.8544 C   0  0  0  0  0  0  0  0  0  0  0  0
   43.3216   13.3586  -13.2715 C   0  0  0  0  0  0  0  0  0  0  0  0
   44.4296   13.0217  -14.0552 C   0  0  0  0  0  0  0  0  0  0  0  0
   44.3148   13.0271  -15.4135 C   0  0  0  0  0  0  0  0  0  0  0  0
   43.0751   13.3745  -15.9858 C   0  0  0  0  0  0  0  0  0  0  0  0
   45.4307   12.6855  -16.2824 C   0  0  0  0  0  0  0  0  0  0  0  0
   45.2805   11.9565  -17.3054 N   0  0  0  0  0  0  0  0  0  0  0  0
   46.7231   13.1805  -15.9796 N   0  0  0  0  0  0  0  0  0  0  0  0
   44.3845   11.5632  -17.5894 H   0  0  0  0  0  0  0  0  0  0  0  0
   47.4937   12.5060  -15.8440 H   0  0  0  0  0  0  0  0  0  0  0  0
   46.8788   14.1988  -15.8986 H   0  0  0  0  0  0  0  0  0  0  0  0
 17 18  1  0  0  0
 18 19  2  0  0  0
 18 20  1  0  0  0
 20 11  1  0  0  0
 11 12  2  0  0  0
 12 13  1  0  0  0
 13 14  2  0  0  0
 14 15  1  0  0  0
 15 10  1  0  0  0
 10  1  1  0  0  0
  1  2  2  0  0  0
  2  3  1  0  0  0
  3 22  1  0  0  0
 22 23  1  0  0  0
 23 24  2  0  0  0
 24 25  1  0  0  0
 25 26  2  0  0  0
 26 27  1  0  0  0
 27 29  1  0  0  0
 29 30  2  0  0  0
 29 31  1  0  0  0
 27 28  2  0  0  0
  3  4  2  0  0  0
  4  5  1  0  0  0
  4  6  1  0  0  0
  6  7  1  0  0  0
  6  8  2  0  0  0
  8  9  1  0  0  0
 15 16  2  0  0  0
 16 11  1  0  0  0
  8  1  1  0  0  0
 28 23  1  0  0  0
 20 21  1  0  0  0
 30 32  1  0  0  0
 31 33  1  0  0  0
 31 34  1  0  0  0
M  END
> <minimizedAffinity>
-9.11458

> <CNNscore>
0.4464228451

> <CNNaffinity>
7.0012159348

> <CNN_VS>
3.1255028248

> <CNNaffinity_variance>
0.1365605891

$$$$
[H]N=C(c1c([H])c([H])c([H])c(Oc2nc(Oc3c([H])c([H])c([H])c(N([H])C(=O)C([H])([H])[H])c3[H])c(F)c(C([H])([H])[H])c2F)c1[H])N([H])[H]


 34 36  0  0  0  0  0  0  0  0999 V2000
   40.2598   12.8039  -16.2755 C   0  0  0  0  0  0  0  0  0  0  0  0
   39.5522   12.6183  -15.1349 N   0  0  0  0  0  0  0  0  0  0  0  0
   38.4215   11.9133  -15.0501 C   0  0  0  0  0  0  0  0  0  0  0  0
   37.9257   11.3257  -16.1956 C   0  0  0  0  0  0  0  0  0  0  0  0
   36.7715   10.6006  -16.1303 F   0  0  0  0  0  0  0  0  0  0  0  0
   38.5859   11.4671  -17.3945 C   0  0  0  0  0  0  0  0  0  0  0  0
   38.0721   10.8444  -18.6398 C   0  0  0  0  0  0  0  0  0  0  0  0
   39.7463   12.2084  -17.4069 C   0  0  0  0  0  0  0  0  0  0  0  0
   40.3639   12.3197  -18.6212 F   0  0  0  0  0  0  0  0  0  0  0  0
   41.4071   13.5374  -16.2854 O   0  0  0  0  0  0  0  0  0  0  0  0
   44.7267   13.2716  -14.7434 C   0  0  0  0  0  0  0  0  0  0  0  0
   45.2453   12.2920  -15.5540 C   0  0  0  0  0  0  0  0  0  0  0  0
   44.5472   11.7101  -16.5934 C   0  0  0  0  0  0  0  0  0  0  0  0
   43.2704   12.1055  -16.8575 C   0  0  0  0  0  0  0  0  0  0  0  0
   42.6949   13.0822  -16.0813 C   0  0  0  0  0  0  0  0  0  0  0  0
   43.4120   13.6419  -15.0565 C   0  0  0  0  0  0  0  0  0  0  0  0
   46.5689   15.6777  -12.3471 C   0  0  0  0  0  0  0  0  0  0  0  0
   45.8686   15.2115  -13.5889 C   0  0  0  0  0  0  0  0  0  0  0  0
   45.7475   16.0504  -14.4889 O   0  0  0  0  0  0  0  0  0  0  0  0
   45.4015   13.9095  -13.6787 N   0  0  0  0  0  0  0  0  0  0  0  0
   45.5673   13.2642  -12.8268 H   0  0  0  0  0  0  0  0  0  0  0  0
   37.7683   11.7825  -13.8250 O   0  0  0  0  0  0  0  0  0  0  0  0
   36.8521   12.7122  -13.3728 C   0  0  0  0  0  0  0  0  0  0  0  0
   35.4789   12.5408  -13.4835 C   0  0  0  0  0  0  0  0  0  0  0  0
   34.6081   13.4947  -13.0179 C   0  0  0  0  0  0  0  0  0  0  0  0
   35.0828   14.6658  -12.4193 C   0  0  0  0  0  0  0  0  0  0  0  0
   36.4270   14.8581  -12.2987 C   0  0  0  0  0  0  0  0  0  0  0  0
   37.2985   13.8635  -12.7848 C   0  0  0  0  0  0  0  0  0  0  0  0
   36.9822   16.0549  -11.6852 C   0  0  0  0  0  0  0  0  0  0  0  0
   36.2565   17.0441  -11.3766 N   0  0  0  0  0  0  0  0  0  0  0  0
   38.3730   16.1194  -11.4234 N   0  0  0  0  0  0  0  0  0  0  0  0
   35.2499   17.0739  -11.5326 H   0  0  0  0  0  0  0  0  0  0  0  0
   38.9208   16.8907  -11.8384 H   0  0  0  0  0  0  0  0  0  0  0  0
   38.8188   15.4027  -10.8273 H   0  0  0  0  0  0  0  0  0  0  0  0
 17 18  1  0  0  0
 18 19  2  0  0  0
 18 20  1  0  0  0
 20 11  1  0  0  0
 11 12  2  0  0  0
 12 13  1  0  0  0
 13 14  2  0  0  0
 14 15  1  0  0  0
 15 10  1  0  0  0
 10  1  1  0  0  0
  1  2  2  0  0  0
  2  3  1  0  0  0
  3 22  1  0  0  0
 22 23  1  0  0  0
 23 24  2  0  0  0
 24 25  1  0  0  0
 25 26  2  0  0  0
 26 27  1  0  0  0
 27 29  1  0  0  0
 29 30  2  0  0  0
 29 31  1  0  0  0
 27 28  2  0  0  0
  3  4  2  0  0  0
  4  5  1  0  0  0
  4  6  1  0  0  0
  6  7  1  0  0  0
  6  8  2  0  0  0
  8  9  1  0  0  0
 15 16  2  0  0  0
 16 11  1  0  0  0
  8  1  1  0  0  0
 28 23  1  0  0  0
 20 21  1  0  0  0
 30 32  1  0  0  0
 31 33  1  0  0  0
 31 34  1  0  0  0
M  END
> <minimizedAffinity>
-8.55187

> <CNNscore>
0.3134838343

> <CNNaffinity>
6.6273765564

> <CNN_VS>
2.0775754452

> <CNNaffinity_variance>
0.1743563116

$$$$
[H]N=C(c1c([H])c([H])c([H])c(Oc2nc(Oc3c([H])c([H])c([H])c(N([H])C(=O)C([H])([H])[H])c3[H])c(F)c(C([H])([H])[H])c2F)c1[H])N([H])[H]


 34 36  0  0  0  0  0  0  0  0999 V2000
   35.9656   12.2753  -14.1014 C   0  0  0  0  0  0  0  0  0  0  0  0
   37.1706   12.3064  -14.7203 N   0  0  0  0  0  0  0  0  0  0  0  0
   37.3807   11.9491  -15.9895 C   0  0  0  0  0  0  0  0  0  0  0  0
   36.3053   11.5158  -16.7371 C   0  0  0  0  0  0  0  0  0  0  0  0
   36.4988   11.1463  -18.0365 F   0  0  0  0  0  0  0  0  0  0  0  0
   35.0481   11.4552  -16.1815 C   0  0  0  0  0  0  0  0  0  0  0  0
   33.8761   10.9925  -16.9657 C   0  0  0  0  0  0  0  0  0  0  0  0
   34.9061   11.8392  -14.8668 C   0  0  0  0  0  0  0  0  0  0  0  0
   33.6386   11.7605  -14.3613 F   0  0  0  0  0  0  0  0  0  0  0  0
   35.8276   12.6555  -12.8010 O   0  0  0  0  0  0  0  0  0  0  0  0
   37.8478   15.2864  -11.2308 C   0  0  0  0  0  0  0  0  0  0  0  0
   36.8789   16.2553  -11.1418 C   0  0  0  0  0  0  0  0  0  0  0  0
   35.5806   16.0815  -11.5783 C   0  0  0  0  0  0  0  0  0  0  0  0
   35.2053   14.8953  -12.1335 C   0  0  0  0  0  0  0  0  0  0  0  0
   36.1296   13.8856  -12.2508 C   0  0  0  0  0  0  0  0  0  0  0  0
   37.4110   14.0868  -11.8087 C   0  0  0  0  0  0  0  0  0  0  0  0
   41.5902   16.0875  -10.7040 C   0  0  0  0  0  0  0  0  0  0  0  0
   40.2389   16.1029  -11.3549 C   0  0  0  0  0  0  0  0  0  0  0  0
   40.1483   16.7610  -12.3976 O   0  0  0  0  0  0  0  0  0  0  0  0
   39.1835   15.4067  -10.7869 N   0  0  0  0  0  0  0  0  0  0  0  0
   39.3833   14.8640   -9.8730 H   0  0  0  0  0  0  0  0  0  0  0  0
   38.6631   12.0182  -16.5330 O   0  0  0  0  0  0  0  0  0  0  0  0
   39.7183   12.6086  -15.8651 C   0  0  0  0  0  0  0  0  0  0  0  0
   39.5735   13.2766  -14.6567 C   0  0  0  0  0  0  0  0  0  0  0  0
   40.6541   13.8473  -14.0310 C   0  0  0  0  0  0  0  0  0  0  0  0
   41.9309   13.7705  -14.5960 C   0  0  0  0  0  0  0  0  0  0  0  0
   42.0996   13.1202  -15.7821 C   0  0  0  0  0  0  0  0  0  0  0  0
   40.9740   12.5435  -16.4029 C   0  0  0  0  0  0  0  0  0  0  0  0
   43.4024   13.0060  -16.4197 C   0  0  0  0  0  0  0  0  0  0  0  0
   44.2771   13.9141  -16.3168 N   0  0  0  0  0  0  0  0  0  0  0  0
   43.7053   11.8479  -17.1775 N   0  0  0  0  0  0  0  0  0  0  0  0
   44.1354   14.7749  -15.7902 H   0  0  0  0  0  0  0  0  0  0  0  0
   43.9769   11.9599  -18.1679 H   0  0  0  0  0  0  0  0  0  0  0  0
   43.6518   10.9151  -16.7364 H   0  0  0  0  0  0  0  0  0  0  0  0
 17 18  1  0  0  0
 18 19  2  0  0  0
 18 20  1  0  0  0
 20 11  1  0  0  0
 11 12  2  0  0  0
 12 13  1  0  0  0
 13 14  2  0  0  0
 14 15  1  0  0  0
 15 10  1  0  0  0
 10  1  1  0  0  0
  1  2  2  0  0  0
  2  3  1  0  0  0
  3 22  1  0  0  0
 22 23  1  0  0  0
 23 24  2  0  0  0
 24 25  1  0  0  0
 25 26  2  0  0  0
 26 27  1  0  0  0
 27 29  1  0  0  0
 29 30  2  0  0  0
 29 31  1  0  0  0
 27 28  2  0  0  0
  3  4  2  0  0  0
  4  5  1  0  0  0
  4  6  1  0  0  0
  6  7  1  0  0  0
  6  8  2  0  0  0
  8  9  1  0  0  0
 15 16  2  0  0  0
 16 11  1  0  0  0
  8  1  1  0  0  0
 28 23  1  0  0  0
 20 21  1  0  0  0
 30 32  1  0  0  0
 31 33  1  0  0  0
 31 34  1  0  0  0
M  END
> <minimizedAffinity>
-9.89073

> <CNNscore>
0.3065519929

> <CNNaffinity>
6.6895093918

> <CNN_VS>
2.0506825447

> <CNNaffinity_variance>
0.2171028554

$$$$
[H]N=C(c1c([H])c([H])c([H])c(Oc2nc(Oc3c([H])c([H])c([H])c(N([H])C(=O)C([H])([H])[H])c3[H])c(F)c(C([H])([H])[H])c2F)c1[H])N([H])[H]


 34 36  0  0  0  0  0  0  0  0999 V2000
   39.9585   14.2698  -14.6253 C   0  0  0  0  0  0  0  0  0  0  0  0
   38.9187   13.6051  -14.0657 N   0  0  0  0  0  0  0  0  0  0  0  0
   38.3834   12.4842  -14.5553 C   0  0  0  0  0  0  0  0  0  0  0  0
   38.9152   11.9523  -15.7118 C   0  0  0  0  0  0  0  0  0  0  0  0
   38.3827   10.8070  -16.2285 F   0  0  0  0  0  0  0  0  0  0  0  0
   39.9726   12.5678  -16.3412 C   0  0  0  0  0  0  0  0  0  0  0  0
   40.5615   12.0146  -17.5861 C   0  0  0  0  0  0  0  0  0  0  0  0
   40.4735   13.7209  -15.7794 C   0  0  0  0  0  0  0  0  0  0  0  0
   41.5225   14.2943  -16.4421 F   0  0  0  0  0  0  0  0  0  0  0  0
   40.4522   15.4100  -14.0679 O   0  0  0  0  0  0  0  0  0  0  0  0
   39.7706   16.1755  -10.5440 C   0  0  0  0  0  0  0  0  0  0  0  0
   41.0614   16.1326  -10.0774 C   0  0  0  0  0  0  0  0  0  0  0  0
   42.1548   15.8613  -10.8756 C   0  0  0  0  0  0  0  0  0  0  0  0
   41.9800   15.6174  -12.2045 C   0  0  0  0  0  0  0  0  0  0  0  0
   40.7118   15.6456  -12.7322 C   0  0  0  0  0  0  0  0  0  0  0  0
   39.6455   15.9179  -11.9158 C   0  0  0  0  0  0  0  0  0  0  0  0
   36.6783   17.7119   -8.8114 C   0  0  0  0  0  0  0  0  0  0  0  0
   37.8746   17.6292   -9.7124 C   0  0  0  0  0  0  0  0  0  0  0  0
   38.1299   18.6463  -10.3672 O   0  0  0  0  0  0  0  0  0  0  0  0
   38.6206   16.4626   -9.7755 N   0  0  0  0  0  0  0  0  0  0  0  0
   38.3019   15.6371   -9.1537 H   0  0  0  0  0  0  0  0  0  0  0  0
   37.3120   11.8765  -13.9015 O   0  0  0  0  0  0  0  0  0  0  0  0
   36.0055   12.2856  -14.0855 C   0  0  0  0  0  0  0  0  0  0  0  0
   35.1906   11.7923  -15.0955 C   0  0  0  0  0  0  0  0  0  0  0  0
   33.8973   12.2307  -15.2372 C   0  0  0  0  0  0  0  0  0  0  0  0
   33.3665   13.1873  -14.3663 C   0  0  0  0  0  0  0  0  0  0  0  0
   34.1463   13.6875  -13.3662 C   0  0  0  0  0  0  0  0  0  0  0  0
   35.4698   13.2205  -13.2432 C   0  0  0  0  0  0  0  0  0  0  0  0
   33.6515   14.6838  -12.4284 C   0  0  0  0  0  0  0  0  0  0  0  0
   34.4170   15.5427  -11.9024 N   0  0  0  0  0  0  0  0  0  0  0  0
   32.2754   14.6973  -12.0919 N   0  0  0  0  0  0  0  0  0  0  0  0
   35.4164   15.5979  -12.0935 H   0  0  0  0  0  0  0  0  0  0  0  0
   32.0065   14.6050  -11.0987 H   0  0  0  0  0  0  0  0  0  0  0  0
   31.5644   14.7981  -12.8348 H   0  0  0  0  0  0  0  0  0  0  0  0
 17 18  1  0  0  0
 18 19  2  0  0  0
 18 20  1  0  0  0
 20 11  1  0  0  0
 11 12  2  0  0  0
 12 13  1  0  0  0
 13 14  2  0  0  0
 14 15  1  0  0  0
 15 10  1  0  0  0
 10  1  1  0  0  0
  1  2  2  0  0  0
  2  3  1  0  0  0
  3 22  1  0  0  0
 22 23  1  0  0  0
 23 24  2  0  0  0
 24 25  1  0  0  0
 25 26  2  0  0  0
 26 27  1  0  0  0
 27 29  1  0  0  0
 29 30  2  0  0  0
 29 31  1  0  0  0
 27 28  2  0  0  0
  3  4  2  0  0  0
  4  5  1  0  0  0
  4  6  1  0  0  0
  6  7  1  0  0  0
  6  8  2  0  0  0
  8  9  1  0  0  0
 15 16  2  0  0  0
 16 11  1  0  0  0
  8  1  1  0  0  0
 28 23  1  0  0  0
 20 21  1  0  0  0
 30 32  1  0  0  0
 31 33  1  0  0  0
 31 34  1  0  0  0
M  END
> <minimizedAffinity>
-9.07295

> <CNNscore>
0.2643578947

> <CNNaffinity>
6.4559693336

> <CNN_VS>
1.7066864967

> <CNNaffinity_variance>
0.3084613681

$$$$
[H]N=C(c1c([H])c([H])c([H])c(Oc2nc(Oc3c([H])c([H])c([H])c(N([H])C(=O)C([H])([H])[H])c3[H])c(F)c(C([H])([H])[H])c2F)c1[H])N([H])[H]


 34 36  0  0  0  0  0  0  0  0999 V2000
   39.9461   14.2600  -14.5947 C   0  0  0  0  0  0  0  0  0  0  0  0
   38.9011   13.6148  -14.0223 N   0  0  0  0  0  0  0  0  0  0  0  0
   38.3416   12.5018  -14.5029 C   0  0  0  0  0  0  0  0  0  0  0  0
   38.8521   11.9576  -15.6633 C   0  0  0  0  0  0  0  0  0  0  0  0
   38.2946   10.8202  -16.1709 F   0  0  0  0  0  0  0  0  0  0  0  0
   39.9131   12.5532  -16.3056 C   0  0  0  0  0  0  0  0  0  0  0  0
   40.4795   11.9864  -17.5548 C   0  0  0  0  0  0  0  0  0  0  0  0
   40.4396   13.6990  -15.7524 C   0  0  0  0  0  0  0  0  0  0  0  0
   41.4912   14.2525  -16.4278 F   0  0  0  0  0  0  0  0  0  0  0  0
   40.4651   15.3931  -14.0460 O   0  0  0  0  0  0  0  0  0  0  0  0
   43.1023   15.1325  -11.5072 C   0  0  0  0  0  0  0  0  0  0  0  0
   42.4271   15.7070  -10.4586 C   0  0  0  0  0  0  0  0  0  0  0  0
   41.1332   16.1801  -10.5491 C   0  0  0  0  0  0  0  0  0  0  0  0
   40.4590   16.0882  -11.7294 C   0  0  0  0  0  0  0  0  0  0  0  0
   41.0806   15.5231  -12.8166 C   0  0  0  0  0  0  0  0  0  0  0  0
   42.3655   15.0620  -12.6970 C   0  0  0  0  0  0  0  0  0  0  0  0
   46.3149   13.0078  -11.2072 C   0  0  0  0  0  0  0  0  0  0  0  0
   44.8497   13.3284  -11.2041 C   0  0  0  0  0  0  0  0  0  0  0  0
   44.0900   12.3841  -10.9600 O   0  0  0  0  0  0  0  0  0  0  0  0
   44.4179   14.6196  -11.4644 N   0  0  0  0  0  0  0  0  0  0  0  0
   45.1764   15.3646  -11.6627 H   0  0  0  0  0  0  0  0  0  0  0  0
   37.2669   11.9144  -13.8361 O   0  0  0  0  0  0  0  0  0  0  0  0
   35.9671   12.3530  -13.9987 C   0  0  0  0  0  0  0  0  0  0  0  0
   35.1201   11.8682  -14.9861 C   0  0  0  0  0  0  0  0  0  0  0  0
   33.8351   12.3362  -15.1070 C   0  0  0  0  0  0  0  0  0  0  0  0
   33.3454   13.3154  -14.2370 C   0  0  0  0  0  0  0  0  0  0  0  0
   34.1572   13.8078  -13.2589 C   0  0  0  0  0  0  0  0  0  0  0  0
   35.4714   13.3102  -13.1570 C   0  0  0  0  0  0  0  0  0  0  0  0
   33.7058   14.8265  -12.3233 C   0  0  0  0  0  0  0  0  0  0  0  0
   32.6267   15.4628  -12.4997 N   0  0  0  0  0  0  0  0  0  0  0  0
   34.4921   15.1176  -11.1814 N   0  0  0  0  0  0  0  0  0  0  0  0
   32.0075   15.3111  -13.2946 H   0  0  0  0  0  0  0  0  0  0  0  0
   34.8203   16.0867  -11.0387 H   0  0  0  0  0  0  0  0  0  0  0  0
   34.7259   14.3662  -10.5117 H   0  0  0  0  0  0  0  0  0  0  0  0
 17 18  1  0  0  0
 18 19  2  0  0  0
 18 20  1  0  0  0
 20 11  1  0  0  0
 11 12  2  0  0  0
 12 13  1  0  0  0
 13 14  2  0  0  0
 14 15  1  0  0  0
 15 10  1  0  0  0
 10  1  1  0  0  0
  1  2  2  0  0  0
  2  3  1  0  0  0
  3 22  1  0  0  0
 22 23  1  0  0  0
 23 24  2  0  0  0
 24 25  1  0  0  0
 25 26  2  0  0  0
 26 27  1  0  0  0
 27 29  1  0  0  0
 29 30  2  0  0  0
 29 31  1  0  0  0
 27 28  2  0  0  0
  3  4  2  0  0  0
  4  5  1  0  0  0
  4  6  1  0  0  0
  6  7  1  0  0  0
  6  8  2  0  0  0
  8  9  1  0  0  0
 15 16  2  0  0  0
 16 11  1  0  0  0
  8  1  1  0  0  0
 28 23  1  0  0  0
 20 21  1  0  0  0
 30 32  1  0  0  0
 31 33  1  0  0  0
 31 34  1  0  0  0
M  END
> <minimizedAffinity>
-8.42345

> <CNNscore>
0.2549152076

> <CNNaffinity>
6.3866167068

> <CNN_VS>
1.6280456781

> <CNNaffinity_variance>
0.2769587338

$$$$
[H]N=C(c1c([H])c([H])c([H])c(Oc2nc(Oc3c([H])c([H])c([H])c(N([H])C(=O)C([H])([H])[H])c3[H])c(F)c(C([H])([H])[H])c2F)c1[H])N([H])[H]


 34 36  0  0  0  0  0  0  0  0999 V2000
   37.5438   13.5651  -12.8704 C   0  0  0  0  0  0  0  0  0  0  0  0
   38.5956   13.7669  -13.7005 N   0  0  0  0  0  0  0  0  0  0  0  0
   39.5386   14.6943  -13.5182 C   0  0  0  0  0  0  0  0  0  0  0  0
   39.4505   15.5126  -12.4110 C   0  0  0  0  0  0  0  0  0  0  0  0
   40.4045   16.4667  -12.2061 F   0  0  0  0  0  0  0  0  0  0  0  0
   38.4121   15.3713  -11.5194 C   0  0  0  0  0  0  0  0  0  0  0  0
   38.2961   16.2396  -10.3214 C   0  0  0  0  0  0  0  0  0  0  0  0
   37.4759   14.3935  -11.7715 C   0  0  0  0  0  0  0  0  0  0  0  0
   36.4645   14.2936  -10.8575 F   0  0  0  0  0  0  0  0  0  0  0  0
   36.6190   12.5976  -13.1217 O   0  0  0  0  0  0  0  0  0  0  0  0
   36.8657   11.4150  -16.5871 C   0  0  0  0  0  0  0  0  0  0  0  0
   35.5265   11.2362  -16.8325 C   0  0  0  0  0  0  0  0  0  0  0  0
   34.5378   11.4890  -15.9026 C   0  0  0  0  0  0  0  0  0  0  0  0
   34.8737   11.9417  -14.6623 C   0  0  0  0  0  0  0  0  0  0  0  0
   36.1980   12.1406  -14.3550 C   0  0  0  0  0  0  0  0  0  0  0  0
   37.1576   11.8813  -15.2983 C   0  0  0  0  0  0  0  0  0  0  0  0
   40.2085   11.1423  -18.5043 C   0  0  0  0  0  0  0  0  0  0  0  0
   39.2652   11.4733  -17.3861 C   0  0  0  0  0  0  0  0  0  0  0  0
   39.7718   12.0017  -16.3898 O   0  0  0  0  0  0  0  0  0  0  0  0
   37.9144   11.1866  -17.5057 N   0  0  0  0  0  0  0  0  0  0  0  0
   37.5860   10.7247  -18.4268 H   0  0  0  0  0  0  0  0  0  0  0  0
   40.5826   14.8206  -14.4341 O   0  0  0  0  0  0  0  0  0  0  0  0
   41.8163   14.2321  -14.2346 C   0  0  0  0  0  0  0  0  0  0  0  0
   42.4001   14.0983  -12.9822 C   0  0  0  0  0  0  0  0  0  0  0  0
   43.6295   13.5049  -12.8354 C   0  0  0  0  0  0  0  0  0  0  0  0
   44.3267   13.0192  -13.9460 C   0  0  0  0  0  0  0  0  0  0  0  0
   43.7750   13.1385  -15.1869 C   0  0  0  0  0  0  0  0  0  0  0  0
   42.5124   13.7514  -15.3093 C   0  0  0  0  0  0  0  0  0  0  0  0
   44.4506   12.6526  -16.3803 C   0  0  0  0  0  0  0  0  0  0  0  0
   45.7062   12.7300  -16.5141 N   0  0  0  0  0  0  0  0  0  0  0  0
   43.6862   12.0754  -17.4243 N   0  0  0  0  0  0  0  0  0  0  0  0
   46.3235   13.1308  -15.8094 H   0  0  0  0  0  0  0  0  0  0  0  0
   43.7491   12.4854  -18.3704 H   0  0  0  0  0  0  0  0  0  0  0  0
   43.0814   11.2605  -17.2300 H   0  0  0  0  0  0  0  0  0  0  0  0
 17 18  1  0  0  0
 18 19  2  0  0  0
 18 20  1  0  0  0
 20 11  1  0  0  0
 11 12  2  0  0  0
 12 13  1  0  0  0
 13 14  2  0  0  0
 14 15  1  0  0  0
 15 10  1  0  0  0
 10  1  1  0  0  0
  1  2  2  0  0  0
  2  3  1  0  0  0
  3 22  1  0  0  0
 22 23  1  0  0  0
 23 24  2  0  0  0
 24 25  1  0  0  0
 25 26  2  0  0  0
 26 27  1  0  0  0
 27 29  1  0  0  0
 29 30  2  0  0  0
 29 31  1  0  0  0
 27 28  2  0  0  0
  3  4  2  0  0  0
  4  5  1  0  0  0
  4  6  1  0  0  0
  6  7  1  0  0  0
  6  8  2  0  0  0
  8  9  1  0  0  0
 15 16  2  0  0  0
 16 11  1  0  0  0
  8  1  1  0  0  0
 28 23  1  0  0  0
 20 21  1  0  0  0
 30 32  1  0  0  0
 31 33  1  0  0  0
 31 34  1  0  0  0
M  END
> <minimizedAffinity>
-8.93548

> <CNNscore>
0.2129725367

> <CNNaffinity>
6.5213537216

> <CNN_VS>
1.3888692856

> <CNNaffinity_variance>
0.2819704413

$$$$
[H]c1c([H])c(C(N=[N+]=[N-])(C([H])([H])[H])C([H])([H])[H])c(Cl)c([H])c1C(F)(F)F


 17 17  0  0  0  0  0  0  0  0999 V2000
   39.3310   12.6252  -15.6927 C   0  0  0  0  0  0  0  0  0  0  0  0
   38.3207   11.7248  -16.0928 C   0  0  0  0  0  0  0  0  0  0  0  0
   37.1838   11.7718  -15.3361 C   0  0  0  0  0  0  0  0  0  0  0  0
   36.9347   12.5496  -14.2644 C   0  0  0  0  0  0  0  0  0  0  0  0
   37.9602   13.4450  -13.8701 C   0  0  0  0  0  0  0  0  0  0  0  0
   39.1503   13.4603  -14.6088 C   0  0  0  0  0  0  0  0  0  0  0  0
   40.4441   14.5619  -14.0968 Cl  0  0  0  0  0  0  0  0  0  0  0  0
   35.6620   12.5705  -13.4968 C   0  0  0  0  0  0  0  0  0  0  0  0
   35.1565   13.8594  -13.3405 F   0  0  0  0  0  0  0  0  0  0  0  0
   35.7766   11.9272  -12.3095 F   0  0  0  0  0  0  0  0  0  0  0  0
   34.6450   11.9259  -14.2154 F   0  0  0  0  0  0  0  0  0  0  0  0
   40.5182   14.1194  -17.2614 C   0  0  0  0  0  0  0  0  0  0  0  0
   40.5714   12.7495  -16.5058 C   0  0  0  0  0  0  0  0  0  0  0  0
   41.8255   12.7769  -15.7054 C   0  0  0  0  0  0  0  0  0  0  0  0
   40.6446   11.7225  -17.5183 N   0  0  0  0  0  0  0  0  0  0  0  0
   40.1330   11.9034  -18.5986 N   0  0  0  0  0  0  0  0  0  0  0  0
   39.8952   11.4558  -19.7671 N   0  0  0  0  0  0  0  0  0  0  0  0
 12 13  1  0  0  0
 13 14  1  0  0  0
 13 15  1  0  0  0
 15 16  2  0  0  0
 16 17  2  0  0  0
 13  1  1  0  0  0
  1  2  2  0  0  0
  2  3  1  0  0  0
  3  4  2  0  0  0
  4  8  1  0  0  0
  8  9  1  0  0  0
  8 10  1  0  0  0
  8 11  1  0  0  0
  4  5  1  0  0  0
  5  6  2  0  0  0
  6  7  1  0  0  0
  6  1  1  0  0  0
M  CHG 1  16   1
M  CHG 1  17  -1
M  END
> <minimizedAffinity>
-6.90234

> <CNNscore>
0.7295536995

> <CNNaffinity>
5.9239959717

> <CNN_VS>
4.3218731880

> <CNNaffinity_variance>
0.1673690975

$$$$
[H]c1c([H])c(C(N=[N+]=[N-])(C([H])([H])[H])C([H])([H])[H])c(Cl)c([H])c1C(F)(F)F


 17 17  0  0  0  0  0  0  0  0999 V2000
   39.3088   13.1918  -15.2910 C   0  0  0  0  0  0  0  0  0  0  0  0
   39.5414   14.0655  -14.2075 C   0  0  0  0  0  0  0  0  0  0  0  0
   38.5199   14.1346  -13.3024 C   0  0  0  0  0  0  0  0  0  0  0  0
   37.3363   13.4917  -13.3397 C   0  0  0  0  0  0  0  0  0  0  0  0
   37.1138   12.6220  -14.4365 C   0  0  0  0  0  0  0  0  0  0  0  0
   38.1242   12.4917  -15.3979 C   0  0  0  0  0  0  0  0  0  0  0  0
   37.8328   11.4238  -16.7852 Cl  0  0  0  0  0  0  0  0  0  0  0  0
   36.2729   13.5914  -12.3059 C   0  0  0  0  0  0  0  0  0  0  0  0
   36.7590   14.0581  -11.0864 F   0  0  0  0  0  0  0  0  0  0  0  0
   35.5938   12.4271  -12.1648 F   0  0  0  0  0  0  0  0  0  0  0  0
   35.3354   14.5721  -12.6596 F   0  0  0  0  0  0  0  0  0  0  0  0
   40.4229   14.1538  -17.2750 C   0  0  0  0  0  0  0  0  0  0  0  0
   40.3906   12.9436  -16.2827 C   0  0  0  0  0  0  0  0  0  0  0  0
   41.7542   12.8677  -15.6919 C   0  0  0  0  0  0  0  0  0  0  0  0
   40.1209   11.7672  -17.0754 N   0  0  0  0  0  0  0  0  0  0  0  0
   40.3363   11.7794  -18.2649 N   0  0  0  0  0  0  0  0  0  0  0  0
   40.3273   11.1435  -19.3685 N   0  0  0  0  0  0  0  0  0  0  0  0
 12 13  1  0  0  0
 13 14  1  0  0  0
 13 15  1  0  0  0
 15 16  2  0  0  0
 16 17  2  0  0  0
 13  1  1  0  0  0
  1  2  2  0  0  0
  2  3  1  0  0  0
  3  4  2  0  0  0
  4  8  1  0  0  0
  8  9  1  0  0  0
  8 10  1  0  0  0
  8 11  1  0  0  0
  4  5  1  0  0  0
  5  6  2  0  0  0
  6  7  1  0  0  0
  6  1  1  0  0  0
M  CHG 1  16   1
M  CHG 1  17  -1
M  END
> <minimizedAffinity>
-6.34166

> <CNNscore>
0.7061509490

> <CNNaffinity>
5.6914191246

> <CNN_VS>
4.0190010071

> <CNNaffinity_variance>
0.1869234294

$$$$
[H]c1c([H])c(C(N=[N+]=[N-])(C([H])([H])[H])C([H])([H])[H])c(Cl)c([H])c1C(F)(F)F


 17 17  0  0  0  0  0  0  0  0999 V2000
   38.9094   12.4411  -16.2631 C   0  0  0  0  0  0  0  0  0  0  0  0
   37.9053   12.7294  -15.3144 C   0  0  0  0  0  0  0  0  0  0  0  0
   36.7136   12.0988  -15.5370 C   0  0  0  0  0  0  0  0  0  0  0  0
   36.3933   11.2681  -16.5484 C   0  0  0  0  0  0  0  0  0  0  0  0
   37.4094   10.9919  -17.4972 C   0  0  0  0  0  0  0  0  0  0  0  0
   38.6621   11.5946  -17.3248 C   0  0  0  0  0  0  0  0  0  0  0  0
   39.9247   11.2700  -18.5290 Cl  0  0  0  0  0  0  0  0  0  0  0  0
   35.0808   10.5919  -16.7203 C   0  0  0  0  0  0  0  0  0  0  0  0
   35.2064    9.2093  -16.8381 F   0  0  0  0  0  0  0  0  0  0  0  0
   34.3689   11.1218  -17.7446 F   0  0  0  0  0  0  0  0  0  0  0  0
   34.3010   10.7330  -15.5636 F   0  0  0  0  0  0  0  0  0  0  0  0
   40.5010   14.1377  -17.0943 C   0  0  0  0  0  0  0  0  0  0  0  0
   40.2841   12.9768  -16.0669 C   0  0  0  0  0  0  0  0  0  0  0  0
   40.5203   13.5742  -14.7248 C   0  0  0  0  0  0  0  0  0  0  0  0
   41.2865   11.9782  -16.3552 N   0  0  0  0  0  0  0  0  0  0  0  0
   42.4398   12.3076  -16.5059 N   0  0  0  0  0  0  0  0  0  0  0  0
   43.6417   11.9517  -16.7325 N   0  0  0  0  0  0  0  0  0  0  0  0
 12 13  1  0  0  0
 13 14  1  0  0  0
 13 15  1  0  0  0
 15 16  2  0  0  0
 16 17  2  0  0  0
 13  1  1  0  0  0
  1  2  2  0  0  0
  2  3  1  0  0  0
  3  4  2  0  0  0
  4  8  1  0  0  0
  8  9  1  0  0  0
  8 10  1  0  0  0
  8 11  1  0  0  0
  4  5  1  0  0  0
  5  6  2  0  0  0
  6  7  1  0  0  0
  6  1  1  0  0  0
M  CHG 1  16   1
M  CHG 1  17  -1
M  END
> <minimizedAffinity>
-6.49063

> <CNNscore>
0.6461898685

> <CNNaffinity>
5.8438510895

> <CNN_VS>
3.7762372494

> <CNNaffinity_variance>
0.1928423643

$$$$
[H]c1c([H])c(C(N=[N+]=[N-])(C([H])([H])[H])C([H])([H])[H])c(Cl)c([H])c1C(F)(F)F


 17 17  0  0  0  0  0  0  0  0999 V2000
   37.2867   12.6565  -14.8399 C   0  0  0  0  0  0  0  0  0  0  0  0
   38.6566   12.9901  -14.8960 C   0  0  0  0  0  0  0  0  0  0  0  0
   39.3081   12.5365  -16.0083 C   0  0  0  0  0  0  0  0  0  0  0  0
   38.8038   11.8068  -17.0227 C   0  0  0  0  0  0  0  0  0  0  0  0
   37.4280   11.4739  -16.9505 C   0  0  0  0  0  0  0  0  0  0  0  0
   36.6935   11.9171  -15.8431 C   0  0  0  0  0  0  0  0  0  0  0  0
   34.9776   11.4757  -15.7404 Cl  0  0  0  0  0  0  0  0  0  0  0  0
   39.5630   11.3645  -18.2215 C   0  0  0  0  0  0  0  0  0  0  0  0
   40.2769   12.4049  -18.8125 F   0  0  0  0  0  0  0  0  0  0  0  0
   38.7695   10.7266  -19.1161 F   0  0  0  0  0  0  0  0  0  0  0  0
   40.5748   10.4647  -17.8571 F   0  0  0  0  0  0  0  0  0  0  0  0
   35.2472   13.9707  -14.3752 C   0  0  0  0  0  0  0  0  0  0  0  0
   36.4432   13.1893  -13.7354 C   0  0  0  0  0  0  0  0  0  0  0  0
   35.8290   12.1410  -12.8765 C   0  0  0  0  0  0  0  0  0  0  0  0
   37.1704   14.1387  -12.9261 N   0  0  0  0  0  0  0  0  0  0  0  0
   36.6373   15.1657  -12.5762 N   0  0  0  0  0  0  0  0  0  0  0  0
   36.7232   16.2574  -11.9255 N   0  0  0  0  0  0  0  0  0  0  0  0
 12 13  1  0  0  0
 13 14  1  0  0  0
 13 15  1  0  0  0
 15 16  2  0  0  0
 16 17  2  0  0  0
 13  1  1  0  0  0
  1  2  2  0  0  0
  2  3  1  0  0  0
  3  4  2  0  0  0
  4  8  1  0  0  0
  8  9  1  0  0  0
  8 10  1  0  0  0
  8 11  1  0  0  0
  4  5  1  0  0  0
  5  6  2  0  0  0
  6  7  1  0  0  0
  6  1  1  0  0  0
M  CHG 1  16   1
M  CHG 1  17  -1
M  END
> <minimizedAffinity>
-7.11647

> <CNNscore>
0.5307257175

> <CNNaffinity>
5.5177960396

> <CNN_VS>
2.9284362793

> <CNNaffinity_variance>
0.2887864709

$$$$
[H]c1c([H])c(C(N=[N+]=[N-])(C([H])([H])[H])C([H])([H])[H])c(Cl)c([H])c1C(F)(F)F


 17 17  0  0  0  0  0  0  0  0999 V2000
   38.4386   12.1564  -16.3854 C   0  0  0  0  0  0  0  0  0  0  0  0
   38.2126   12.8551  -15.1804 C   0  0  0  0  0  0  0  0  0  0  0  0
   36.9326   12.7768  -14.7082 C   0  0  0  0  0  0  0  0  0  0  0  0
   35.8837   12.1382  -15.2629 C   0  0  0  0  0  0  0  0  0  0  0  0
   36.1236   11.4455  -16.4759 C   0  0  0  0  0  0  0  0  0  0  0  0
   37.4173   11.4720  -17.0125 C   0  0  0  0  0  0  0  0  0  0  0  0
   37.7095   10.6276  -18.5459 Cl  0  0  0  0  0  0  0  0  0  0  0  0
   34.5167   12.0699  -14.6832 C   0  0  0  0  0  0  0  0  0  0  0  0
   33.7581   13.2015  -14.9755 F   0  0  0  0  0  0  0  0  0  0  0  0
   34.5434   11.8116  -13.3531 F   0  0  0  0  0  0  0  0  0  0  0  0
   33.7792   11.0407  -15.2855 F   0  0  0  0  0  0  0  0  0  0  0  0
   40.1228   10.5670  -17.2457 C   0  0  0  0  0  0  0  0  0  0  0  0
   39.8171   12.0715  -16.9404 C   0  0  0  0  0  0  0  0  0  0  0  0
   40.0012   12.7919  -18.2293 C   0  0  0  0  0  0  0  0  0  0  0  0
   40.8019   12.5055  -15.9777 N   0  0  0  0  0  0  0  0  0  0  0  0
   41.9441   12.6931  -16.3265 N   0  0  0  0  0  0  0  0  0  0  0  0
   43.1242   13.0500  -16.0062 N   0  0  0  0  0  0  0  0  0  0  0  0
 12 13  1  0  0  0
 13 14  1  0  0  0
 13 15  1  0  0  0
 15 16  2  0  0  0
 16 17  2  0  0  0
 13  1  1  0  0  0
  1  2  2  0  0  0
  2  3  1  0  0  0
  3  4  2  0  0  0
  4  8  1  0  0  0
  8  9  1  0  0  0
  8 10  1  0  0  0
  8 11  1  0  0  0
  4  5  1  0  0  0
  5  6  2  0  0  0
  6  7  1  0  0  0
  6  1  1  0  0  0
M  CHG 1  16   1
M  CHG 1  17  -1
M  END
> <minimizedAffinity>
-6.36918

> <CNNscore>
0.5301457644

> <CNNaffinity>
5.8713469505

> <CNN_VS>
3.1126697063

> <CNNaffinity_variance>
0.2492153347

$$$$
[H]c1c([H])c(C(N=[N+]=[N-])(C([H])([H])[H])C([H])([H])[H])c(Cl)c([H])c1C(F)(F)F


 17 17  0  0  0  0  0  0  0  0999 V2000
   39.2584   12.5667  -15.9148 C   0  0  0  0  0  0  0  0  0  0  0  0
   38.2151   11.7369  -16.3776 C   0  0  0  0  0  0  0  0  0  0  0  0
   37.0932   11.7437  -15.5974 C   0  0  0  0  0  0  0  0  0  0  0  0
   36.8858   12.4232  -14.4525 C   0  0  0  0  0  0  0  0  0  0  0  0
   37.9441   13.2482  -13.9961 C   0  0  0  0  0  0  0  0  0  0  0  0
   39.1212   13.3001  -14.7536 C   0  0  0  0  0  0  0  0  0  0  0  0
   40.4559   14.3117  -14.1661 Cl  0  0  0  0  0  0  0  0  0  0  0  0
   35.6276   12.4069  -13.6612 C   0  0  0  0  0  0  0  0  0  0  0  0
   35.0951   13.6821  -13.4828 F   0  0  0  0  0  0  0  0  0  0  0  0
   35.7796   11.7555  -12.4825 F   0  0  0  0  0  0  0  0  0  0  0  0
   34.6127   11.7452  -14.3669 F   0  0  0  0  0  0  0  0  0  0  0  0
   40.4495   11.6671  -17.8832 C   0  0  0  0  0  0  0  0  0  0  0  0
   40.4878   12.7327  -16.7371 C   0  0  0  0  0  0  0  0  0  0  0  0
   40.5949   14.0530  -17.4149 C   0  0  0  0  0  0  0  0  0  0  0  0
   41.6792   12.4663  -15.9659 N   0  0  0  0  0  0  0  0  0  0  0  0
   42.7547   12.4165  -16.5157 N   0  0  0  0  0  0  0  0  0  0  0  0
   44.0141   12.2591  -16.4080 N   0  0  0  0  0  0  0  0  0  0  0  0
 12 13  1  0  0  0
 13 14  1  0  0  0
 13 15  1  0  0  0
 15 16  2  0  0  0
 16 17  2  0  0  0
 13  1  1  0  0  0
  1  2  2  0  0  0
  2  3  1  0  0  0
  3  4  2  0  0  0
  4  8  1  0  0  0
  8  9  1  0  0  0
  8 10  1  0  0  0
  8 11  1  0  0  0
  4  5  1  0  0  0
  5  6  2  0  0  0
  6  7  1  0  0  0
  6  1  1  0  0  0
M  CHG 1  16   1
M  CHG 1  17  -1
M  END
> <minimizedAffinity>
-6.71013

> <CNNscore>
0.5235622525

> <CNNaffinity>
5.6296844482

> <CNN_VS>
2.9474902153

> <CNNaffinity_variance>
0.1671001464

$$$$
[H]c1c([H])c(C(N=[N+]=[N-])(C([H])([H])[H])C([H])([H])[H])c(Cl)c([H])c1C(F)(F)F


 17 17  0  0  0  0  0  0  0  0999 V2000
   38.0192   12.2985  -16.0238 C   0  0  0  0  0  0  0  0  0  0  0  0
   37.9478   13.2111  -14.9499 C   0  0  0  0  0  0  0  0  0  0  0  0
   36.6994   13.3655  -14.4159 C   0  0  0  0  0  0  0  0  0  0  0  0
   35.5539   12.7722  -14.8049 C   0  0  0  0  0  0  0  0  0  0  0  0
   35.6392   11.8624  -15.8885 C   0  0  0  0  0  0  0  0  0  0  0  0
   36.8914   11.6449  -16.4774 C   0  0  0  0  0  0  0  0  0  0  0  0
   36.9917   10.5268  -17.8521 Cl  0  0  0  0  0  0  0  0  0  0  0  0
   34.2270   12.9648  -14.1632 C   0  0  0  0  0  0  0  0  0  0  0  0
   33.5477   14.0714  -14.6683 F   0  0  0  0  0  0  0  0  0  0  0  0
   34.3197   13.0048  -12.8117 F   0  0  0  0  0  0  0  0  0  0  0  0
   33.3684   11.9036  -14.4836 F   0  0  0  0  0  0  0  0  0  0  0  0
   40.4495   12.6454  -15.7477 C   0  0  0  0  0  0  0  0  0  0  0  0
   39.3421   11.9588  -16.6153 C   0  0  0  0  0  0  0  0  0  0  0  0
   39.6610   10.5054  -16.6028 C   0  0  0  0  0  0  0  0  0  0  0  0
   39.4759   12.4905  -17.9511 N   0  0  0  0  0  0  0  0  0  0  0  0
   39.5925   11.7385  -18.8904 N   0  0  0  0  0  0  0  0  0  0  0  0
   39.7157   11.5988  -20.1505 N   0  0  0  0  0  0  0  0  0  0  0  0
 12 13  1  0  0  0
 13 14  1  0  0  0
 13 15  1  0  0  0
 15 16  2  0  0  0
 16 17  2  0  0  0
 13  1  1  0  0  0
  1  2  2  0  0  0
  2  3  1  0  0  0
  3  4  2  0  0  0
  4  8  1  0  0  0
  8  9  1  0  0  0
  8 10  1  0  0  0
  8 11  1  0  0  0
  4  5  1  0  0  0
  5  6  2  0  0  0
  6  7  1  0  0  0
  6  1  1  0  0  0
M  CHG 1  16   1
M  CHG 1  17  -1
M  END
> <minimizedAffinity>
-5.62974

> <CNNscore>
0.4950715303

> <CNNaffinity>
5.6508588791

> <CNN_VS>
2.7975792885

> <CNNaffinity_variance>
0.2651661336

$$$$
[H]c1c([H])c(C(N=[N+]=[N-])(C([H])([H])[H])C([H])([H])[H])c(Cl)c([H])c1C(F)(F)F


 17 17  0  0  0  0  0  0  0  0999 V2000
   36.4320   12.8037  -14.7274 C   0  0  0  0  0  0  0  0  0  0  0  0
   37.7774   12.8649  -15.1486 C   0  0  0  0  0  0  0  0  0  0  0  0
   38.0641   12.1090  -16.2503 C   0  0  0  0  0  0  0  0  0  0  0  0
   37.2291   11.3157  -16.9497 C   0  0  0  0  0  0  0  0  0  0  0  0
   35.8822   11.2591  -16.5120 C   0  0  0  0  0  0  0  0  0  0  0  0
   35.5133   12.0193  -15.3947 C   0  0  0  0  0  0  0  0  0  0  0  0
   33.8330   11.9255  -14.8311 Cl  0  0  0  0  0  0  0  0  0  0  0  0
   37.5992   10.5355  -18.1595 C   0  0  0  0  0  0  0  0  0  0  0  0
   37.0366   11.0583  -19.3220 F   0  0  0  0  0  0  0  0  0  0  0  0
   37.3226    9.2167  -18.0153 F   0  0  0  0  0  0  0  0  0  0  0  0
   38.9750   10.6404  -18.4090 F   0  0  0  0  0  0  0  0  0  0  0  0
   36.0354   12.8305  -12.2892 C   0  0  0  0  0  0  0  0  0  0  0  0
   35.9700   13.6701  -13.6087 C   0  0  0  0  0  0  0  0  0  0  0  0
   36.8230   14.8658  -13.3707 C   0  0  0  0  0  0  0  0  0  0  0  0
   34.5911   14.0632  -13.7797 N   0  0  0  0  0  0  0  0  0  0  0  0
   33.9565   14.4639  -12.8320 N   0  0  0  0  0  0  0  0  0  0  0  0
   32.8527   14.9196  -12.3888 N   0  0  0  0  0  0  0  0  0  0  0  0
 12 13  1  0  0  0
 13 14  1  0  0  0
 13 15  1  0  0  0
 15 16  2  0  0  0
 16 17  2  0  0  0
 13  1  1  0  0  0
  1  2  2  0  0  0
  2  3  1  0  0  0
  3  4  2  0  0  0
  4  8  1  0  0  0
  8  9  1  0  0  0
  8 10  1  0  0  0
  8 11  1  0  0  0
  4  5  1  0  0  0
  5  6  2  0  0  0
  6  7  1  0  0  0
  6  1  1  0  0  0
M  CHG 1  16   1
M  CHG 1  17  -1
M  END
> <minimizedAffinity>
-6.71552

> <CNNscore>
0.4689129889

> <CNNaffinity>
5.4879865646

> <CNN_VS>
2.5733880997

> <CNNaffinity_variance>
0.3494766355

$$$$
[H]c1c([H])c(C(N=[N+]=[N-])(C([H])([H])[H])C([H])([H])[H])c(Cl)c([H])c1C(F)(F)F


 17 17  0  0  0  0  0  0  0  0999 V2000
   38.9493   11.9968  -16.7789 C   0  0  0  0  0  0  0  0  0  0  0  0
   38.5163   11.0269  -17.7079 C   0  0  0  0  0  0  0  0  0  0  0  0
   37.2059   10.6609  -17.5800 C   0  0  0  0  0  0  0  0  0  0  0  0
   36.3092   11.0985  -16.6745 C   0  0  0  0  0  0  0  0  0  0  0  0
   36.7592   12.0682  -15.7438 C   0  0  0  0  0  0  0  0  0  0  0  0
   38.0894   12.5000  -15.8239 C   0  0  0  0  0  0  0  0  0  0  0  0
   38.6591   13.6935  -14.6402 Cl  0  0  0  0  0  0  0  0  0  0  0  0
   34.8854   10.6774  -16.6043 C   0  0  0  0  0  0  0  0  0  0  0  0
   34.2418   11.1659  -15.4692 F   0  0  0  0  0  0  0  0  0  0  0  0
   34.7487    9.3342  -16.7216 F   0  0  0  0  0  0  0  0  0  0  0  0
   34.1504   11.2566  -17.6485 F   0  0  0  0  0  0  0  0  0  0  0  0
   41.1214   11.6892  -17.9147 C   0  0  0  0  0  0  0  0  0  0  0  0
   40.3228   12.5599  -16.8878 C   0  0  0  0  0  0  0  0  0  0  0  0
   40.3718   13.9515  -17.4122 C   0  0  0  0  0  0  0  0  0  0  0  0
   41.0312   12.4712  -15.6327 N   0  0  0  0  0  0  0  0  0  0  0  0
   42.1010   13.0194  -15.5042 N   0  0  0  0  0  0  0  0  0  0  0  0
   43.0862   13.2962  -14.7457 N   0  0  0  0  0  0  0  0  0  0  0  0
 12 13  1  0  0  0
 13 14  1  0  0  0
 13 15  1  0  0  0
 15 16  2  0  0  0
 16 17  2  0  0  0
 13  1  1  0  0  0
  1  2  2  0  0  0
  2  3  1  0  0  0
  3  4  2  0  0  0
  4  8  1  0  0  0
  8  9  1  0  0  0
  8 10  1  0  0  0
  8 11  1  0  0  0
  4  5  1  0  0  0
  5  6  2  0  0  0
  6  7  1  0  0  0
  6  1  1  0  0  0
M  CHG 1  16   1
M  CHG 1  17  -1
M  END
> <minimizedAffinity>
-6.86413

> <CNNscore>
0.4586859643

> <CNNaffinity>
5.7388958931

> <CNN_VS>
2.6323509216

> <CNNaffinity_variance>
0.1462852657

$$$$
[H]c1c([H])c(C([H])([H])OC([H])([H])C2([H])C([H])([H])C([H])([H])N(C([H])([H])C([H])([H])C([H])([H])C([H])([H])C([H])([H])[H])C([H])([H])C2([H])[H])c([H])c([H])c1F


 21 22  0  0  0  0  0  0  0  0999 V2000
   35.0873   13.2167  -12.9605 N   0  0  0  0  0  0  0  0  0  0  0  0
   36.1744   12.4296  -13.3931 C   0  0  0  0  0  0  0  0  0  0  0  0
   37.5362   12.9082  -13.0652 C   0  0  0  0  0  0  0  0  0  0  0  0
   37.6486   14.3448  -13.5615 C   0  0  0  0  0  0  0  0  0  0  0  0
   36.6489   15.1198  -12.7312 C   0  0  0  0  0  0  0  0  0  0  0  0
   35.2663   14.5971  -12.7854 C   0  0  0  0  0  0  0  0  0  0  0  0
   33.9239   12.8541  -13.7281 C   0  0  0  0  0  0  0  0  0  0  0  0
   34.2053   12.4635  -15.1350 C   0  0  0  0  0  0  0  0  0  0  0  0
   33.5570   11.1515  -15.4973 C   0  0  0  0  0  0  0  0  0  0  0  0
   35.5372   11.0506  -16.9395 C   0  0  0  0  0  0  0  0  0  0  0  0
   34.1120   10.5822  -16.7776 C   0  0  0  0  0  0  0  0  0  0  0  0
   39.0233   14.9090  -13.2911 C   0  0  0  0  0  0  0  0  0  0  0  0
   39.7633   14.9374  -14.4746 O   0  0  0  0  0  0  0  0  0  0  0  0
   40.7570   13.9633  -14.4271 C   0  0  0  0  0  0  0  0  0  0  0  0
   40.6452   13.1210  -15.6572 C   0  0  0  0  0  0  0  0  0  0  0  0
   41.7650   12.7774  -16.3928 C   0  0  0  0  0  0  0  0  0  0  0  0
   41.6887   12.0014  -17.5313 C   0  0  0  0  0  0  0  0  0  0  0  0
   40.4706   11.5349  -17.9809 C   0  0  0  0  0  0  0  0  0  0  0  0
   40.3677   10.7656  -19.1043 F   0  0  0  0  0  0  0  0  0  0  0  0
   39.3502   11.8740  -17.2521 C   0  0  0  0  0  0  0  0  0  0  0  0
   39.4255   12.6566  -16.1035 C   0  0  0  0  0  0  0  0  0  0  0  0
 10 11  1  0  0  0
 11  9  1  0  0  0
  9  8  1  0  0  0
  8  7  1  0  0  0
  7  1  1  0  0  0
  1  2  1  0  0  0
  2  3  1  0  0  0
  3  4  1  0  0  0
  4 12  1  0  0  0
 12 13  1  0  0  0
 13 14  1  0  0  0
 14 15  1  0  0  0
 15 16  2  0  0  0
 16 17  1  0  0  0
 17 18  2  0  0  0
 18 19  1  0  0  0
 18 20  1  0  0  0
 20 21  2  0  0  0
  4  5  1  0  0  0
  5  6  1  0  0  0
  6  1  1  0  0  0
 21 15  1  0  0  0
M  END
> <minimizedAffinity>
-7.12024

> <CNNscore>
0.6092761159

> <CNNaffinity>
6.0098209381

> <CNN_VS>
3.6616404057

> <CNNaffinity_variance>
0.3464938998

$$$$
[H]c1c([H])c(C([H])([H])OC([H])([H])C2([H])C([H])([H])C([H])([H])N(C([H])([H])C([H])([H])C([H])([H])C([H])([H])C([H])([H])[H])C([H])([H])C2([H])[H])c([H])c([H])c1F


 21 22  0  0  0  0  0  0  0  0999 V2000
   34.0662   14.6771  -12.0198 N   0  0  0  0  0  0  0  0  0  0  0  0
   34.4822   13.7739  -13.0196 C   0  0  0  0  0  0  0  0  0  0  0  0
   35.9275   13.4643  -13.1007 C   0  0  0  0  0  0  0  0  0  0  0  0
   36.6752   14.7891  -13.1924 C   0  0  0  0  0  0  0  0  0  0  0  0
   36.4002   15.4802  -11.8748 C   0  0  0  0  0  0  0  0  0  0  0  0
   34.9659   15.6481  -11.5548 C   0  0  0  0  0  0  0  0  0  0  0  0
   32.7645   15.1831  -12.3713 C   0  0  0  0  0  0  0  0  0  0  0  0
   31.8489   15.3953  -11.2190 C   0  0  0  0  0  0  0  0  0  0  0  0
   30.5715   14.6072  -11.3601 C   0  0  0  0  0  0  0  0  0  0  0  0
   30.8358   14.7523   -8.9270 C   0  0  0  0  0  0  0  0  0  0  0  0
   29.8679   14.4312  -10.0390 C   0  0  0  0  0  0  0  0  0  0  0  0
   38.1649   14.5677  -13.3061 C   0  0  0  0  0  0  0  0  0  0  0  0
   38.4160   13.4324  -14.0790 O   0  0  0  0  0  0  0  0  0  0  0  0
   39.7365   13.4507  -14.5198 C   0  0  0  0  0  0  0  0  0  0  0  0
   39.8077   12.7062  -15.8144 C   0  0  0  0  0  0  0  0  0  0  0  0
   38.8084   11.8262  -16.1890 C   0  0  0  0  0  0  0  0  0  0  0  0
   38.8504   11.1272  -17.3780 C   0  0  0  0  0  0  0  0  0  0  0  0
   39.9099   11.2864  -18.2473 C   0  0  0  0  0  0  0  0  0  0  0  0
   39.9755   10.6066  -19.4297 F   0  0  0  0  0  0  0  0  0  0  0  0
   40.9095   12.1622  -17.8797 C   0  0  0  0  0  0  0  0  0  0  0  0
   40.8686   12.8681  -16.6807 C   0  0  0  0  0  0  0  0  0  0  0  0
 10 11  1  0  0  0
 11  9  1  0  0  0
  9  8  1  0  0  0
  8  7  1  0  0  0
  7  1  1  0  0  0
  1  2  1  0  0  0
  2  3  1  0  0  0
  3  4  1  0  0  0
  4 12  1  0  0  0
 12 13  1  0  0  0
 13 14  1  0  0  0
 14 15  1  0  0  0
 15 16  2  0  0  0
 16 17  1  0  0  0
 17 18  2  0  0  0
 18 19  1  0  0  0
 18 20  1  0  0  0
 20 21  2  0  0  0
  4  5  1  0  0  0
  5  6  1  0  0  0
  6  1  1  0  0  0
 21 15  1  0  0  0
M  END
> <minimizedAffinity>
-6.40457

> <CNNscore>
0.5418329239

> <CNNaffinity>
5.4447884560

> <CNN_VS>
2.9501657486

> <CNNaffinity_variance>
0.0908602774

$$$$
[H]c1c([H])c(C([H])([H])OC([H])([H])C2([H])C([H])([H])C([H])([H])N(C([H])([H])C([H])([H])C([H])([H])C([H])([H])C([H])([H])[H])C([H])([H])C2([H])[H])c([H])c([H])c1F


 21 22  0  0  0  0  0  0  0  0999 V2000
   34.9675   15.3013  -12.0380 N   0  0  0  0  0  0  0  0  0  0  0  0
   36.0478   14.5146  -12.4881 C   0  0  0  0  0  0  0  0  0  0  0  0
   35.8356   13.6954  -13.7026 C   0  0  0  0  0  0  0  0  0  0  0  0
   34.5839   12.8560  -13.4760 C   0  0  0  0  0  0  0  0  0  0  0  0
   33.4588   13.8618  -13.3664 C   0  0  0  0  0  0  0  0  0  0  0  0
   33.6559   14.8960  -12.3275 C   0  0  0  0  0  0  0  0  0  0  0  0
   35.1980   15.6523  -10.6604 C   0  0  0  0  0  0  0  0  0  0  0  0
   36.2323   14.8325   -9.9754 C   0  0  0  0  0  0  0  0  0  0  0  0
   37.2347   15.6863   -9.2413 C   0  0  0  0  0  0  0  0  0  0  0  0
   39.0644   16.0103  -10.8408 C   0  0  0  0  0  0  0  0  0  0  0  0
   38.6538   15.3023   -9.5732 C   0  0  0  0  0  0  0  0  0  0  0  0
   34.3038   11.9636  -14.6618 C   0  0  0  0  0  0  0  0  0  0  0  0
   35.1505   12.3030  -15.7187 O   0  0  0  0  0  0  0  0  0  0  0  0
   35.4156   11.1718  -16.4860 C   0  0  0  0  0  0  0  0  0  0  0  0
   36.8501   11.2168  -16.9051 C   0  0  0  0  0  0  0  0  0  0  0  0
   37.8063   11.8317  -16.1172 C   0  0  0  0  0  0  0  0  0  0  0  0
   39.1361   11.8868  -16.4813 C   0  0  0  0  0  0  0  0  0  0  0  0
   39.5626   11.3201  -17.6648 C   0  0  0  0  0  0  0  0  0  0  0  0
   40.8725   11.3609  -18.0481 F   0  0  0  0  0  0  0  0  0  0  0  0
   38.6142   10.7057  -18.4549 C   0  0  0  0  0  0  0  0  0  0  0  0
   37.2724   10.6492  -18.0891 C   0  0  0  0  0  0  0  0  0  0  0  0
 10 11  1  0  0  0
 11  9  1  0  0  0
  9  8  1  0  0  0
  8  7  1  0  0  0
  7  1  1  0  0  0
  1  2  1  0  0  0
  2  3  1  0  0  0
  3  4  1  0  0  0
  4 12  1  0  0  0
 12 13  1  0  0  0
 13 14  1  0  0  0
 14 15  1  0  0  0
 15 16  2  0  0  0
 16 17  1  0  0  0
 17 18  2  0  0  0
 18 19  1  0  0  0
 18 20  1  0  0  0
 20 21  2  0  0  0
  4  5  1  0  0  0
  5  6  1  0  0  0
  6  1  1  0  0  0
 21 15  1  0  0  0
M  END
> <minimizedAffinity>
-6.45907

> <CNNscore>
0.2853823304

> <CNNaffinity>
5.2785444260

> <CNN_VS>
1.5064033270

> <CNNaffinity_variance>
0.4210695624

$$$$
[H]c1c([H])c(C([H])([H])OC([H])([H])C2([H])C([H])([H])C([H])([H])N(C([H])([H])C([H])([H])C([H])([H])C([H])([H])C([H])([H])[H])C([H])([H])C2([H])[H])c([H])c([H])c1F


 21 22  0  0  0  0  0  0  0  0999 V2000
   46.0339   13.3212  -12.2638 N   0  0  0  0  0  0  0  0  0  0  0  0
   46.5902   13.5263  -13.5431 C   0  0  0  0  0  0  0  0  0  0  0  0
   45.6960   14.0510  -14.5997 C   0  0  0  0  0  0  0  0  0  0  0  0
   44.4727   13.1439  -14.6566 C   0  0  0  0  0  0  0  0  0  0  0  0
   43.7961   13.3229  -13.3152 C   0  0  0  0  0  0  0  0  0  0  0  0
   44.6620   13.0514  -12.1472 C   0  0  0  0  0  0  0  0  0  0  0  0
   46.8877   12.4224  -11.5307 C   0  0  0  0  0  0  0  0  0  0  0  0
   46.3295   11.9546  -10.2343 C   0  0  0  0  0  0  0  0  0  0  0  0
   46.0425   10.4746  -10.2442 C   0  0  0  0  0  0  0  0  0  0  0  0
   47.9174    9.2966   -9.1914 C   0  0  0  0  0  0  0  0  0  0  0  0
   47.2826    9.6609  -10.5110 C   0  0  0  0  0  0  0  0  0  0  0  0
   43.5117   13.5914  -15.7323 C   0  0  0  0  0  0  0  0  0  0  0  0
   42.3853   12.7665  -15.7323 O   0  0  0  0  0  0  0  0  0  0  0  0
   41.2625   13.5098  -16.0862 C   0  0  0  0  0  0  0  0  0  0  0  0
   40.2625   12.5830  -16.6997 C   0  0  0  0  0  0  0  0  0  0  0  0
   40.4841   12.0112  -17.9395 C   0  0  0  0  0  0  0  0  0  0  0  0
   39.5774   11.1530  -18.5274 C   0  0  0  0  0  0  0  0  0  0  0  0
   38.3990   10.8318  -17.8856 C   0  0  0  0  0  0  0  0  0  0  0  0
   37.4853    9.9855  -18.4454 F   0  0  0  0  0  0  0  0  0  0  0  0
   38.1720   11.3986  -16.6493 C   0  0  0  0  0  0  0  0  0  0  0  0
   39.0856   12.2644  -16.0550 C   0  0  0  0  0  0  0  0  0  0  0  0
 10 11  1  0  0  0
 11  9  1  0  0  0
  9  8  1  0  0  0
  8  7  1  0  0  0
  7  1  1  0  0  0
  1  2  1  0  0  0
  2  3  1  0  0  0
  3  4  1  0  0  0
  4 12  1  0  0  0
 12 13  1  0  0  0
 13 14  1  0  0  0
 14 15  1  0  0  0
 15 16  2  0  0  0
 16 17  1  0  0  0
 17 18  2  0  0  0
 18 19  1  0  0  0
 18 20  1  0  0  0
 20 21  2  0  0  0
  4  5  1  0  0  0
  5  6  1  0  0  0
  6  1  1  0  0  0
 21 15  1  0  0  0
M  END
> <minimizedAffinity>
-5.72610

> <CNNscore>
0.2710242867

> <CNNaffinity>
4.6004571915

> <CNN_VS>
1.2468355894

> <CNNaffinity_variance>
0.2172652185

$$$$
[H]c1c([H])c(C([H])([H])OC([H])([H])C2([H])C([H])([H])C([H])([H])N(C([H])([H])C([H])([H])C([H])([H])C([H])([H])C([H])([H])[H])C([H])([H])C2([H])[H])c([H])c([H])c1F


 21 22  0  0  0  0  0  0  0  0999 V2000
   34.5476   13.5628  -12.7816 N   0  0  0  0  0  0  0  0  0  0  0  0
   33.6850   13.6473  -13.8939 C   0  0  0  0  0  0  0  0  0  0  0  0
   33.7339   12.5447  -14.8803 C   0  0  0  0  0  0  0  0  0  0  0  0
   35.1873   12.3756  -15.3066 C   0  0  0  0  0  0  0  0  0  0  0  0
   35.9095   11.9363  -14.0516 C   0  0  0  0  0  0  0  0  0  0  0  0
   35.7489   12.8474  -12.8975 C   0  0  0  0  0  0  0  0  0  0  0  0
   34.6831   14.8756  -12.2051 C   0  0  0  0  0  0  0  0  0  0  0  0
   35.6902   14.9745  -11.1156 C   0  0  0  0  0  0  0  0  0  0  0  0
   36.8052   15.9281  -11.4620 C   0  0  0  0  0  0  0  0  0  0  0  0
   38.6768   15.0971  -12.8102 C   0  0  0  0  0  0  0  0  0  0  0  0
   38.1559   15.2623  -11.4038 C   0  0  0  0  0  0  0  0  0  0  0  0
   35.3291   11.2821  -16.3387 C   0  0  0  0  0  0  0  0  0  0  0  0
   36.2014   11.6950  -17.3475 O   0  0  0  0  0  0  0  0  0  0  0  0
   37.1658   10.7137  -17.5610 C   0  0  0  0  0  0  0  0  0  0  0  0
   38.5088   11.3106  -17.2868 C   0  0  0  0  0  0  0  0  0  0  0  0
   39.5479   11.1787  -18.1902 C   0  0  0  0  0  0  0  0  0  0  0  0
   40.7963   11.7199  -17.9608 C   0  0  0  0  0  0  0  0  0  0  0  0
   41.0531   12.4229  -16.8017 C   0  0  0  0  0  0  0  0  0  0  0  0
   42.2795   12.9682  -16.5506 F   0  0  0  0  0  0  0  0  0  0  0  0
   40.0214   12.5579  -15.8968 C   0  0  0  0  0  0  0  0  0  0  0  0
   38.7615   12.0126  -16.1267 C   0  0  0  0  0  0  0  0  0  0  0  0
 10 11  1  0  0  0
 11  9  1  0  0  0
  9  8  1  0  0  0
  8  7  1  0  0  0
  7  1  1  0  0  0
  1  2  1  0  0  0
  2  3  1  0  0  0
  3  4  1  0  0  0
  4 12  1  0  0  0
 12 13  1  0  0  0
 13 14  1  0  0  0
 14 15  1  0  0  0
 15 16  2  0  0  0
 16 17  1  0  0  0
 17 18  2  0  0  0
 18 19  1  0  0  0
 18 20  1  0  0  0
 20 21  2  0  0  0
  4  5  1  0  0  0
  5  6  1  0  0  0
  6  1  1  0  0  0
 21 15  1  0  0  0
M  END
> <minimizedAffinity>
-6.74458

> <CNNscore>
0.2654964626

> <CNNaffinity>
5.5297980309

> <CNN_VS>
1.4681417942

> <CNNaffinity_variance>
0.3634264171

$$$$
[H]c1c([H])c(C([H])([H])OC([H])([H])C2([H])C([H])([H])C([H])([H])N(C([H])([H])C([H])([H])C([H])([H])C([H])([H])C([H])([H])[H])C([H])([H])C2([H])[H])c([H])c([H])c1F


 21 22  0  0  0  0  0  0  0  0999 V2000
   37.3311   16.9209  -10.3199 N   0  0  0  0  0  0  0  0  0  0  0  0
   38.6352   16.3903  -10.3977 C   0  0  0  0  0  0  0  0  0  0  0  0
   39.0660   15.8268  -11.6970 C   0  0  0  0  0  0  0  0  0  0  0  0
   38.0169   14.8073  -12.1245 C   0  0  0  0  0  0  0  0  0  0  0  0
   36.7569   15.6167  -12.3404 C   0  0  0  0  0  0  0  0  0  0  0  0
   36.3358   16.4238  -11.1746 C   0  0  0  0  0  0  0  0  0  0  0  0
   36.9490   16.9983   -8.9334 C   0  0  0  0  0  0  0  0  0  0  0  0
   35.6609   16.3315   -8.6061 C   0  0  0  0  0  0  0  0  0  0  0  0
   34.7145   17.2555   -7.8828 C   0  0  0  0  0  0  0  0  0  0  0  0
   35.2658   18.6690   -5.9569 C   0  0  0  0  0  0  0  0  0  0  0  0
   35.3898   18.5329   -7.4545 C   0  0  0  0  0  0  0  0  0  0  0  0
   38.3902   14.1582  -13.4361 C   0  0  0  0  0  0  0  0  0  0  0  0
   37.2447   13.6587  -14.0587 O   0  0  0  0  0  0  0  0  0  0  0  0
   37.5362   12.4385  -14.6625 C   0  0  0  0  0  0  0  0  0  0  0  0
   36.3045   11.9553  -15.3588 C   0  0  0  0  0  0  0  0  0  0  0  0
   35.0496   12.1534  -14.8118 C   0  0  0  0  0  0  0  0  0  0  0  0
   33.8978   11.7174  -15.4342 C   0  0  0  0  0  0  0  0  0  0  0  0
   33.9620   11.0576  -16.6443 C   0  0  0  0  0  0  0  0  0  0  0  0
   32.8375   10.6160  -17.2806 F   0  0  0  0  0  0  0  0  0  0  0  0
   35.2101   10.8569  -17.1949 C   0  0  0  0  0  0  0  0  0  0  0  0
   36.3729   11.2961  -16.5684 C   0  0  0  0  0  0  0  0  0  0  0  0
 10 11  1  0  0  0
 11  9  1  0  0  0
  9  8  1  0  0  0
  8  7  1  0  0  0
  7  1  1  0  0  0
  1  2  1  0  0  0
  2  3  1  0  0  0
  3  4  1  0  0  0
  4 12  1  0  0  0
 12 13  1  0  0  0
 13 14  1  0  0  0
 14 15  1  0  0  0
 15 16  2  0  0  0
 16 17  1  0  0  0
 17 18  2  0  0  0
 18 19  1  0  0  0
 18 20  1  0  0  0
 20 21  2  0  0  0
  4  5  1  0  0  0
  5  6  1  0  0  0
  6  1  1  0  0  0
 21 15  1  0  0  0
M  END
> <minimizedAffinity>
-5.51366

> <CNNscore>
0.2519516051

> <CNNaffinity>
4.8985867500

> <CNN_VS>
1.2342067957

> <CNNaffinity_variance>
0.2583586574

$$$$
[H]c1c([H])c(C([H])([H])OC([H])([H])C2([H])C([H])([H])C([H])([H])N(C([H])([H])C([H])([H])C([H])([H])C([H])([H])C([H])([H])[H])C([H])([H])C2([H])[H])c([H])c([H])c1F


 21 22  0  0  0  0  0  0  0  0999 V2000
   37.7801   16.4480  -11.3117 N   0  0  0  0  0  0  0  0  0  0  0  0
   38.4221   15.3039  -11.8288 C   0  0  0  0  0  0  0  0  0  0  0  0
   37.6323   14.4212  -12.7166 C   0  0  0  0  0  0  0  0  0  0  0  0
   36.3479   14.0611  -11.9795 C   0  0  0  0  0  0  0  0  0  0  0  0
   35.6122   15.3738  -11.8212 C   0  0  0  0  0  0  0  0  0  0  0  0
   36.3871   16.4366  -11.1447 C   0  0  0  0  0  0  0  0  0  0  0  0
   38.5192   16.9103  -10.1653 C   0  0  0  0  0  0  0  0  0  0  0  0
   37.8764   16.6240   -8.8554 C   0  0  0  0  0  0  0  0  0  0  0  0
   38.0026   17.7827   -7.8992 C   0  0  0  0  0  0  0  0  0  0  0  0
   37.7972   20.1674   -8.4302 C   0  0  0  0  0  0  0  0  0  0  0  0
   37.0278   18.8868   -8.2186 C   0  0  0  0  0  0  0  0  0  0  0  0
   35.4866   13.1353  -12.8054 C   0  0  0  0  0  0  0  0  0  0  0  0
   35.7095   13.3691  -14.1637 O   0  0  0  0  0  0  0  0  0  0  0  0
   35.3117   12.2565  -14.9001 C   0  0  0  0  0  0  0  0  0  0  0  0
   36.4534   11.8393  -15.7706 C   0  0  0  0  0  0  0  0  0  0  0  0
   36.2422   11.1076  -16.9252 C   0  0  0  0  0  0  0  0  0  0  0  0
   37.2784   10.7104  -17.7453 C   0  0  0  0  0  0  0  0  0  0  0  0
   38.5825   11.0364  -17.4342 C   0  0  0  0  0  0  0  0  0  0  0  0
   39.6257   10.6556  -18.2287 F   0  0  0  0  0  0  0  0  0  0  0  0
   38.7999   11.7657  -16.2844 C   0  0  0  0  0  0  0  0  0  0  0  0
   37.7558   12.1671  -15.4561 C   0  0  0  0  0  0  0  0  0  0  0  0
 10 11  1  0  0  0
 11  9  1  0  0  0
  9  8  1  0  0  0
  8  7  1  0  0  0
  7  1  1  0  0  0
  1  2  1  0  0  0
  2  3  1  0  0  0
  3  4  1  0  0  0
  4 12  1  0  0  0
 12 13  1  0  0  0
 13 14  1  0  0  0
 14 15  1  0  0  0
 15 16  2  0  0  0
 16 17  1  0  0  0
 17 18  2  0  0  0
 18 19  1  0  0  0
 18 20  1  0  0  0
 20 21  2  0  0  0
  4  5  1  0  0  0
  5  6  1  0  0  0
  6  1  1  0  0  0
 21 15  1  0  0  0
M  END
> <minimizedAffinity>
-6.46316

> <CNNscore>
0.2240561843

> <CNNaffinity>
4.9393486977

> <CNN_VS>
1.1066915989

> <CNNaffinity_variance>
0.4303449690

$$$$
[H]c1c([H])c(C([H])([H])OC([H])([H])C2([H])C([H])([H])C([H])([H])N(C([H])([H])C([H])([H])C([H])([H])C([H])([H])C([H])([H])[H])C([H])([H])C2([H])[H])c([H])c([H])c1F


 21 22  0  0  0  0  0  0  0  0999 V2000
   35.4737   16.2034  -10.2147 N   0  0  0  0  0  0  0  0  0  0  0  0
   36.8421   16.0600   -9.9065 C   0  0  0  0  0  0  0  0  0  0  0  0
   37.7665   15.7687  -11.0253 C   0  0  0  0  0  0  0  0  0  0  0  0
   37.2245   14.5493  -11.7616 C   0  0  0  0  0  0  0  0  0  0  0  0
   35.8982   15.0009  -12.3329 C   0  0  0  0  0  0  0  0  0  0  0  0
   34.9494   15.5413  -11.3350 C   0  0  0  0  0  0  0  0  0  0  0  0
   34.7106   16.0343   -9.0050 C   0  0  0  0  0  0  0  0  0  0  0  0
   35.1821   14.9348   -8.1220 C   0  0  0  0  0  0  0  0  0  0  0  0
   34.2340   14.6840   -6.9770 C   0  0  0  0  0  0  0  0  0  0  0  0
   31.9099   13.9382   -6.7459 C   0  0  0  0  0  0  0  0  0  0  0  0
   32.8063   14.9918   -7.3486 C   0  0  0  0  0  0  0  0  0  0  0  0
   38.1246   14.1616  -12.9107 C   0  0  0  0  0  0  0  0  0  0  0  0
   37.8061   12.8740  -13.3465 O   0  0  0  0  0  0  0  0  0  0  0  0
   38.1382   12.7413  -14.6920 C   0  0  0  0  0  0  0  0  0  0  0  0
   36.9624   12.1589  -15.4086 C   0  0  0  0  0  0  0  0  0  0  0  0
   37.1086   11.5386  -16.6362 C   0  0  0  0  0  0  0  0  0  0  0  0
   36.0398   10.9933  -17.3177 C   0  0  0  0  0  0  0  0  0  0  0  0
   34.7675   11.0504  -16.7869 C   0  0  0  0  0  0  0  0  0  0  0  0
   33.6932   10.5188  -17.4408 F   0  0  0  0  0  0  0  0  0  0  0  0
   34.6150   11.6677  -15.5633 C   0  0  0  0  0  0  0  0  0  0  0  0
   35.6921   12.2181  -14.8746 C   0  0  0  0  0  0  0  0  0  0  0  0
 10 11  1  0  0  0
 11  9  1  0  0  0
  9  8  1  0  0  0
  8  7  1  0  0  0
  7  1  1  0  0  0
  1  2  1  0  0  0
  2  3  1  0  0  0
  3  4  1  0  0  0
  4 12  1  0  0  0
 12 13  1  0  0  0
 13 14  1  0  0  0
 14 15  1  0  0  0
 15 16  2  0  0  0
 16 17  1  0  0  0
 17 18  2  0  0  0
 18 19  1  0  0  0
 18 20  1  0  0  0
 20 21  2  0  0  0
  4  5  1  0  0  0
  5  6  1  0  0  0
  6  1  1  0  0  0
 21 15  1  0  0  0
M  END
> <minimizedAffinity>
-5.80210

> <CNNscore>
0.2155168056

> <CNNaffinity>
4.8510723114

> <CNN_VS>
1.0454876423

> <CNNaffinity_variance>
0.3876797557

$$$$
[H]c1c([H])c(C([H])([H])OC([H])([H])C2([H])C([H])([H])C([H])([H])N(C([H])([H])C([H])([H])C([H])([H])C([H])([H])C([H])([H])[H])C([H])([H])C2([H])[H])c([H])c([H])c1F


 21 22  0  0  0  0  0  0  0  0999 V2000
   38.1722   10.7945  -17.2336 N   0  0  0  0  0  0  0  0  0  0  0  0
   39.0905   11.0686  -18.2679 C   0  0  0  0  0  0  0  0  0  0  0  0
   40.4011   11.6391  -17.8832 C   0  0  0  0  0  0  0  0  0  0  0  0
   40.1310   12.8720  -17.0290 C   0  0  0  0  0  0  0  0  0  0  0  0
   39.4499   12.3399  -15.7870 C   0  0  0  0  0  0  0  0  0  0  0  0
   38.2332   11.5398  -16.0464 C   0  0  0  0  0  0  0  0  0  0  0  0
   36.8555   10.6833  -17.8063 C   0  0  0  0  0  0  0  0  0  0  0  0
   35.7958   11.4286  -17.0765 C   0  0  0  0  0  0  0  0  0  0  0  0
   34.5483   10.6022  -16.8932 C   0  0  0  0  0  0  0  0  0  0  0  0
   34.4997   12.1209  -14.9691 C   0  0  0  0  0  0  0  0  0  0  0  0
   33.7087   11.0951  -15.7429 C   0  0  0  0  0  0  0  0  0  0  0  0
   41.4201   13.5383  -16.6103 C   0  0  0  0  0  0  0  0  0  0  0  0
   42.1322   12.6943  -15.7559 O   0  0  0  0  0  0  0  0  0  0  0  0
   43.4804   13.0413  -15.7742 C   0  0  0  0  0  0  0  0  0  0  0  0
   43.7922   13.7726  -14.5080 C   0  0  0  0  0  0  0  0  0  0  0  0
   44.7935   14.7256  -14.4607 C   0  0  0  0  0  0  0  0  0  0  0  0
   45.1008   15.4142  -13.3051 C   0  0  0  0  0  0  0  0  0  0  0  0
   44.4063   15.1699  -12.1382 C   0  0  0  0  0  0  0  0  0  0  0  0
   44.6906   15.8374  -10.9815 F   0  0  0  0  0  0  0  0  0  0  0  0
   43.4068   14.2208  -12.1787 C   0  0  0  0  0  0  0  0  0  0  0  0
   43.0956   13.5254  -13.3435 C   0  0  0  0  0  0  0  0  0  0  0  0
 10 11  1  0  0  0
 11  9  1  0  0  0
  9  8  1  0  0  0
  8  7  1  0  0  0
  7  1  1  0  0  0
  1  2  1  0  0  0
  2  3  1  0  0  0
  3  4  1  0  0  0
  4 12  1  0  0  0
 12 13  1  0  0  0
 13 14  1  0  0  0
 14 15  1  0  0  0
 15 16  2  0  0  0
 16 17  1  0  0  0
 17 18  2  0  0  0
 18 19  1  0  0  0
 18 20  1  0  0  0
 20 21  2  0  0  0
  4  5  1  0  0  0
  5  6  1  0  0  0
  6  1  1  0  0  0
 21 15  1  0  0  0
M  END
> <minimizedAffinity>
-6.17714

> <CNNscore>
0.2105153352

> <CNNaffinity>
5.3463706970

> <CNN_VS>
1.1254930496

> <CNNaffinity_variance>
0.3255603313

$$$$
[H]c1c([H])c([H])c([C@@]2([H])C([H])([H])[C@]2([H])N([H])C([H])([H])C2([H])C([H])([H])C([H])([H])N([H])C([H])([H])C2([H])[H])c([H])c1[H]


 19 21  0  0  0  0  0  0  0  0999 V2000
   35.2907   14.3645  -11.7262 N   0  0  0  0  0  0  0  0  0  0  0  0
   35.2557   13.7570  -10.8921 H   0  0  0  0  0  0  0  0  0  0  0  0
   35.2114   12.2616  -13.1702 C   0  0  0  0  0  0  0  0  0  0  0  0
   36.6410   12.5372  -12.6939 C   0  0  0  0  0  0  0  0  0  0  0  0
   35.6350   13.6648  -12.9485 C   0  0  0  0  0  0  0  0  0  0  0  0
   34.7162   11.1325  -17.2957 C   0  0  0  0  0  0  0  0  0  0  0  0
   35.9321   11.5563  -16.8026 C   0  0  0  0  0  0  0  0  0  0  0  0
   36.0688   11.9173  -15.4611 C   0  0  0  0  0  0  0  0  0  0  0  0
   35.0126   11.8669  -14.5855 C   0  0  0  0  0  0  0  0  0  0  0  0
   33.7994   11.4420  -15.0855 C   0  0  0  0  0  0  0  0  0  0  0  0
   33.6561   11.0807  -16.4218 C   0  0  0  0  0  0  0  0  0  0  0  0
   36.2282   15.4608  -11.5963 C   0  0  0  0  0  0  0  0  0  0  0  0
   37.1850   15.2984  -10.4522 C   0  0  0  0  0  0  0  0  0  0  0  0
   36.4899   15.6744   -9.1749 C   0  0  0  0  0  0  0  0  0  0  0  0
   36.1339   17.1212   -9.0642 C   0  0  0  0  0  0  0  0  0  0  0  0
   36.9477   17.9709   -9.9161 N   0  0  0  0  0  0  0  0  0  0  0  0
   38.3151   17.4387   -9.8113 C   0  0  0  0  0  0  0  0  0  0  0  0
   38.3640   16.2251  -10.7286 C   0  0  0  0  0  0  0  0  0  0  0  0
   36.8915   18.9405   -9.5885 H   0  0  0  0  0  0  0  0  0  0  0  0
  6  7  2  0  0  0
  7  8  1  0  0  0
  8  9  2  0  0  0
  9  3  1  0  0  0
  3  4  1  0  0  0
  4  5  1  0  0  0
  5  1  1  0  0  0
  1 12  1  0  0  0
 12 13  1  0  0  0
 13 14  1  0  0  0
 14 15  1  0  0  0
 15 16  1  0  0  0
 16 17  1  0  0  0
 17 18  1  0  0  0
  9 10  1  0  0  0
 10 11  2  0  0  0
 11  6  1  0  0  0
  5  3  1  0  0  0
 18 13  1  0  0  0
  1  2  1  0  0  0
 16 19  1  0  0  0
M  END
> <minimizedAffinity>
-5.80582

> <CNNscore>
0.5159927607

> <CNNaffinity>
4.7245893478

> <CNN_VS>
2.4378538132

> <CNNaffinity_variance>
0.2792800963

$$$$
[H]c1c([H])c([H])c([C@@]2([H])C([H])([H])[C@]2([H])N([H])C([H])([H])C2([H])C([H])([H])C([H])([H])N([H])C([H])([H])C2([H])[H])c([H])c1[H]


 19 21  0  0  0  0  0  0  0  0999 V2000
   38.0836   14.8748  -13.4338 N   0  0  0  0  0  0  0  0  0  0  0  0
   38.3491   15.8410  -13.1850 H   0  0  0  0  0  0  0  0  0  0  0  0
   39.2221   12.8944  -14.5720 C   0  0  0  0  0  0  0  0  0  0  0  0
   40.2581   13.9309  -14.1263 C   0  0  0  0  0  0  0  0  0  0  0  0
   38.8376   14.3258  -14.5439 C   0  0  0  0  0  0  0  0  0  0  0  0
   39.7311   11.1939  -18.4949 C   0  0  0  0  0  0  0  0  0  0  0  0
   40.6959   11.9964  -17.9236 C   0  0  0  0  0  0  0  0  0  0  0  0
   40.5088   12.5366  -16.6501 C   0  0  0  0  0  0  0  0  0  0  0  0
   39.3711   12.2959  -15.9203 C   0  0  0  0  0  0  0  0  0  0  0  0
   38.4103   11.4924  -16.4980 C   0  0  0  0  0  0  0  0  0  0  0  0
   38.5903   10.9506  -17.7672 C   0  0  0  0  0  0  0  0  0  0  0  0
   36.6825   14.7362  -13.7737 C   0  0  0  0  0  0  0  0  0  0  0  0
   35.9121   13.8884  -12.8049 C   0  0  0  0  0  0  0  0  0  0  0  0
   35.2748   12.7500  -13.5493 C   0  0  0  0  0  0  0  0  0  0  0  0
   34.2038   13.1571  -14.5082 C   0  0  0  0  0  0  0  0  0  0  0  0
   33.6189   14.4477  -14.1886 N   0  0  0  0  0  0  0  0  0  0  0  0
   33.4766   14.4632  -12.7245 C   0  0  0  0  0  0  0  0  0  0  0  0
   34.8570   14.7895  -12.1726 C   0  0  0  0  0  0  0  0  0  0  0  0
   32.7130   14.5404  -14.6591 H   0  0  0  0  0  0  0  0  0  0  0  0
  6  7  2  0  0  0
  7  8  1  0  0  0
  8  9  2  0  0  0
  9  3  1  0  0  0
  3  4  1  0  0  0
  4  5  1  0  0  0
  5  1  1  0  0  0
  1 12  1  0  0  0
 12 13  1  0  0  0
 13 14  1  0  0  0
 14 15  1  0  0  0
 15 16  1  0  0  0
 16 17  1  0  0  0
 17 18  1  0  0  0
  9 10  1  0  0  0
 10 11  2  0  0  0
 11  6  1  0  0  0
  5  3  1  0  0  0
 18 13  1  0  0  0
  1  2  1  0  0  0
 16 19  1  0  0  0
M  END
> <minimizedAffinity>
-7.19596

> <CNNscore>
0.5127507448

> <CNNaffinity>
5.4018526077

> <CNN_VS>
2.7698040009

> <CNNaffinity_variance>
0.1698684245

$$$$
[H]c1c([H])c([H])c([C@@]2([H])C([H])([H])[C@]2([H])N([H])C([H])([H])C2([H])C([H])([H])C([H])([H])N([H])C([H])([H])C2([H])[H])c([H])c1[H]


 19 21  0  0  0  0  0  0  0  0999 V2000
   37.9734   14.6634  -12.9763 N   0  0  0  0  0  0  0  0  0  0  0  0
   38.6552   15.4062  -12.7538 H   0  0  0  0  0  0  0  0  0  0  0  0
   38.4885   12.5758  -14.3511 C   0  0  0  0  0  0  0  0  0  0  0  0
   39.6509   13.5708  -14.4224 C   0  0  0  0  0  0  0  0  0  0  0  0
   38.1969   14.0263  -14.2594 C   0  0  0  0  0  0  0  0  0  0  0  0
   37.3288   10.6409  -18.0187 C   0  0  0  0  0  0  0  0  0  0  0  0
   38.6540   10.8306  -17.6885 C   0  0  0  0  0  0  0  0  0  0  0  0
   39.0061   11.4605  -16.4936 C   0  0  0  0  0  0  0  0  0  0  0  0
   38.0610   11.9129  -15.6065 C   0  0  0  0  0  0  0  0  0  0  0  0
   36.7375   11.7198  -15.9432 C   0  0  0  0  0  0  0  0  0  0  0  0
   36.3793   11.0927  -17.1329 C   0  0  0  0  0  0  0  0  0  0  0  0
   36.6015   15.1276  -12.9757 C   0  0  0  0  0  0  0  0  0  0  0  0
   35.7205   14.3916  -12.0099 C   0  0  0  0  0  0  0  0  0  0  0  0
   35.1588   13.1748  -12.6884 C   0  0  0  0  0  0  0  0  0  0  0  0
   34.2047   13.4684  -13.8000 C   0  0  0  0  0  0  0  0  0  0  0  0
   33.6002   14.7849  -13.6939 N   0  0  0  0  0  0  0  0  0  0  0  0
   33.2966   14.9643  -12.2657 C   0  0  0  0  0  0  0  0  0  0  0  0
   34.6104   15.3548  -11.6038 C   0  0  0  0  0  0  0  0  0  0  0  0
   32.7530   14.8214  -14.2697 H   0  0  0  0  0  0  0  0  0  0  0  0
  6  7  2  0  0  0
  7  8  1  0  0  0
  8  9  2  0  0  0
  9  3  1  0  0  0
  3  4  1  0  0  0
  4  5  1  0  0  0
  5  1  1  0  0  0
  1 12  1  0  0  0
 12 13  1  0  0  0
 13 14  1  0  0  0
 14 15  1  0  0  0
 15 16  1  0  0  0
 16 17  1  0  0  0
 17 18  1  0  0  0
  9 10  1  0  0  0
 10 11  2  0  0  0
 11  6  1  0  0  0
  5  3  1  0  0  0
 18 13  1  0  0  0
  1  2  1  0  0  0
 16 19  1  0  0  0
M  END
> <minimizedAffinity>
-7.27542

> <CNNscore>
0.4213210642

> <CNNaffinity>
5.0529470444

> <CNN_VS>
2.1289129257

> <CNNaffinity_variance>
0.3169611096

$$$$
[H]c1c([H])c([H])c([C@@]2([H])C([H])([H])[C@]2([H])N([H])C([H])([H])C2([H])C([H])([H])C([H])([H])N([H])C([H])([H])C2([H])[H])c([H])c1[H]


 19 21  0  0  0  0  0  0  0  0999 V2000
   32.7409   14.4288  -12.5296 N   0  0  0  0  0  0  0  0  0  0  0  0
   32.5173   14.5455  -13.5308 H   0  0  0  0  0  0  0  0  0  0  0  0
   31.0568   14.4115  -10.6120 C   0  0  0  0  0  0  0  0  0  0  0  0
   30.3742   14.7970  -11.9279 C   0  0  0  0  0  0  0  0  0  0  0  0
   31.8406   15.1365  -11.6404 C   0  0  0  0  0  0  0  0  0  0  0  0
   30.1372   16.7217   -7.0967 C   0  0  0  0  0  0  0  0  0  0  0  0
   31.2237   17.0170   -7.8927 C   0  0  0  0  0  0  0  0  0  0  0  0
   31.5021   16.2538   -9.0278 C   0  0  0  0  0  0  0  0  0  0  0  0
   30.7168   15.1898   -9.3967 C   0  0  0  0  0  0  0  0  0  0  0  0
   29.6317   14.9002   -8.5960 C   0  0  0  0  0  0  0  0  0  0  0  0
   29.3484   15.6568   -7.4628 C   0  0  0  0  0  0  0  0  0  0  0  0
   34.0823   14.8561  -12.1896 C   0  0  0  0  0  0  0  0  0  0  0  0
   35.0957   13.7513  -12.2475 C   0  0  0  0  0  0  0  0  0  0  0  0
   36.4503   14.3424  -12.5157 C   0  0  0  0  0  0  0  0  0  0  0  0
   36.6021   14.9589  -13.8681 C   0  0  0  0  0  0  0  0  0  0  0  0
   35.6517   14.4402  -14.8364 N   0  0  0  0  0  0  0  0  0  0  0  0
   35.5828   12.9927  -14.5833 C   0  0  0  0  0  0  0  0  0  0  0  0
   34.6694   12.8209  -13.3779 C   0  0  0  0  0  0  0  0  0  0  0  0
   35.9816   14.6445  -15.7851 H   0  0  0  0  0  0  0  0  0  0  0  0
  6  7  2  0  0  0
  7  8  1  0  0  0
  8  9  2  0  0  0
  9  3  1  0  0  0
  3  4  1  0  0  0
  4  5  1  0  0  0
  5  1  1  0  0  0
  1 12  1  0  0  0
 12 13  1  0  0  0
 13 14  1  0  0  0
 14 15  1  0  0  0
 15 16  1  0  0  0
 16 17  1  0  0  0
 17 18  1  0  0  0
  9 10  1  0  0  0
 10 11  2  0  0  0
 11  6  1  0  0  0
  5  3  1  0  0  0
 18 13  1  0  0  0
  1  2  1  0  0  0
 16 19  1  0  0  0
M  END
> <minimizedAffinity>
-5.10161

> <CNNscore>
0.4007698298

> <CNNaffinity>
4.4865379333

> <CNN_VS>
1.7980690002

> <CNNaffinity_variance>
0.4187517166

$$$$
[H]c1c([H])c([H])c([C@@]2([H])C([H])([H])[C@]2([H])N([H])C([H])([H])C2([H])C([H])([H])C([H])([H])N([H])C([H])([H])C2([H])[H])c([H])c1[H]


 19 21  0  0  0  0  0  0  0  0999 V2000
   34.3171   13.3130  -12.8343 N   0  0  0  0  0  0  0  0  0  0  0  0
   33.9539   12.8547  -11.9834 H   0  0  0  0  0  0  0  0  0  0  0  0
   35.1806   12.7714  -15.1741 C   0  0  0  0  0  0  0  0  0  0  0  0
   34.0153   11.8500  -14.8008 C   0  0  0  0  0  0  0  0  0  0  0  0
   34.9821   12.4076  -13.7508 C   0  0  0  0  0  0  0  0  0  0  0  0
   38.5643   10.9802  -17.1445 C   0  0  0  0  0  0  0  0  0  0  0  0
   37.2790   10.8062  -17.6125 C   0  0  0  0  0  0  0  0  0  0  0  0
   36.1973   11.3968  -16.9570 C   0  0  0  0  0  0  0  0  0  0  0  0
   36.3635   12.1668  -15.8326 C   0  0  0  0  0  0  0  0  0  0  0  0
   37.6517   12.3366  -15.3700 C   0  0  0  0  0  0  0  0  0  0  0  0
   38.7347   11.7506  -16.0185 C   0  0  0  0  0  0  0  0  0  0  0  0
   35.2531   14.3819  -12.5531 C   0  0  0  0  0  0  0  0  0  0  0  0
   36.3149   14.0032  -11.5632 C   0  0  0  0  0  0  0  0  0  0  0  0
   36.0497   14.7113  -10.2653 C   0  0  0  0  0  0  0  0  0  0  0  0
   36.2104   16.1956  -10.3234 C   0  0  0  0  0  0  0  0  0  0  0  0
   37.0668   16.6297  -11.4134 N   0  0  0  0  0  0  0  0  0  0  0  0
   38.1804   15.6691  -11.4451 C   0  0  0  0  0  0  0  0  0  0  0  0
   37.6494   14.4354  -12.1612 C   0  0  0  0  0  0  0  0  0  0  0  0
   37.3939   17.5844  -11.2340 H   0  0  0  0  0  0  0  0  0  0  0  0
  6  7  2  0  0  0
  7  8  1  0  0  0
  8  9  2  0  0  0
  9  3  1  0  0  0
  3  4  1  0  0  0
  4  5  1  0  0  0
  5  1  1  0  0  0
  1 12  1  0  0  0
 12 13  1  0  0  0
 13 14  1  0  0  0
 14 15  1  0  0  0
 15 16  1  0  0  0
 16 17  1  0  0  0
 17 18  1  0  0  0
  9 10  1  0  0  0
 10 11  2  0  0  0
 11  6  1  0  0  0
  5  3  1  0  0  0
 18 13  1  0  0  0
  1  2  1  0  0  0
 16 19  1  0  0  0
M  END
> <minimizedAffinity>
-7.05708

> <CNNscore>
0.3891794682

> <CNNaffinity>
5.0329742432

> <CNN_VS>
1.9587302208

> <CNNaffinity_variance>
0.1097061858

$$$$
[H]c1c([H])c([H])c([C@@]2([H])C([H])([H])[C@]2([H])N([H])C([H])([H])C2([H])C([H])([H])C([H])([H])N([H])C([H])([H])C2([H])[H])c([H])c1[H]


 19 21  0  0  0  0  0  0  0  0999 V2000
   37.4806   15.1065  -10.7204 N   0  0  0  0  0  0  0  0  0  0  0  0
   37.8974   16.0487  -10.6528 H   0  0  0  0  0  0  0  0  0  0  0  0
   37.3997   13.3669  -12.5862 C   0  0  0  0  0  0  0  0  0  0  0  0
   38.3350   14.5203  -12.9621 C   0  0  0  0  0  0  0  0  0  0  0  0
   37.1071   14.7248  -12.0684 C   0  0  0  0  0  0  0  0  0  0  0  0
   34.7593   11.8818  -15.6460 C   0  0  0  0  0  0  0  0  0  0  0  0
   36.1231   11.9493  -15.8376 C   0  0  0  0  0  0  0  0  0  0  0  0
   36.9595   12.4344  -14.8309 C   0  0  0  0  0  0  0  0  0  0  0  0
   36.4676   12.8600  -13.6219 C   0  0  0  0  0  0  0  0  0  0  0  0
   35.1026   12.7897  -13.4372 C   0  0  0  0  0  0  0  0  0  0  0  0
   34.2628   12.3072  -14.4366 C   0  0  0  0  0  0  0  0  0  0  0  0
   36.2986   14.9437   -9.8995 C   0  0  0  0  0  0  0  0  0  0  0  0
   35.4401   16.1724   -9.8351 C   0  0  0  0  0  0  0  0  0  0  0  0
   36.2405   17.2991   -9.2468 C   0  0  0  0  0  0  0  0  0  0  0  0
   36.6087   17.1156   -7.8104 C   0  0  0  0  0  0  0  0  0  0  0  0
   35.7291   16.1927   -7.1144 N   0  0  0  0  0  0  0  0  0  0  0  0
   34.3737   16.5037   -7.5941 C   0  0  0  0  0  0  0  0  0  0  0  0
   34.2449   15.8293   -8.9525 C   0  0  0  0  0  0  0  0  0  0  0  0
   35.8152   16.3329   -6.1027 H   0  0  0  0  0  0  0  0  0  0  0  0
  6  7  2  0  0  0
  7  8  1  0  0  0
  8  9  2  0  0  0
  9  3  1  0  0  0
  3  4  1  0  0  0
  4  5  1  0  0  0
  5  1  1  0  0  0
  1 12  1  0  0  0
 12 13  1  0  0  0
 13 14  1  0  0  0
 14 15  1  0  0  0
 15 16  1  0  0  0
 16 17  1  0  0  0
 17 18  1  0  0  0
  9 10  1  0  0  0
 10 11  2  0  0  0
 11  6  1  0  0  0
  5  3  1  0  0  0
 18 13  1  0  0  0
  1  2  1  0  0  0
 16 19  1  0  0  0
M  END
> <minimizedAffinity>
-5.07916

> <CNNscore>
0.2860572040

> <CNNaffinity>
4.2475852966

> <CNN_VS>
1.2150523663

> <CNNaffinity_variance>
0.3050388992

$$$$
[H]c1c([H])c([H])c([C@@]2([H])C([H])([H])[C@]2([H])N([H])C([H])([H])C2([H])C([H])([H])C([H])([H])N([H])C([H])([H])C2([H])[H])c([H])c1[H]


 19 21  0  0  0  0  0  0  0  0999 V2000
   36.8810   11.8673  -16.2547 N   0  0  0  0  0  0  0  0  0  0  0  0
   36.3556   10.9845  -16.1508 H   0  0  0  0  0  0  0  0  0  0  0  0
   39.3089   12.5171  -16.6985 C   0  0  0  0  0  0  0  0  0  0  0  0
   39.0684   11.0471  -17.0557 C   0  0  0  0  0  0  0  0  0  0  0  0
   38.2913   11.7521  -15.9388 C   0  0  0  0  0  0  0  0  0  0  0  0
   42.9412   13.4780  -14.5954 C   0  0  0  0  0  0  0  0  0  0  0  0
   42.9604   12.8504  -15.8230 C   0  0  0  0  0  0  0  0  0  0  0  0
   41.7697   12.5488  -16.4863 C   0  0  0  0  0  0  0  0  0  0  0  0
   40.5436   12.8597  -15.9526 C   0  0  0  0  0  0  0  0  0  0  0  0
   40.5319   13.4873  -14.7245 C   0  0  0  0  0  0  0  0  0  0  0  0
   41.7152   13.7909  -14.0576 C   0  0  0  0  0  0  0  0  0  0  0  0
   36.3584   12.9433  -15.4383 C   0  0  0  0  0  0  0  0  0  0  0  0
   36.8016   12.8785  -14.0064 C   0  0  0  0  0  0  0  0  0  0  0  0
   35.6749   12.3451  -13.1684 C   0  0  0  0  0  0  0  0  0  0  0  0
   34.4892   13.2492  -13.0739 C   0  0  0  0  0  0  0  0  0  0  0  0
   34.8141   14.6387  -13.3449 N   0  0  0  0  0  0  0  0  0  0  0  0
   36.1012   14.8796  -12.6745 C   0  0  0  0  0  0  0  0  0  0  0  0
   37.1673   14.3000  -13.5934 C   0  0  0  0  0  0  0  0  0  0  0  0
   34.0740   15.2432  -12.9743 H   0  0  0  0  0  0  0  0  0  0  0  0
  6  7  2  0  0  0
  7  8  1  0  0  0
  8  9  2  0  0  0
  9  3  1  0  0  0
  3  4  1  0  0  0
  4  5  1  0  0  0
  5  1  1  0  0  0
  1 12  1  0  0  0
 12 13  1  0  0  0
 13 14  1  0  0  0
 14 15  1  0  0  0
 15 16  1  0  0  0
 16 17  1  0  0  0
 17 18  1  0  0  0
  9 10  1  0  0  0
 10 11  2  0  0  0
 11  6  1  0  0  0
  5  3  1  0  0  0
 18 13  1  0  0  0
  1  2  1  0  0  0
 16 19  1  0  0  0
M  END
> <minimizedAffinity>
-6.96198

> <CNNscore>
0.2856735289

> <CNNaffinity>
5.2573356628

> <CNN_VS>
1.5018815994

> <CNNaffinity_variance>
0.0467681512

$$$$
[H]c1c([H])c([H])c([C@@]2([H])C([H])([H])[C@]2([H])N([H])C([H])([H])C2([H])C([H])([H])C([H])([H])N([H])C([H])([H])C2([H])[H])c([H])c1[H]


 19 21  0  0  0  0  0  0  0  0999 V2000
   39.7814   13.8065  -13.8702 N   0  0  0  0  0  0  0  0  0  0  0  0
   40.4562   14.5672  -13.6910 H   0  0  0  0  0  0  0  0  0  0  0  0
   40.2412   12.3372  -15.9057 C   0  0  0  0  0  0  0  0  0  0  0  0
   40.8763   13.7199  -16.0821 C   0  0  0  0  0  0  0  0  0  0  0  0
   39.5896   13.5107  -15.2765 C   0  0  0  0  0  0  0  0  0  0  0  0
   38.2249   10.6432  -19.3123 C   0  0  0  0  0  0  0  0  0  0  0  0
   39.4893   11.1835  -19.4150 C   0  0  0  0  0  0  0  0  0  0  0  0
   40.1234   11.7271  -18.2965 C   0  0  0  0  0  0  0  0  0  0  0  0
   39.5239   11.7474  -17.0616 C   0  0  0  0  0  0  0  0  0  0  0  0
   38.2593   11.2053  -16.9662 C   0  0  0  0  0  0  0  0  0  0  0  0
   37.6212   10.6618  -18.0772 C   0  0  0  0  0  0  0  0  0  0  0  0
   38.4683   14.0647  -13.3166 C   0  0  0  0  0  0  0  0  0  0  0  0
   37.3529   13.4461  -14.1066 C   0  0  0  0  0  0  0  0  0  0  0  0
   36.1561   14.3525  -14.0571 C   0  0  0  0  0  0  0  0  0  0  0  0
   35.5304   14.4818  -12.7066 C   0  0  0  0  0  0  0  0  0  0  0  0
   35.8327   13.3613  -11.8332 N   0  0  0  0  0  0  0  0  0  0  0  0
   35.7406   12.1642  -12.6832 C   0  0  0  0  0  0  0  0  0  0  0  0
   37.0483   12.0995  -13.4592 C   0  0  0  0  0  0  0  0  0  0  0  0
   35.1565   13.3334  -11.0635 H   0  0  0  0  0  0  0  0  0  0  0  0
  6  7  2  0  0  0
  7  8  1  0  0  0
  8  9  2  0  0  0
  9  3  1  0  0  0
  3  4  1  0  0  0
  4  5  1  0  0  0
  5  1  1  0  0  0
  1 12  1  0  0  0
 12 13  1  0  0  0
 13 14  1  0  0  0
 14 15  1  0  0  0
 15 16  1  0  0  0
 16 17  1  0  0  0
 17 18  1  0  0  0
  9 10  1  0  0  0
 10 11  2  0  0  0
 11  6  1  0  0  0
  5  3  1  0  0  0
 18 13  1  0  0  0
  1  2  1  0  0  0
 16 19  1  0  0  0
M  END
> <minimizedAffinity>
-7.16584

> <CNNscore>
0.2729828358

> <CNNaffinity>
5.0970048904

> <CNN_VS>
1.3913948536

> <CNNaffinity_variance>
0.0967852250

$$$$
[H]c1c([H])c([H])c([C@@]2([H])C([H])([H])[C@]2([H])N([H])C([H])([H])C2([H])C([H])([H])C([H])([H])N([H])C([H])([H])C2([H])[H])c([H])c1[H]


 19 21  0  0  0  0  0  0  0  0999 V2000
   35.4785   14.3188  -11.6611 N   0  0  0  0  0  0  0  0  0  0  0  0
   35.8458   13.8206  -10.8347 H   0  0  0  0  0  0  0  0  0  0  0  0
   36.3028   12.4357  -13.1739 C   0  0  0  0  0  0  0  0  0  0  0  0
   37.4692   13.3257  -12.7335 C   0  0  0  0  0  0  0  0  0  0  0  0
   36.0499   13.8737  -12.9171 C   0  0  0  0  0  0  0  0  0  0  0  0
   36.0470   11.2133  -17.2946 C   0  0  0  0  0  0  0  0  0  0  0  0
   34.9232   11.3343  -16.5048 C   0  0  0  0  0  0  0  0  0  0  0  0
   35.0307   11.7323  -15.1712 C   0  0  0  0  0  0  0  0  0  0  0  0
   36.2439   12.0172  -14.5950 C   0  0  0  0  0  0  0  0  0  0  0  0
   37.3637   11.8941  -15.3909 C   0  0  0  0  0  0  0  0  0  0  0  0
   37.2638   11.4976  -16.7212 C   0  0  0  0  0  0  0  0  0  0  0  0
   35.6758   15.7522  -11.5992 C   0  0  0  0  0  0  0  0  0  0  0  0
   35.8435   16.2741  -10.2026 C   0  0  0  0  0  0  0  0  0  0  0  0
   37.0320   17.1918  -10.1619 C   0  0  0  0  0  0  0  0  0  0  0  0
   38.3456   16.5173  -10.3891 C   0  0  0  0  0  0  0  0  0  0  0  0
   38.3104   15.0957  -10.0929 N   0  0  0  0  0  0  0  0  0  0  0  0
   37.5102   14.9696   -8.8650 C   0  0  0  0  0  0  0  0  0  0  0  0
   36.0550   15.0622   -9.3017 C   0  0  0  0  0  0  0  0  0  0  0  0
   39.2657   14.7485   -9.9608 H   0  0  0  0  0  0  0  0  0  0  0  0
  6  7  2  0  0  0
  7  8  1  0  0  0
  8  9  2  0  0  0
  9  3  1  0  0  0
  3  4  1  0  0  0
  4  5  1  0  0  0
  5  1  1  0  0  0
  1 12  1  0  0  0
 12 13  1  0  0  0
 13 14  1  0  0  0
 14 15  1  0  0  0
 15 16  1  0  0  0
 16 17  1  0  0  0
 17 18  1  0  0  0
  9 10  1  0  0  0
 10 11  2  0  0  0
 11  6  1  0  0  0
  5  3  1  0  0  0
 18 13  1  0  0  0
  1  2  1  0  0  0
 16 19  1  0  0  0
M  END
> <minimizedAffinity>
-5.97200

> <CNNscore>
0.2261555940

> <CNNaffinity>
4.5056266785

> <CNN_VS>
1.0189726353

> <CNNaffinity_variance>
0.3343660533

$$$$
[H]OC([H])([H])C(F)(F)C([H])([H])N1[C@]([H])(c2c(F)c([H])nc(OC([H])([H])C([H])([H])N([H])C([H])([H])C([H])([H])C([H])([H])F)c2F)c2c(c3c([H])c([H])c([H])c([H])c3n2[H])C([H])([H])[C@@]1([H])C([H])([H])[H]


 39 42  0  0  0  0  0  0  0  0999 V2000
   35.7708   16.9739  -11.0773 C   0  0  0  0  0  0  0  0  0  0  0  0
   35.4979   15.5288  -11.3979 C   0  0  0  0  0  0  0  0  0  0  0  0
   35.9565   14.8114  -10.0944 C   0  0  0  0  0  0  0  0  0  0  0  0
   37.4249   14.9445  -10.0874 C   0  0  0  0  0  0  0  0  0  0  0  0
   38.1199   14.9973  -11.2682 C   0  0  0  0  0  0  0  0  0  0  0  0
   39.4207   15.1211  -10.9238 N   0  0  0  0  0  0  0  0  0  0  0  0
   39.5803   15.1486   -9.5961 C   0  0  0  0  0  0  0  0  0  0  0  0
   40.6695   15.2571   -8.7516 C   0  0  0  0  0  0  0  0  0  0  0  0
   40.5006   15.2544   -7.3855 C   0  0  0  0  0  0  0  0  0  0  0  0
   39.2283   15.1421   -6.8151 C   0  0  0  0  0  0  0  0  0  0  0  0
   38.1634   15.0357   -7.6807 C   0  0  0  0  0  0  0  0  0  0  0  0
   38.3193   15.0372   -9.0461 C   0  0  0  0  0  0  0  0  0  0  0  0
   37.4838   14.9242  -12.6157 C   0  0  0  0  0  0  0  0  0  0  0  0
   36.0575   14.9774  -12.5378 N   0  0  0  0  0  0  0  0  0  0  0  0
   40.2111   15.1881  -11.5980 H   0  0  0  0  0  0  0  0  0  0  0  0
   38.1007   13.9320  -13.4806 C   0  0  0  0  0  0  0  0  0  0  0  0
   37.7650   12.5957  -13.4443 C   0  0  0  0  0  0  0  0  0  0  0  0
   36.8411   12.1951  -12.5802 F   0  0  0  0  0  0  0  0  0  0  0  0
   38.3558   11.6600  -14.2749 C   0  0  0  0  0  0  0  0  0  0  0  0
   39.2926   12.0616  -15.1519 N   0  0  0  0  0  0  0  0  0  0  0  0
   39.6792   13.3438  -15.2533 C   0  0  0  0  0  0  0  0  0  0  0  0
   39.0772   14.2670  -14.4141 C   0  0  0  0  0  0  0  0  0  0  0  0
   39.4958   15.5532  -14.5461 F   0  0  0  0  0  0  0  0  0  0  0  0
   40.6367   13.6955  -16.1645 O   0  0  0  0  0  0  0  0  0  0  0  0
   41.7978   13.0011  -16.4969 C   0  0  0  0  0  0  0  0  0  0  0  0
   43.0139   13.3798  -15.7254 C   0  0  0  0  0  0  0  0  0  0  0  0
   44.1639   13.6222  -16.5794 N   0  0  0  0  0  0  0  0  0  0  0  0
   43.9327   13.7428  -17.5724 H   0  0  0  0  0  0  0  0  0  0  0  0
   45.2386   12.7000  -16.3549 C   0  0  0  0  0  0  0  0  0  0  0  0
   45.6740   12.6530  -14.9116 C   0  0  0  0  0  0  0  0  0  0  0  0
   47.1095   13.0382  -14.7062 C   0  0  0  0  0  0  0  0  0  0  0  0
   47.7707   12.2389  -13.8009 F   0  0  0  0  0  0  0  0  0  0  0  0
   35.3648   14.4908  -13.6197 C   0  0  0  0  0  0  0  0  0  0  0  0
   34.1348   13.7184  -13.6283 C   0  0  0  0  0  0  0  0  0  0  0  0
   33.7642   13.2225  -14.8779 F   0  0  0  0  0  0  0  0  0  0  0  0
   34.4000   12.4391  -12.9625 F   0  0  0  0  0  0  0  0  0  0  0  0
   32.9094   14.1676  -12.9255 C   0  0  0  0  0  0  0  0  0  0  0  0
   32.6942   15.4879  -12.7198 O   0  0  0  0  0  0  0  0  0  0  0  0
   32.1845   15.9111  -13.4494 H   0  0  0  0  0  0  0  0  0  0  0  0
  1  2  1  0  0  0
  2  3  1  0  0  0
  3  4  1  0  0  0
  4  5  2  0  0  0
  5  6  1  0  0  0
  6  7  1  0  0  0
  7  8  2  0  0  0
  8  9  1  0  0  0
  9 10  2  0  0  0
 10 11  1  0  0  0
 11 12  2  0  0  0
  5 13  1  0  0  0
 13 16  1  0  0  0
 16 17  2  0  0  0
 17 18  1  0  0  0
 17 19  1  0  0  0
 19 20  2  0  0  0
 20 21  1  0  0  0
 21 24  1  0  0  0
 24 25  1  0  0  0
 25 26  1  0  0  0
 26 27  1  0  0  0
 27 29  1  0  0  0
 29 30  1  0  0  0
 30 31  1  0  0  0
 31 32  1  0  0  0
 21 22  2  0  0  0
 22 23  1  0  0  0
 13 14  1  0  0  0
 14 33  1  0  0  0
 33 34  1  0  0  0
 34 35  1  0  0  0
 34 36  1  0  0  0
 34 37  1  0  0  0
 37 38  1  0  0  0
 14  2  1  0  0  0
 12  4  1  0  0  0
 22 16  1  0  0  0
 12  7  1  0  0  0
  6 15  1  0  0  0
 27 28  1  0  0  0
 38 39  1  0  0  0
M  END
> <minimizedAffinity>
-6.68980

> <CNNscore>
0.1646629870

> <CNNaffinity>
6.6351499557

> <CNN_VS>
1.0925636292

> <CNNaffinity_variance>
0.2167704403

$$$$
[H]OC([H])([H])C(F)(F)C([H])([H])N1[C@]([H])(c2c(F)c([H])nc(OC([H])([H])C([H])([H])N([H])C([H])([H])C([H])([H])C([H])([H])F)c2F)c2c(c3c([H])c([H])c([H])c([H])c3n2[H])C([H])([H])[C@@]1([H])C([H])([H])[H]


 39 42  0  0  0  0  0  0  0  0999 V2000
   45.3187   16.0412  -14.2399 C   0  0  0  0  0  0  0  0  0  0  0  0
   45.7006   14.9097  -13.3238 C   0  0  0  0  0  0  0  0  0  0  0  0
   45.0600   13.6815  -14.0347 C   0  0  0  0  0  0  0  0  0  0  0  0
   43.6071   13.8596  -13.8587 C   0  0  0  0  0  0  0  0  0  0  0  0
   43.1181   14.4954  -12.7466 C   0  0  0  0  0  0  0  0  0  0  0  0
   41.7741   14.4982  -12.8859 N   0  0  0  0  0  0  0  0  0  0  0  0
   41.3932   13.9008  -14.0204 C   0  0  0  0  0  0  0  0  0  0  0  0
   40.1744   13.6442  -14.6203 C   0  0  0  0  0  0  0  0  0  0  0  0
   40.1119   12.9876  -15.8285 C   0  0  0  0  0  0  0  0  0  0  0  0
   41.2742   12.5631  -16.4810 C   0  0  0  0  0  0  0  0  0  0  0  0
   42.4726   12.8327  -15.8598 C   0  0  0  0  0  0  0  0  0  0  0  0
   42.5478   13.4872  -14.6537 C   0  0  0  0  0  0  0  0  0  0  0  0
   43.9735   15.0412  -11.6529 C   0  0  0  0  0  0  0  0  0  0  0  0
   45.3631   14.9887  -11.9835 N   0  0  0  0  0  0  0  0  0  0  0  0
   41.1057   14.9109  -12.2027 H   0  0  0  0  0  0  0  0  0  0  0  0
   43.5516   14.6048  -10.3320 C   0  0  0  0  0  0  0  0  0  0  0  0
   43.6062   13.2888   -9.9262 C   0  0  0  0  0  0  0  0  0  0  0  0
   44.0600   12.3785  -10.7784 F   0  0  0  0  0  0  0  0  0  0  0  0
   43.2056   12.8846   -8.6650 C   0  0  0  0  0  0  0  0  0  0  0  0
   42.7450   13.8037   -7.7983 N   0  0  0  0  0  0  0  0  0  0  0  0
   42.6583   15.1068   -8.1116 C   0  0  0  0  0  0  0  0  0  0  0  0
   43.0637   15.4936   -9.3784 C   0  0  0  0  0  0  0  0  0  0  0  0
   42.9598   16.8196   -9.6578 F   0  0  0  0  0  0  0  0  0  0  0  0
   42.1824   15.9979   -7.1895 O   0  0  0  0  0  0  0  0  0  0  0  0
   40.8570   16.2309   -6.8294 C   0  0  0  0  0  0  0  0  0  0  0  0
   40.6435   17.3297   -5.8473 C   0  0  0  0  0  0  0  0  0  0  0  0
   41.8520   17.6660   -5.1143 N   0  0  0  0  0  0  0  0  0  0  0  0
   41.8499   17.3575   -4.1352 H   0  0  0  0  0  0  0  0  0  0  0  0
   42.2493   19.0340   -5.2775 C   0  0  0  0  0  0  0  0  0  0  0  0
   43.1961   19.4983   -4.1990 C   0  0  0  0  0  0  0  0  0  0  0  0
   43.7339   20.8801   -4.4283 C   0  0  0  0  0  0  0  0  0  0  0  0
   44.4238   21.0137   -5.6123 F   0  0  0  0  0  0  0  0  0  0  0  0
   46.2468   15.0425  -10.9331 C   0  0  0  0  0  0  0  0  0  0  0  0
   47.2253   14.0487  -10.5274 C   0  0  0  0  0  0  0  0  0  0  0  0
   47.0917   13.5981   -9.2145 F   0  0  0  0  0  0  0  0  0  0  0  0
   46.9067   12.7938  -11.2159 F   0  0  0  0  0  0  0  0  0  0  0  0
   48.6706   14.1890  -10.8250 C   0  0  0  0  0  0  0  0  0  0  0  0
   49.1285   13.9550  -12.0770 O   0  0  0  0  0  0  0  0  0  0  0  0
   49.1433   14.7657  -12.6371 H   0  0  0  0  0  0  0  0  0  0  0  0
  1  2  1  0  0  0
  2  3  1  0  0  0
  3  4  1  0  0  0
  4  5  2  0  0  0
  5  6  1  0  0  0
  6  7  1  0  0  0
  7  8  2  0  0  0
  8  9  1  0  0  0
  9 10  2  0  0  0
 10 11  1  0  0  0
 11 12  2  0  0  0
  5 13  1  0  0  0
 13 16  1  0  0  0
 16 17  2  0  0  0
 17 18  1  0  0  0
 17 19  1  0  0  0
 19 20  2  0  0  0
 20 21  1  0  0  0
 21 24  1  0  0  0
 24 25  1  0  0  0
 25 26  1  0  0  0
 26 27  1  0  0  0
 27 29  1  0  0  0
 29 30  1  0  0  0
 30 31  1  0  0  0
 31 32  1  0  0  0
 21 22  2  0  0  0
 22 23  1  0  0  0
 13 14  1  0  0  0
 14 33  1  0  0  0
 33 34  1  0  0  0
 34 35  1  0  0  0
 34 36  1  0  0  0
 34 37  1  0  0  0
 37 38  1  0  0  0
 14  2  1  0  0  0
 12  4  1  0  0  0
 22 16  1  0  0  0
 12  7  1  0  0  0
  6 15  1  0  0  0
 27 28  1  0  0  0
 38 39  1  0  0  0
M  END
> <minimizedAffinity>
-5.23465

> <CNNscore>
0.1461820304

> <CNNaffinity>
5.9122800827

> <CNN_VS>
0.8642690778

> <CNNaffinity_variance>
0.0969130471

$$$$
[H]OC([H])([H])C(F)(F)C([H])([H])N1[C@]([H])(c2c(F)c([H])nc(OC([H])([H])C([H])([H])N([H])C([H])([H])C([H])([H])C([H])([H])F)c2F)c2c(c3c([H])c([H])c([H])c([H])c3n2[H])C([H])([H])[C@@]1([H])C([H])([H])[H]


 39 42  0  0  0  0  0  0  0  0999 V2000
   35.7416   16.8863  -11.5373 C   0  0  0  0  0  0  0  0  0  0  0  0
   35.5164   15.4283  -11.8353 C   0  0  0  0  0  0  0  0  0  0  0  0
   35.9189   14.7528  -10.4915 C   0  0  0  0  0  0  0  0  0  0  0  0
   37.3817   14.9184  -10.4097 C   0  0  0  0  0  0  0  0  0  0  0  0
   38.1380   14.9580  -11.5527 C   0  0  0  0  0  0  0  0  0  0  0  0
   39.4155   15.1187  -11.1428 N   0  0  0  0  0  0  0  0  0  0  0  0
   39.5028   15.1816   -9.8095 C   0  0  0  0  0  0  0  0  0  0  0  0
   40.5426   15.3345   -8.9112 C   0  0  0  0  0  0  0  0  0  0  0  0
   40.3005   15.3610   -7.5565 C   0  0  0  0  0  0  0  0  0  0  0  0
   39.0019   15.2346   -7.0520 C   0  0  0  0  0  0  0  0  0  0  0  0
   37.9876   15.0839   -7.9701 C   0  0  0  0  0  0  0  0  0  0  0  0
   38.2166   15.0558   -9.3249 C   0  0  0  0  0  0  0  0  0  0  0  0
   37.5770   14.8384  -12.9299 C   0  0  0  0  0  0  0  0  0  0  0  0
   36.1478   14.8620  -12.9295 N   0  0  0  0  0  0  0  0  0  0  0  0
   40.2395   15.1868  -11.7753 H   0  0  0  0  0  0  0  0  0  0  0  0
   38.2599   13.8394  -13.7354 C   0  0  0  0  0  0  0  0  0  0  0  0
   37.9637   12.4950  -13.6690 C   0  0  0  0  0  0  0  0  0  0  0  0
   37.0165   12.0927  -12.8314 F   0  0  0  0  0  0  0  0  0  0  0  0
   38.6175   11.5528  -14.4432 C   0  0  0  0  0  0  0  0  0  0  0  0
   39.5780   11.9559  -15.2934 N   0  0  0  0  0  0  0  0  0  0  0  0
   39.9294   13.2459  -15.4208 C   0  0  0  0  0  0  0  0  0  0  0  0
   39.2646   14.1756  -14.6382 C   0  0  0  0  0  0  0  0  0  0  0  0
   39.6491   15.4696  -14.7949 F   0  0  0  0  0  0  0  0  0  0  0  0
   40.9137   13.5988  -16.3026 O   0  0  0  0  0  0  0  0  0  0  0  0
   42.1101   12.9337  -16.5606 C   0  0  0  0  0  0  0  0  0  0  0  0
   43.1722   13.1024  -15.5305 C   0  0  0  0  0  0  0  0  0  0  0  0
   42.6301   13.3226  -14.2007 N   0  0  0  0  0  0  0  0  0  0  0  0
   41.6765   13.7027  -14.1926 H   0  0  0  0  0  0  0  0  0  0  0  0
   43.5292   14.0269  -13.3338 C   0  0  0  0  0  0  0  0  0  0  0  0
   42.8108   14.8501  -12.2939 C   0  0  0  0  0  0  0  0  0  0  0  0
   42.7848   16.3177  -12.6048 C   0  0  0  0  0  0  0  0  0  0  0  0
   41.5199   16.8613  -12.5935 F   0  0  0  0  0  0  0  0  0  0  0  0
   35.5244   14.3343  -14.0341 C   0  0  0  0  0  0  0  0  0  0  0  0
   34.4944   13.3116  -14.0844 C   0  0  0  0  0  0  0  0  0  0  0  0
   34.1555   12.7614  -12.8486 F   0  0  0  0  0  0  0  0  0  0  0  0
   33.2181   13.9701  -14.3806 F   0  0  0  0  0  0  0  0  0  0  0  0
   34.5042   12.2227  -15.0900 C   0  0  0  0  0  0  0  0  0  0  0  0
   33.3503   11.5964  -15.4189 O   0  0  0  0  0  0  0  0  0  0  0  0
   32.8890   12.0186  -16.1806 H   0  0  0  0  0  0  0  0  0  0  0  0
  1  2  1  0  0  0
  2  3  1  0  0  0
  3  4  1  0  0  0
  4  5  2  0  0  0
  5  6  1  0  0  0
  6  7  1  0  0  0
  7  8  2  0  0  0
  8  9  1  0  0  0
  9 10  2  0  0  0
 10 11  1  0  0  0
 11 12  2  0  0  0
  5 13  1  0  0  0
 13 16  1  0  0  0
 16 17  2  0  0  0
 17 18  1  0  0  0
 17 19  1  0  0  0
 19 20  2  0  0  0
 20 21  1  0  0  0
 21 24  1  0  0  0
 24 25  1  0  0  0
 25 26  1  0  0  0
 26 27  1  0  0  0
 27 29  1  0  0  0
 29 30  1  0  0  0
 30 31  1  0  0  0
 31 32  1  0  0  0
 21 22  2  0  0  0
 22 23  1  0  0  0
 13 14  1  0  0  0
 14 33  1  0  0  0
 33 34  1  0  0  0
 34 35  1  0  0  0
 34 36  1  0  0  0
 34 37  1  0  0  0
 37 38  1  0  0  0
 14  2  1  0  0  0
 12  4  1  0  0  0
 22 16  1  0  0  0
 12  7  1  0  0  0
  6 15  1  0  0  0
 27 28  1  0  0  0
 38 39  1  0  0  0
M  END
> <minimizedAffinity>
-6.20488

> <CNNscore>
0.1459761709

> <CNNaffinity>
6.7093935013

> <CNN_VS>
0.9794116020

> <CNNaffinity_variance>
0.2260937244

$$$$
[H]OC([H])([H])C(F)(F)C([H])([H])N1[C@]([H])(c2c(F)c([H])nc(OC([H])([H])C([H])([H])N([H])C([H])([H])C([H])([H])C([H])([H])F)c2F)c2c(c3c([H])c([H])c([H])c([H])c3n2[H])C([H])([H])[C@@]1([H])C([H])([H])[H]


 39 42  0  0  0  0  0  0  0  0999 V2000
   45.4467   15.6976  -14.5441 C   0  0  0  0  0  0  0  0  0  0  0  0
   45.7491   14.5826  -13.5794 C   0  0  0  0  0  0  0  0  0  0  0  0
   45.0201   13.3738  -14.2363 C   0  0  0  0  0  0  0  0  0  0  0  0
   43.5841   13.6631  -14.0688 C   0  0  0  0  0  0  0  0  0  0  0  0
   43.1451   14.3802  -12.9857 C   0  0  0  0  0  0  0  0  0  0  0  0
   41.8043   14.4734  -13.1255 N   0  0  0  0  0  0  0  0  0  0  0  0
   41.3785   13.8561  -14.2331 C   0  0  0  0  0  0  0  0  0  0  0  0
   40.1428   13.6617  -14.8217 C   0  0  0  0  0  0  0  0  0  0  0  0
   40.0301   12.9594  -16.0001 C   0  0  0  0  0  0  0  0  0  0  0  0
   41.1572   12.4247  -16.6331 C   0  0  0  0  0  0  0  0  0  0  0  0
   42.3735   12.6343  -16.0238 C   0  0  0  0  0  0  0  0  0  0  0  0
   42.4987   13.3336  -14.8473 C   0  0  0  0  0  0  0  0  0  0  0  0
   44.0404   14.9103  -11.9165 C   0  0  0  0  0  0  0  0  0  0  0  0
   45.4218   14.7438  -12.2439 N   0  0  0  0  0  0  0  0  0  0  0  0
   41.1692   14.9623  -12.4613 H   0  0  0  0  0  0  0  0  0  0  0  0
   43.5919   14.5631  -10.5780 C   0  0  0  0  0  0  0  0  0  0  0  0
   43.6284   13.2756  -10.0874 C   0  0  0  0  0  0  0  0  0  0  0  0
   44.0895   12.3090  -10.8708 F   0  0  0  0  0  0  0  0  0  0  0  0
   43.2025   12.9567   -8.8101 C   0  0  0  0  0  0  0  0  0  0  0  0
   42.7345   13.9330   -8.0128 N   0  0  0  0  0  0  0  0  0  0  0  0
   42.6642   15.2137   -8.4110 C   0  0  0  0  0  0  0  0  0  0  0  0
   43.0948   15.5150   -9.6926 C   0  0  0  0  0  0  0  0  0  0  0  0
   43.0068   16.8209  -10.0587 F   0  0  0  0  0  0  0  0  0  0  0  0
   42.1797   16.1659   -7.5569 O   0  0  0  0  0  0  0  0  0  0  0  0
   42.7729   16.6550   -6.3952 C   0  0  0  0  0  0  0  0  0  0  0  0
   42.3457   15.9946   -5.1307 C   0  0  0  0  0  0  0  0  0  0  0  0
   43.1381   14.8170   -4.8205 N   0  0  0  0  0  0  0  0  0  0  0  0
   42.9522   14.4169   -3.8936 H   0  0  0  0  0  0  0  0  0  0  0  0
   44.5350   14.9877   -5.0954 C   0  0  0  0  0  0  0  0  0  0  0  0
   45.3865   14.9134   -3.8526 C   0  0  0  0  0  0  0  0  0  0  0  0
   45.8472   16.2541   -3.3611 C   0  0  0  0  0  0  0  0  0  0  0  0
   45.2173   17.3129   -3.9758 F   0  0  0  0  0  0  0  0  0  0  0  0
   46.3099   14.7797  -11.1965 C   0  0  0  0  0  0  0  0  0  0  0  0
   47.1408   15.8871  -10.7577 C   0  0  0  0  0  0  0  0  0  0  0  0
   48.0327   15.5784   -9.7310 F   0  0  0  0  0  0  0  0  0  0  0  0
   48.1203   16.1631  -11.8136 F   0  0  0  0  0  0  0  0  0  0  0  0
   46.5921   17.2406  -10.5041 C   0  0  0  0  0  0  0  0  0  0  0  0
   45.7303   17.7965  -11.3874 O   0  0  0  0  0  0  0  0  0  0  0  0
   44.7877   17.5983  -11.1793 H   0  0  0  0  0  0  0  0  0  0  0  0
  1  2  1  0  0  0
  2  3  1  0  0  0
  3  4  1  0  0  0
  4  5  2  0  0  0
  5  6  1  0  0  0
  6  7  1  0  0  0
  7  8  2  0  0  0
  8  9  1  0  0  0
  9 10  2  0  0  0
 10 11  1  0  0  0
 11 12  2  0  0  0
  5 13  1  0  0  0
 13 16  1  0  0  0
 16 17  2  0  0  0
 17 18  1  0  0  0
 17 19  1  0  0  0
 19 20  2  0  0  0
 20 21  1  0  0  0
 21 24  1  0  0  0
 24 25  1  0  0  0
 25 26  1  0  0  0
 26 27  1  0  0  0
 27 29  1  0  0  0
 29 30  1  0  0  0
 30 31  1  0  0  0
 31 32  1  0  0  0
 21 22  2  0  0  0
 22 23  1  0  0  0
 13 14  1  0  0  0
 14 33  1  0  0  0
 33 34  1  0  0  0
 34 35  1  0  0  0
 34 36  1  0  0  0
 34 37  1  0  0  0
 37 38  1  0  0  0
 14  2  1  0  0  0
 12  4  1  0  0  0
 22 16  1  0  0  0
 12  7  1  0  0  0
  6 15  1  0  0  0
 27 28  1  0  0  0
 38 39  1  0  0  0
M  END
> <minimizedAffinity>
-5.08018

> <CNNscore>
0.1442467570

> <CNNaffinity>
5.6899476051

> <CNN_VS>
0.8207564950

> <CNNaffinity_variance>
0.1109063402

$$$$
[H]OC([H])([H])C(F)(F)C([H])([H])N1[C@]([H])(c2c(F)c([H])nc(OC([H])([H])C([H])([H])N([H])C([H])([H])C([H])([H])C([H])([H])F)c2F)c2c(c3c([H])c([H])c([H])c([H])c3n2[H])C([H])([H])[C@@]1([H])C([H])([H])[H]


 39 42  0  0  0  0  0  0  0  0999 V2000
   45.5196   15.6159  -14.5599 C   0  0  0  0  0  0  0  0  0  0  0  0
   45.8035   14.4934  -13.5983 C   0  0  0  0  0  0  0  0  0  0  0  0
   44.9317   13.3393  -14.1747 C   0  0  0  0  0  0  0  0  0  0  0  0
   43.5406   13.7475  -13.9065 C   0  0  0  0  0  0  0  0  0  0  0  0
   43.2443   14.5132  -12.8083 C   0  0  0  0  0  0  0  0  0  0  0  0
   41.9086   14.7138  -12.8497 N   0  0  0  0  0  0  0  0  0  0  0  0
   41.3516   14.1180  -13.9098 C   0  0  0  0  0  0  0  0  0  0  0  0
   40.0632   14.0173  -14.4007 C   0  0  0  0  0  0  0  0  0  0  0  0
   39.8052   13.3103  -15.5531 C   0  0  0  0  0  0  0  0  0  0  0  0
   40.8342   12.6763  -16.2575 C   0  0  0  0  0  0  0  0  0  0  0  0
   42.1061   12.7941  -15.7448 C   0  0  0  0  0  0  0  0  0  0  0  0
   42.3762   13.4971  -14.5952 C   0  0  0  0  0  0  0  0  0  0  0  0
   44.2579   14.9830  -11.8196 C   0  0  0  0  0  0  0  0  0  0  0  0
   45.5925   14.6995  -12.2457 N   0  0  0  0  0  0  0  0  0  0  0  0
   41.3672   15.2623  -12.1499 H   0  0  0  0  0  0  0  0  0  0  0  0
   43.8858   14.6924  -10.4447 C   0  0  0  0  0  0  0  0  0  0  0  0
   43.6643   13.4123   -9.9844 C   0  0  0  0  0  0  0  0  0  0  0  0
   43.7924   12.4000  -10.8327 F   0  0  0  0  0  0  0  0  0  0  0  0
   43.3142   13.1464   -8.6724 C   0  0  0  0  0  0  0  0  0  0  0  0
   43.1832   14.1692   -7.8094 N   0  0  0  0  0  0  0  0  0  0  0  0
   43.3804   15.4466   -8.1741 C   0  0  0  0  0  0  0  0  0  0  0  0
   43.7303   15.6944   -9.4913 C   0  0  0  0  0  0  0  0  0  0  0  0
   43.9200   16.9990   -9.8216 F   0  0  0  0  0  0  0  0  0  0  0  0
   43.2338   16.4473   -7.2532 O   0  0  0  0  0  0  0  0  0  0  0  0
   44.2024   16.9769   -6.4035 C   0  0  0  0  0  0  0  0  0  0  0  0
   43.7241   18.0270   -5.4622 C   0  0  0  0  0  0  0  0  0  0  0  0
   42.5222   18.6936   -5.9334 N   0  0  0  0  0  0  0  0  0  0  0  0
   42.6864   19.6256   -6.3312 H   0  0  0  0  0  0  0  0  0  0  0  0
   41.4498   18.6634   -4.9821 C   0  0  0  0  0  0  0  0  0  0  0  0
   40.5079   17.5061   -5.2025 C   0  0  0  0  0  0  0  0  0  0  0  0
   39.2693   17.8785   -5.9631 C   0  0  0  0  0  0  0  0  0  0  0  0
   38.7252   19.0823   -5.5753 F   0  0  0  0  0  0  0  0  0  0  0  0
   46.5576   14.6771  -11.2683 C   0  0  0  0  0  0  0  0  0  0  0  0
   47.2335   13.5259  -10.6961 C   0  0  0  0  0  0  0  0  0  0  0  0
   46.9283   12.3075  -11.3020 F   0  0  0  0  0  0  0  0  0  0  0  0
   48.6492   13.6006  -11.0714 F   0  0  0  0  0  0  0  0  0  0  0  0
   47.3280   13.3059   -9.2333 C   0  0  0  0  0  0  0  0  0  0  0  0
   46.7686   14.1941   -8.3790 O   0  0  0  0  0  0  0  0  0  0  0  0
   45.8379   13.9680   -8.1466 H   0  0  0  0  0  0  0  0  0  0  0  0
  1  2  1  0  0  0
  2  3  1  0  0  0
  3  4  1  0  0  0
  4  5  2  0  0  0
  5  6  1  0  0  0
  6  7  1  0  0  0
  7  8  2  0  0  0
  8  9  1  0  0  0
  9 10  2  0  0  0
 10 11  1  0  0  0
 11 12  2  0  0  0
  5 13  1  0  0  0
 13 16  1  0  0  0
 16 17  2  0  0  0
 17 18  1  0  0  0
 17 19  1  0  0  0
 19 20  2  0  0  0
 20 21  1  0  0  0
 21 24  1  0  0  0
 24 25  1  0  0  0
 25 26  1  0  0  0
 26 27  1  0  0  0
 27 29  1  0  0  0
 29 30  1  0  0  0
 30 31  1  0  0  0
 31 32  1  0  0  0
 21 22  2  0  0  0
 22 23  1  0  0  0
 13 14  1  0  0  0
 14 33  1  0  0  0
 33 34  1  0  0  0
 34 35  1  0  0  0
 34 36  1  0  0  0
 34 37  1  0  0  0
 37 38  1  0  0  0
 14  2  1  0  0  0
 12  4  1  0  0  0
 22 16  1  0  0  0
 12  7  1  0  0  0
  6 15  1  0  0  0
 27 28  1  0  0  0
 38 39  1  0  0  0
M  END
> <minimizedAffinity>
-5.43202

> <CNNscore>
0.1387564391

> <CNNaffinity>
5.7188725471

> <CNN_VS>
0.7935304046

> <CNNaffinity_variance>
0.0802888647

$$$$
[H]OC([H])([H])C(F)(F)C([H])([H])N1[C@]([H])(c2c(F)c([H])nc(OC([H])([H])C([H])([H])N([H])C([H])([H])C([H])([H])C([H])([H])F)c2F)c2c(c3c([H])c([H])c([H])c([H])c3n2[H])C([H])([H])[C@@]1([H])C([H])([H])[H]


 39 42  0  0  0  0  0  0  0  0999 V2000
   47.5399   13.0033  -13.5862 C   0  0  0  0  0  0  0  0  0  0  0  0
   46.2727   12.4338  -13.0073 C   0  0  0  0  0  0  0  0  0  0  0  0
   45.2309   13.5401  -13.3463 C   0  0  0  0  0  0  0  0  0  0  0  0
   45.5887   14.6746  -12.4753 C   0  0  0  0  0  0  0  0  0  0  0  0
   46.1605   14.4513  -11.2491 C   0  0  0  0  0  0  0  0  0  0  0  0
   46.3653   15.6737  -10.7110 N   0  0  0  0  0  0  0  0  0  0  0  0
   45.9547   16.6492  -11.5289 C   0  0  0  0  0  0  0  0  0  0  0  0
   45.9373   18.0299  -11.4605 C   0  0  0  0  0  0  0  0  0  0  0  0
   45.4324   18.7772  -12.5004 C   0  0  0  0  0  0  0  0  0  0  0  0
   44.9248   18.1641  -13.6508 C   0  0  0  0  0  0  0  0  0  0  0  0
   44.9554   16.7885  -13.6901 C   0  0  0  0  0  0  0  0  0  0  0  0
   45.4568   16.0317  -12.6584 C   0  0  0  0  0  0  0  0  0  0  0  0
   46.4588   13.0962  -10.7010 C   0  0  0  0  0  0  0  0  0  0  0  0
   46.2503   12.0683  -11.6722 N   0  0  0  0  0  0  0  0  0  0  0  0
   46.7894   15.8493   -9.7766 H   0  0  0  0  0  0  0  0  0  0  0  0
   45.9429   12.9027   -9.3558 C   0  0  0  0  0  0  0  0  0  0  0  0
   46.7591   12.7009   -8.2636 C   0  0  0  0  0  0  0  0  0  0  0  0
   48.0731   12.6785   -8.4467 F   0  0  0  0  0  0  0  0  0  0  0  0
   46.2577   12.5216   -6.9865 C   0  0  0  0  0  0  0  0  0  0  0  0
   44.9268   12.5435   -6.7964 N   0  0  0  0  0  0  0  0  0  0  0  0
   44.0601   12.7340   -7.8045 C   0  0  0  0  0  0  0  0  0  0  0  0
   44.5795   12.9118   -9.0763 C   0  0  0  0  0  0  0  0  0  0  0  0
   43.6710   13.1004  -10.0694 F   0  0  0  0  0  0  0  0  0  0  0  0
   42.7158   12.7474   -7.5524 O   0  0  0  0  0  0  0  0  0  0  0  0
   41.9534   13.7902   -7.0308 C   0  0  0  0  0  0  0  0  0  0  0  0
   41.5538   14.8420   -8.0063 C   0  0  0  0  0  0  0  0  0  0  0  0
   42.5558   15.8849   -8.1445 N   0  0  0  0  0  0  0  0  0  0  0  0
   42.4146   16.6892   -7.5223 H   0  0  0  0  0  0  0  0  0  0  0  0
   42.7989   16.2576   -9.5075 C   0  0  0  0  0  0  0  0  0  0  0  0
   41.5890   16.0681  -10.3880 C   0  0  0  0  0  0  0  0  0  0  0  0
   41.9300   15.7544  -11.8151 C   0  0  0  0  0  0  0  0  0  0  0  0
   41.8665   16.8473  -12.6501 F   0  0  0  0  0  0  0  0  0  0  0  0
   46.0651   10.7956  -11.1894 C   0  0  0  0  0  0  0  0  0  0  0  0
   47.0707    9.7938  -10.8819 C   0  0  0  0  0  0  0  0  0  0  0  0
   46.9730    8.6189  -11.6268 F   0  0  0  0  0  0  0  0  0  0  0  0
   48.3563   10.2692  -11.4033 F   0  0  0  0  0  0  0  0  0  0  0  0
   47.4329    9.4323   -9.4907 C   0  0  0  0  0  0  0  0  0  0  0  0
   48.2740    8.3975   -9.2587 O   0  0  0  0  0  0  0  0  0  0  0  0
   49.2189    8.6742   -9.2159 H   0  0  0  0  0  0  0  0  0  0  0  0
  1  2  1  0  0  0
  2  3  1  0  0  0
  3  4  1  0  0  0
  4  5  2  0  0  0
  5  6  1  0  0  0
  6  7  1  0  0  0
  7  8  2  0  0  0
  8  9  1  0  0  0
  9 10  2  0  0  0
 10 11  1  0  0  0
 11 12  2  0  0  0
  5 13  1  0  0  0
 13 16  1  0  0  0
 16 17  2  0  0  0
 17 18  1  0  0  0
 17 19  1  0  0  0
 19 20  2  0  0  0
 20 21  1  0  0  0
 21 24  1  0  0  0
 24 25  1  0  0  0
 25 26  1  0  0  0
 26 27  1  0  0  0
 27 29  1  0  0  0
 29 30  1  0  0  0
 30 31  1  0  0  0
 31 32  1  0  0  0
 21 22  2  0  0  0
 22 23  1  0  0  0
 13 14  1  0  0  0
 14 33  1  0  0  0
 33 34  1  0  0  0
 34 35  1  0  0  0
 34 36  1  0  0  0
 34 37  1  0  0  0
 37 38  1  0  0  0
 14  2  1  0  0  0
 12  4  1  0  0  0
 22 16  1  0  0  0
 12  7  1  0  0  0
  6 15  1  0  0  0
 27 28  1  0  0  0
 38 39  1  0  0  0
M  END
> <minimizedAffinity>
-4.75032

> <CNNscore>
0.1297240704

> <CNNaffinity>
5.4973745346

> <CNN_VS>
0.7131417990

> <CNNaffinity_variance>
0.2389987260

$$$$
[H]OC([H])([H])C(F)(F)C([H])([H])N1[C@]([H])(c2c(F)c([H])nc(OC([H])([H])C([H])([H])N([H])C([H])([H])C([H])([H])C([H])([H])F)c2F)c2c(c3c([H])c([H])c([H])c([H])c3n2[H])C([H])([H])[C@@]1([H])C([H])([H])[H]


 39 42  0  0  0  0  0  0  0  0999 V2000
   45.4691   15.6364  -14.3639 C   0  0  0  0  0  0  0  0  0  0  0  0
   45.7201   14.5137  -13.3934 C   0  0  0  0  0  0  0  0  0  0  0  0
   44.9671   13.3267  -14.0630 C   0  0  0  0  0  0  0  0  0  0  0  0
   43.5377   13.6594  -13.9218 C   0  0  0  0  0  0  0  0  0  0  0  0
   43.1009   14.3905  -12.8471 C   0  0  0  0  0  0  0  0  0  0  0  0
   41.7663   14.5239  -13.0114 N   0  0  0  0  0  0  0  0  0  0  0  0
   41.3423   13.9186  -14.1263 C   0  0  0  0  0  0  0  0  0  0  0  0
   40.1122   13.7611  -14.7372 C   0  0  0  0  0  0  0  0  0  0  0  0
   39.9998   13.0614  -15.9172 C   0  0  0  0  0  0  0  0  0  0  0  0
   41.1215   12.4923  -16.5293 C   0  0  0  0  0  0  0  0  0  0  0  0
   42.3323   12.6657  -15.8980 C   0  0  0  0  0  0  0  0  0  0  0  0
   42.4572   13.3620  -14.7198 C   0  0  0  0  0  0  0  0  0  0  0  0
   43.9921   14.8943  -11.7620 C   0  0  0  0  0  0  0  0  0  0  0  0
   45.3736   14.6860  -12.0642 N   0  0  0  0  0  0  0  0  0  0  0  0
   41.1342   15.0324  -12.3590 H   0  0  0  0  0  0  0  0  0  0  0  0
   43.5092   14.5621  -10.4317 C   0  0  0  0  0  0  0  0  0  0  0  0
   43.5235   13.2786   -9.9297 C   0  0  0  0  0  0  0  0  0  0  0  0
   43.9952   12.3017  -10.6938 F   0  0  0  0  0  0  0  0  0  0  0  0
   43.0648   12.9739   -8.6603 C   0  0  0  0  0  0  0  0  0  0  0  0
   42.5859   13.9607   -7.8826 N   0  0  0  0  0  0  0  0  0  0  0  0
   42.5355   15.2385   -8.2930 C   0  0  0  0  0  0  0  0  0  0  0  0
   42.9989   15.5254   -9.5664 C   0  0  0  0  0  0  0  0  0  0  0  0
   42.9302   16.8288   -9.9453 F   0  0  0  0  0  0  0  0  0  0  0  0
   42.0385   16.2017   -7.4586 O   0  0  0  0  0  0  0  0  0  0  0  0
   40.7626   16.2788   -6.9048 C   0  0  0  0  0  0  0  0  0  0  0  0
   39.6394   15.9997   -7.8418 C   0  0  0  0  0  0  0  0  0  0  0  0
   39.5675   16.9604   -8.9292 N   0  0  0  0  0  0  0  0  0  0  0  0
   40.1083   17.8183   -8.7692 H   0  0  0  0  0  0  0  0  0  0  0  0
   38.2278   17.2091   -9.3756 C   0  0  0  0  0  0  0  0  0  0  0  0
   37.9777   18.6638   -9.6859 C   0  0  0  0  0  0  0  0  0  0  0  0
   37.7143   19.4994   -8.4679 C   0  0  0  0  0  0  0  0  0  0  0  0
   38.3354   20.7278   -8.4972 F   0  0  0  0  0  0  0  0  0  0  0  0
   46.2433   14.6961  -11.0008 C   0  0  0  0  0  0  0  0  0  0  0  0
   47.1144   13.6293  -10.5395 C   0  0  0  0  0  0  0  0  0  0  0  0
   46.8922   12.3911  -11.1414 F   0  0  0  0  0  0  0  0  0  0  0  0
   48.4586   13.8837  -11.0674 F   0  0  0  0  0  0  0  0  0  0  0  0
   47.4004   13.4021   -9.1030 C   0  0  0  0  0  0  0  0  0  0  0  0
   46.5130   13.8078   -8.1650 O   0  0  0  0  0  0  0  0  0  0  0  0
   45.8548   13.1117   -7.9340 H   0  0  0  0  0  0  0  0  0  0  0  0
  1  2  1  0  0  0
  2  3  1  0  0  0
  3  4  1  0  0  0
  4  5  2  0  0  0
  5  6  1  0  0  0
  6  7  1  0  0  0
  7  8  2  0  0  0
  8  9  1  0  0  0
  9 10  2  0  0  0
 10 11  1  0  0  0
 11 12  2  0  0  0
  5 13  1  0  0  0
 13 16  1  0  0  0
 16 17  2  0  0  0
 17 18  1  0  0  0
 17 19  1  0  0  0
 19 20  2  0  0  0
 20 21  1  0  0  0
 21 24  1  0  0  0
 24 25  1  0  0  0
 25 26  1  0  0  0
 26 27  1  0  0  0
 27 29  1  0  0  0
 29 30  1  0  0  0
 30 31  1  0  0  0
 31 32  1  0  0  0
 21 22  2  0  0  0
 22 23  1  0  0  0
 13 14  1  0  0  0
 14 33  1  0  0  0
 33 34  1  0  0  0
 34 35  1  0  0  0
 34 36  1  0  0  0
 34 37  1  0  0  0
 37 38  1  0  0  0
 14  2  1  0  0  0
 12  4  1  0  0  0
 22 16  1  0  0  0
 12  7  1  0  0  0
  6 15  1  0  0  0
 27 28  1  0  0  0
 38 39  1  0  0  0
M  END
> <minimizedAffinity>
-6.09402

> <CNNscore>
0.1212890446

> <CNNaffinity>
5.6936821938

> <CNN_VS>
0.6905812621

> <CNNaffinity_variance>
0.2667620182

$$$$
[H]OC([H])([H])C(F)(F)C([H])([H])N1[C@]([H])(c2c(F)c([H])nc(OC([H])([H])C([H])([H])N([H])C([H])([H])C([H])([H])C([H])([H])F)c2F)c2c(c3c([H])c([H])c([H])c([H])c3n2[H])C([H])([H])[C@@]1([H])C([H])([H])[H]


 39 42  0  0  0  0  0  0  0  0999 V2000
   45.2977   16.1574  -14.2047 C   0  0  0  0  0  0  0  0  0  0  0  0
   45.7043   15.0329  -13.2907 C   0  0  0  0  0  0  0  0  0  0  0  0
   45.1203   13.7884  -14.0216 C   0  0  0  0  0  0  0  0  0  0  0  0
   43.6591   13.9131  -13.8695 C   0  0  0  0  0  0  0  0  0  0  0  0
   43.1289   14.5221  -12.7613 C   0  0  0  0  0  0  0  0  0  0  0  0
   41.7882   14.4781  -12.9238 N   0  0  0  0  0  0  0  0  0  0  0  0
   41.4483   13.8766  -14.0691 C   0  0  0  0  0  0  0  0  0  0  0  0
   40.2498   13.5816  -14.6919 C   0  0  0  0  0  0  0  0  0  0  0  0
   40.2314   12.9330  -15.9058 C   0  0  0  0  0  0  0  0  0  0  0  0
   41.4191   12.5556  -16.5413 C   0  0  0  0  0  0  0  0  0  0  0  0
   42.5963   12.8627  -15.8975 C   0  0  0  0  0  0  0  0  0  0  0  0
   42.6275   13.5097  -14.6855 C   0  0  0  0  0  0  0  0  0  0  0  0
   43.9454   15.0892  -11.6489 C   0  0  0  0  0  0  0  0  0  0  0  0
   45.3415   15.0890  -11.9558 N   0  0  0  0  0  0  0  0  0  0  0  0
   41.0940   14.8611  -12.2492 H   0  0  0  0  0  0  0  0  0  0  0  0
   43.5171   14.6274  -10.3388 C   0  0  0  0  0  0  0  0  0  0  0  0
   43.5910   13.3071   -9.9501 C   0  0  0  0  0  0  0  0  0  0  0  0
   44.0706   12.4168  -10.8092 F   0  0  0  0  0  0  0  0  0  0  0  0
   43.1840   12.8787   -8.6990 C   0  0  0  0  0  0  0  0  0  0  0  0
   42.6973   13.7774   -7.8253 N   0  0  0  0  0  0  0  0  0  0  0  0
   42.5905   15.0829   -8.1221 C   0  0  0  0  0  0  0  0  0  0  0  0
   43.0026   15.4941   -9.3790 C   0  0  0  0  0  0  0  0  0  0  0  0
   42.8778   16.8217   -9.6417 F   0  0  0  0  0  0  0  0  0  0  0  0
   42.0884   15.9527   -7.1935 O   0  0  0  0  0  0  0  0  0  0  0  0
   42.7654   16.9615   -6.5119 C   0  0  0  0  0  0  0  0  0  0  0  0
   43.9628   16.5230   -5.7426 C   0  0  0  0  0  0  0  0  0  0  0  0
   45.2056   16.7803   -6.4496 N   0  0  0  0  0  0  0  0  0  0  0  0
   46.0494   16.6403   -5.8820 H   0  0  0  0  0  0  0  0  0  0  0  0
   45.2020   18.0235   -7.1640 C   0  0  0  0  0  0  0  0  0  0  0  0
   45.8508   17.9173   -8.5215 C   0  0  0  0  0  0  0  0  0  0  0  0
   47.3340   18.1422   -8.4958 C   0  0  0  0  0  0  0  0  0  0  0  0
   48.0682   17.0096   -8.7678 F   0  0  0  0  0  0  0  0  0  0  0  0
   46.2047   15.1658  -10.8899 C   0  0  0  0  0  0  0  0  0  0  0  0
   47.0749   14.1310  -10.3594 C   0  0  0  0  0  0  0  0  0  0  0  0
   47.0276   12.9181  -11.0458 F   0  0  0  0  0  0  0  0  0  0  0  0
   48.4589   14.4993  -10.6746 F   0  0  0  0  0  0  0  0  0  0  0  0
   47.1708   13.8399   -8.9091 C   0  0  0  0  0  0  0  0  0  0  0  0
   46.3179   14.4348   -8.0428 O   0  0  0  0  0  0  0  0  0  0  0  0
   45.5005   13.9069   -7.8867 H   0  0  0  0  0  0  0  0  0  0  0  0
  1  2  1  0  0  0
  2  3  1  0  0  0
  3  4  1  0  0  0
  4  5  2  0  0  0
  5  6  1  0  0  0
  6  7  1  0  0  0
  7  8  2  0  0  0
  8  9  1  0  0  0
  9 10  2  0  0  0
 10 11  1  0  0  0
 11 12  2  0  0  0
  5 13  1  0  0  0
 13 16  1  0  0  0
 16 17  2  0  0  0
 17 18  1  0  0  0
 17 19  1  0  0  0
 19 20  2  0  0  0
 20 21  1  0  0  0
 21 24  1  0  0  0
 24 25  1  0  0  0
 25 26  1  0  0  0
 26 27  1  0  0  0
 27 29  1  0  0  0
 29 30  1  0  0  0
 30 31  1  0  0  0
 31 32  1  0  0  0
 21 22  2  0  0  0
 22 23  1  0  0  0
 13 14  1  0  0  0
 14 33  1  0  0  0
 33 34  1  0  0  0
 34 35  1  0  0  0
 34 36  1  0  0  0
 34 37  1  0  0  0
 37 38  1  0  0  0
 14  2  1  0  0  0
 12  4  1  0  0  0
 22 16  1  0  0  0
 12  7  1  0  0  0
  6 15  1  0  0  0
 27 28  1  0  0  0
 38 39  1  0  0  0
M  END
> <minimizedAffinity>
-4.92600

> <CNNscore>
0.1170359328

> <CNNaffinity>
5.6010475159

> <CNN_VS>
0.6555238366

> <CNNaffinity_variance>
0.1801097542

$$$$
[H]OC([H])([H])C(F)(F)C([H])([H])N1[C@]([H])(c2c(F)c([H])nc(OC([H])([H])C([H])([H])N([H])C([H])([H])C([H])([H])C([H])([H])F)c2F)c2c(c3c([H])c([H])c([H])c([H])c3n2[H])C([H])([H])[C@@]1([H])C([H])([H])[H]


 39 42  0  0  0  0  0  0  0  0999 V2000
   45.6195   16.0119  -14.6168 C   0  0  0  0  0  0  0  0  0  0  0  0
   46.1534   14.8009  -13.9000 C   0  0  0  0  0  0  0  0  0  0  0  0
   45.3932   13.6400  -14.6061 C   0  0  0  0  0  0  0  0  0  0  0  0
   43.9947   13.7790  -14.1601 C   0  0  0  0  0  0  0  0  0  0  0  0
   43.7121   14.2947  -12.9215 C   0  0  0  0  0  0  0  0  0  0  0  0
   42.3645   14.2920  -12.8210 N   0  0  0  0  0  0  0  0  0  0  0  0
   41.7873   13.8044  -13.9247 C   0  0  0  0  0  0  0  0  0  0  0  0
   40.4808   13.5909  -14.3232 C   0  0  0  0  0  0  0  0  0  0  0  0
   40.2037   13.0563  -15.5609 C   0  0  0  0  0  0  0  0  0  0  0  0
   41.2311   12.7152  -16.4470 C   0  0  0  0  0  0  0  0  0  0  0  0
   42.5212   12.9391  -16.0227 C   0  0  0  0  0  0  0  0  0  0  0  0
   42.8104   13.4721  -14.7894 C   0  0  0  0  0  0  0  0  0  0  0  0
   44.7489   14.7418  -11.9465 C   0  0  0  0  0  0  0  0  0  0  0  0
   46.0582   14.7422  -12.5201 N   0  0  0  0  0  0  0  0  0  0  0  0
   41.8288   14.6255  -11.9931 H   0  0  0  0  0  0  0  0  0  0  0  0
   44.5655   14.1708  -10.6222 C   0  0  0  0  0  0  0  0  0  0  0  0
   44.7366   12.8294  -10.3558 C   0  0  0  0  0  0  0  0  0  0  0  0
   45.0803   12.0219  -11.3510 F   0  0  0  0  0  0  0  0  0  0  0  0
   44.5631   12.2969   -9.0906 C   0  0  0  0  0  0  0  0  0  0  0  0
   44.2147   13.1116   -8.0792 N   0  0  0  0  0  0  0  0  0  0  0  0
   44.0275   14.4304   -8.2509 C   0  0  0  0  0  0  0  0  0  0  0  0
   44.2055   14.9464   -9.5240 C   0  0  0  0  0  0  0  0  0  0  0  0
   44.0059   16.2841   -9.6574 F   0  0  0  0  0  0  0  0  0  0  0  0
   43.6742   15.2116   -7.1853 O   0  0  0  0  0  0  0  0  0  0  0  0
   43.1891   14.8000   -5.9460 C   0  0  0  0  0  0  0  0  0  0  0  0
   41.7623   14.3739   -5.9257 C   0  0  0  0  0  0  0  0  0  0  0  0
   41.5906   12.9801   -6.2978 N   0  0  0  0  0  0  0  0  0  0  0  0
   40.9953   12.8347   -7.1215 H   0  0  0  0  0  0  0  0  0  0  0  0
   41.2425   12.1386   -5.1904 C   0  0  0  0  0  0  0  0  0  0  0  0
   42.3599   11.2065   -4.7930 C   0  0  0  0  0  0  0  0  0  0  0  0
   43.0284   10.5413   -5.9599 C   0  0  0  0  0  0  0  0  0  0  0  0
   43.5150    9.2854   -5.6741 F   0  0  0  0  0  0  0  0  0  0  0  0
   47.1137   14.7044  -11.6417 C   0  0  0  0  0  0  0  0  0  0  0  0
   48.4733   14.2559  -11.8861 C   0  0  0  0  0  0  0  0  0  0  0  0
   49.2138   15.0720  -12.7407 F   0  0  0  0  0  0  0  0  0  0  0  0
   49.2481   14.4739  -10.6603 F   0  0  0  0  0  0  0  0  0  0  0  0
   48.8008   12.8434  -12.1940 C   0  0  0  0  0  0  0  0  0  0  0  0
   47.8329   12.0058  -12.6339 O   0  0  0  0  0  0  0  0  0  0  0  0
   47.7583   11.9892  -13.6164 H   0  0  0  0  0  0  0  0  0  0  0  0
  1  2  1  0  0  0
  2  3  1  0  0  0
  3  4  1  0  0  0
  4  5  2  0  0  0
  5  6  1  0  0  0
  6  7  1  0  0  0
  7  8  2  0  0  0
  8  9  1  0  0  0
  9 10  2  0  0  0
 10 11  1  0  0  0
 11 12  2  0  0  0
  5 13  1  0  0  0
 13 16  1  0  0  0
 16 17  2  0  0  0
 17 18  1  0  0  0
 17 19  1  0  0  0
 19 20  2  0  0  0
 20 21  1  0  0  0
 21 24  1  0  0  0
 24 25  1  0  0  0
 25 26  1  0  0  0
 26 27  1  0  0  0
 27 29  1  0  0  0
 29 30  1  0  0  0
 30 31  1  0  0  0
 31 32  1  0  0  0
 21 22  2  0  0  0
 22 23  1  0  0  0
 13 14  1  0  0  0
 14 33  1  0  0  0
 33 34  1  0  0  0
 34 35  1  0  0  0
 34 36  1  0  0  0
 34 37  1  0  0  0
 37 38  1  0  0  0
 14  2  1  0  0  0
 12  4  1  0  0  0
 22 16  1  0  0  0
 12  7  1  0  0  0
  6 15  1  0  0  0
 27 28  1  0  0  0
 38 39  1  0  0  0
M  END
> <minimizedAffinity>
-5.31857

> <CNNscore>
0.1155619249

> <CNNaffinity>
5.7501416206

> <CNN_VS>
0.6644974351

> <CNNaffinity_variance>
0.1557389796

$$$$
[H]c1c([H])c(C([H])(C(=O)N([H])C([H])([H])c2c([H])c([H])c(C(F)(F)F)c([H])c2C2([H])C([H])([H])C([H])([H])C([H])([H])C([H])([H])C2([H])[H])C([H])([H])[H])c([H])c(F)c1N([H])S(=O)(=O)C([H])([H])[H]


 36 38  0  0  0  0  0  0  0  0999 V2000
   40.8723   13.8032  -16.3366 C   0  0  0  0  0  0  0  0  0  0  0  0
   40.5561   14.3197  -17.2485 O   0  0  0  0  0  0  0  0  0  0  0  0
   41.3598   13.8152  -15.0242 N   0  0  0  0  0  0  0  0  0  0  0  0
   41.3181   15.2178  -15.0225 H   0  0  0  0  0  0  0  0  0  0  0  0
   41.6056   11.9677  -17.5438 C   0  0  0  0  0  0  0  0  0  0  0  0
   40.7683   12.1422  -16.2548 C   0  0  0  0  0  0  0  0  0  0  0  0
   39.4267   11.7448  -16.4901 C   0  0  0  0  0  0  0  0  0  0  0  0
   38.4126   12.0006  -15.6585 C   0  0  0  0  0  0  0  0  0  0  0  0
   37.1351   11.7499  -15.9241 C   0  0  0  0  0  0  0  0  0  0  0  0
   36.8066   11.1257  -17.1961 C   0  0  0  0  0  0  0  0  0  0  0  0
   37.8026   10.8604  -18.0016 C   0  0  0  0  0  0  0  0  0  0  0  0
   37.4923   10.1485  -19.1698 F   0  0  0  0  0  0  0  0  0  0  0  0
   39.1343   11.1314  -17.7703 C   0  0  0  0  0  0  0  0  0  0  0  0
   35.4141   11.2027  -17.3916 N   0  0  0  0  0  0  0  0  0  0  0  0
   35.2082   11.8717  -18.2889 H   0  0  0  0  0  0  0  0  0  0  0  0
   34.0914   10.4891  -16.7191 S   0  0  0  0  0  0  0  0  0  0  0  0
   33.6040   11.3339  -15.2115 C   0  0  0  0  0  0  0  0  0  0  0  0
   34.2522    9.0258  -16.5926 O   0  0  0  0  0  0  0  0  0  0  0  0
   32.8980   10.7660  -17.6913 O   0  0  0  0  0  0  0  0  0  0  0  0
   41.7955   13.8337  -13.8527 C   0  0  0  0  0  0  0  0  0  0  0  0
   42.7301   14.7531  -13.1544 C   0  0  0  0  0  0  0  0  0  0  0  0
   42.4360   15.8593  -12.4008 C   0  0  0  0  0  0  0  0  0  0  0  0
   43.3878   16.9080  -12.2003 C   0  0  0  0  0  0  0  0  0  0  0  0
   44.5648   16.7591  -12.7754 C   0  0  0  0  0  0  0  0  0  0  0  0
   44.8859   15.6550  -13.5537 C   0  0  0  0  0  0  0  0  0  0  0  0
   44.0198   14.6807  -13.7416 C   0  0  0  0  0  0  0  0  0  0  0  0
   44.2353   13.3270  -14.3500 C   0  0  0  0  0  0  0  0  0  0  0  0
   45.2565   12.5389  -13.5003 C   0  0  0  0  0  0  0  0  0  0  0  0
   46.6215   13.0538  -13.4610 C   0  0  0  0  0  0  0  0  0  0  0  0
   47.1862   13.2440  -14.8486 C   0  0  0  0  0  0  0  0  0  0  0  0
   46.1873   12.8417  -15.9039 C   0  0  0  0  0  0  0  0  0  0  0  0
   44.8183   13.4178  -15.7471 C   0  0  0  0  0  0  0  0  0  0  0  0
   45.5270   17.9642  -12.8987 C   0  0  0  0  0  0  0  0  0  0  0  0
   45.1596   18.9300  -13.6660 F   0  0  0  0  0  0  0  0  0  0  0  0
   46.7673   17.4376  -13.1824 F   0  0  0  0  0  0  0  0  0  0  0  0
   45.6652   18.4419  -11.5581 F   0  0  0  0  0  0  0  0  0  0  0  0
  5  6  1  0  0  0
  6  1  1  0  0  0
  1  2  2  0  0  0
  1  3  1  0  0  0
  3 20  1  0  0  0
 20 21  1  0  0  0
 21 22  2  0  0  0
 22 23  1  0  0  0
 23 24  2  0  0  0
 24 33  1  0  0  0
 33 34  1  0  0  0
 33 35  1  0  0  0
 33 36  1  0  0  0
 24 25  1  0  0  0
 25 26  2  0  0  0
 26 27  1  0  0  0
 27 28  1  0  0  0
 28 29  1  0  0  0
 29 30  1  0  0  0
 30 31  1  0  0  0
 31 32  1  0  0  0
  6  7  1  0  0  0
  7  8  2  0  0  0
  8  9  1  0  0  0
  9 10  2  0  0  0
 10 14  1  0  0  0
 14 16  1  0  0  0
 16 17  1  0  0  0
 16 18  2  0  0  0
 16 19  2  0  0  0
 10 11  1  0  0  0
 11 12  1  0  0  0
 11 13  2  0  0  0
 26 21  1  0  0  0
 32 27  1  0  0  0
 13  7  1  0  0  0
  3  4  1  0  0  0
 14 15  1  0  0  0
M  END
> <minimizedAffinity>
-8.24520

> <CNNscore>
0.2956169546

> <CNNaffinity>
6.8798050880

> <CNN_VS>
2.0337870121

> <CNNaffinity_variance>
0.1227613464

$$$$
[H]c1c([H])c(C([H])(C(=O)N([H])C([H])([H])c2c([H])c([H])c(C(F)(F)F)c([H])c2C2([H])C([H])([H])C([H])([H])C([H])([H])C([H])([H])C2([H])[H])C([H])([H])[H])c([H])c(F)c1N([H])S(=O)(=O)C([H])([H])[H]


 36 38  0  0  0  0  0  0  0  0999 V2000
   40.5985   12.9327  -17.0287 C   0  0  0  0  0  0  0  0  0  0  0  0
   40.2152   13.3065  -17.9835 O   0  0  0  0  0  0  0  0  0  0  0  0
   41.5605   12.9196  -16.0116 N   0  0  0  0  0  0  0  0  0  0  0  0
   42.2494   13.9615  -16.6511 H   0  0  0  0  0  0  0  0  0  0  0  0
   39.0710   11.2441  -17.4531 C   0  0  0  0  0  0  0  0  0  0  0  0
   39.7098   11.8177  -16.1663 C   0  0  0  0  0  0  0  0  0  0  0  0
   38.7281   12.4950  -15.3976 C   0  0  0  0  0  0  0  0  0  0  0  0
   39.0084   13.3563  -14.4153 C   0  0  0  0  0  0  0  0  0  0  0  0
   38.1069   14.0932  -13.7754 C   0  0  0  0  0  0  0  0  0  0  0  0
   36.7076   13.9391  -14.1411 C   0  0  0  0  0  0  0  0  0  0  0  0
   36.4335   13.0827  -15.0912 C   0  0  0  0  0  0  0  0  0  0  0  0
   35.0753   12.8493  -15.3530 F   0  0  0  0  0  0  0  0  0  0  0  0
   37.3446   12.3233  -15.7939 C   0  0  0  0  0  0  0  0  0  0  0  0
   35.9690   14.9857  -13.5560 N   0  0  0  0  0  0  0  0  0  0  0  0
   35.4252   15.5530  -14.3790 H   0  0  0  0  0  0  0  0  0  0  0  0
   35.6423   15.4774  -12.0189 S   0  0  0  0  0  0  0  0  0  0  0  0
   33.8795   15.4081  -11.6846 C   0  0  0  0  0  0  0  0  0  0  0  0
   36.2902   16.7657  -11.6969 O   0  0  0  0  0  0  0  0  0  0  0  0
   36.2339   14.3838  -11.0703 O   0  0  0  0  0  0  0  0  0  0  0  0
   42.4237   12.9132  -15.1075 C   0  0  0  0  0  0  0  0  0  0  0  0
   43.8585   13.2974  -15.1006 C   0  0  0  0  0  0  0  0  0  0  0  0
   44.8018   13.0935  -16.0736 C   0  0  0  0  0  0  0  0  0  0  0  0
   46.1993   13.0581  -15.7712 C   0  0  0  0  0  0  0  0  0  0  0  0
   46.5380   13.2323  -14.5090 C   0  0  0  0  0  0  0  0  0  0  0  0
   45.6034   13.4290  -13.5011 C   0  0  0  0  0  0  0  0  0  0  0  0
   44.3142   13.4685  -13.7678 C   0  0  0  0  0  0  0  0  0  0  0  0
   43.1766   13.8803  -12.8816 C   0  0  0  0  0  0  0  0  0  0  0  0
   42.9367   15.3992  -13.0264 C   0  0  0  0  0  0  0  0  0  0  0  0
   43.9980   16.2842  -12.5567 C   0  0  0  0  0  0  0  0  0  0  0  0
   44.3812   15.9858  -11.1269 C   0  0  0  0  0  0  0  0  0  0  0  0
   43.5558   14.8558  -10.5654 C   0  0  0  0  0  0  0  0  0  0  0  0
   43.4782   13.6309  -11.4164 C   0  0  0  0  0  0  0  0  0  0  0  0
   47.9680   12.8833  -14.0332 C   0  0  0  0  0  0  0  0  0  0  0  0
   48.6171   13.8021  -13.4080 F   0  0  0  0  0  0  0  0  0  0  0  0
   48.6180   12.3555  -15.1264 F   0  0  0  0  0  0  0  0  0  0  0  0
   47.7870   11.7543  -13.1747 F   0  0  0  0  0  0  0  0  0  0  0  0
  5  6  1  0  0  0
  6  1  1  0  0  0
  1  2  2  0  0  0
  1  3  1  0  0  0
  3 20  1  0  0  0
 20 21  1  0  0  0
 21 22  2  0  0  0
 22 23  1  0  0  0
 23 24  2  0  0  0
 24 33  1  0  0  0
 33 34  1  0  0  0
 33 35  1  0  0  0
 33 36  1  0  0  0
 24 25  1  0  0  0
 25 26  2  0  0  0
 26 27  1  0  0  0
 27 28  1  0  0  0
 28 29  1  0  0  0
 29 30  1  0  0  0
 30 31  1  0  0  0
 31 32  1  0  0  0
  6  7  1  0  0  0
  7  8  2  0  0  0
  8  9  1  0  0  0
  9 10  2  0  0  0
 10 14  1  0  0  0
 14 16  1  0  0  0
 16 17  1  0  0  0
 16 18  2  0  0  0
 16 19  2  0  0  0
 10 11  1  0  0  0
 11 12  1  0  0  0
 11 13  2  0  0  0
 26 21  1  0  0  0
 32 27  1  0  0  0
 13  7  1  0  0  0
  3  4  1  0  0  0
 14 15  1  0  0  0
M  END
> <minimizedAffinity>
-8.26840

> <CNNscore>
0.2699316442

> <CNNaffinity>
6.8738565445

> <CNN_VS>
1.8554713726

> <CNNaffinity_variance>
0.3106667995

$$$$
[H]c1c([H])c(C([H])(C(=O)N([H])C([H])([H])c2c([H])c([H])c(C(F)(F)F)c([H])c2C2([H])C([H])([H])C([H])([H])C([H])([H])C([H])([H])C2([H])[H])C([H])([H])[H])c([H])c(F)c1N([H])S(=O)(=O)C([H])([H])[H]


 36 38  0  0  0  0  0  0  0  0999 V2000
   40.7784   13.9983  -14.9898 C   0  0  0  0  0  0  0  0  0  0  0  0
   39.8846   14.6155  -15.1261 O   0  0  0  0  0  0  0  0  0  0  0  0
   42.0525   13.7836  -14.4505 N   0  0  0  0  0  0  0  0  0  0  0  0
   41.9595   14.9962  -13.7505 H   0  0  0  0  0  0  0  0  0  0  0  0
   41.5506   13.0139  -16.9388 C   0  0  0  0  0  0  0  0  0  0  0  0
   40.8404   12.4796  -15.6727 C   0  0  0  0  0  0  0  0  0  0  0  0
   39.5249   12.0574  -15.9959 C   0  0  0  0  0  0  0  0  0  0  0  0
   38.4625   12.2459  -15.2077 C   0  0  0  0  0  0  0  0  0  0  0  0
   37.2082   11.9734  -15.5510 C   0  0  0  0  0  0  0  0  0  0  0  0
   36.9637   11.4014  -16.8657 C   0  0  0  0  0  0  0  0  0  0  0  0
   38.0069   11.2017  -17.6293 C   0  0  0  0  0  0  0  0  0  0  0  0
   37.7779   10.5376  -18.8435 F   0  0  0  0  0  0  0  0  0  0  0  0
   39.3165   11.4975  -17.3164 C   0  0  0  0  0  0  0  0  0  0  0  0
   35.5814   11.4496  -17.1302 N   0  0  0  0  0  0  0  0  0  0  0  0
   35.3974   12.1880  -17.9763 H   0  0  0  0  0  0  0  0  0  0  0  0
   34.2532   10.6364  -16.5955 S   0  0  0  0  0  0  0  0  0  0  0  0
   33.6277   11.3592  -15.0755 C   0  0  0  0  0  0  0  0  0  0  0  0
   34.4756    9.1764  -16.5491 O   0  0  0  0  0  0  0  0  0  0  0  0
   33.1143   10.9234  -17.6283 O   0  0  0  0  0  0  0  0  0  0  0  0
   43.1898   13.5991  -13.9659 C   0  0  0  0  0  0  0  0  0  0  0  0
   43.7673   13.9205  -12.6356 C   0  0  0  0  0  0  0  0  0  0  0  0
   43.3234   13.5376  -11.3969 C   0  0  0  0  0  0  0  0  0  0  0  0
   43.6479   14.2806  -10.2185 C   0  0  0  0  0  0  0  0  0  0  0  0
   44.3970   15.3533  -10.3807 C   0  0  0  0  0  0  0  0  0  0  0  0
   44.8508   15.7710  -11.6247 C   0  0  0  0  0  0  0  0  0  0  0  0
   44.5628   15.0926  -12.7163 C   0  0  0  0  0  0  0  0  0  0  0  0
   45.1231   15.2427  -14.0993 C   0  0  0  0  0  0  0  0  0  0  0  0
   46.3534   14.3224  -14.2575 C   0  0  0  0  0  0  0  0  0  0  0  0
   47.5224   14.6349  -13.4416 C   0  0  0  0  0  0  0  0  0  0  0  0
   47.9606   16.0688  -13.6206 C   0  0  0  0  0  0  0  0  0  0  0  0
   47.0745   16.7913  -14.6035 C   0  0  0  0  0  0  0  0  0  0  0  0
   45.6061   16.6552  -14.3668 C   0  0  0  0  0  0  0  0  0  0  0  0
   44.5219   16.3929   -9.2419 C   0  0  0  0  0  0  0  0  0  0  0  0
   45.1821   16.0381   -8.1957 F   0  0  0  0  0  0  0  0  0  0  0  0
   43.2457   16.8477   -8.9959 F   0  0  0  0  0  0  0  0  0  0  0  0
   45.1631   17.5129   -9.8575 F   0  0  0  0  0  0  0  0  0  0  0  0
  5  6  1  0  0  0
  6  1  1  0  0  0
  1  2  2  0  0  0
  1  3  1  0  0  0
  3 20  1  0  0  0
 20 21  1  0  0  0
 21 22  2  0  0  0
 22 23  1  0  0  0
 23 24  2  0  0  0
 24 33  1  0  0  0
 33 34  1  0  0  0
 33 35  1  0  0  0
 33 36  1  0  0  0
 24 25  1  0  0  0
 25 26  2  0  0  0
 26 27  1  0  0  0
 27 28  1  0  0  0
 28 29  1  0  0  0
 29 30  1  0  0  0
 30 31  1  0  0  0
 31 32  1  0  0  0
  6  7  1  0  0  0
  7  8  2  0  0  0
  8  9  1  0  0  0
  9 10  2  0  0  0
 10 14  1  0  0  0
 14 16  1  0  0  0
 16 17  1  0  0  0
 16 18  2  0  0  0
 16 19  2  0  0  0
 10 11  1  0  0  0
 11 12  1  0  0  0
 11 13  2  0  0  0
 26 21  1  0  0  0
 32 27  1  0  0  0
 13  7  1  0  0  0
  3  4  1  0  0  0
 14 15  1  0  0  0
M  END
> <minimizedAffinity>
-7.52629

> <CNNscore>
0.2522420287

> <CNNaffinity>
6.6113243103

> <CNN_VS>
1.6676537991

> <CNNaffinity_variance>
0.1505533904

$$$$
[H]c1c([H])c(C([H])(C(=O)N([H])C([H])([H])c2c([H])c([H])c(C(F)(F)F)c([H])c2C2([H])C([H])([H])C([H])([H])C([H])([H])C([H])([H])C2([H])[H])C([H])([H])[H])c([H])c(F)c1N([H])S(=O)(=O)C([H])([H])[H]


 36 38  0  0  0  0  0  0  0  0999 V2000
   40.5998   15.6488  -13.0565 C   0  0  0  0  0  0  0  0  0  0  0  0
   40.6451   16.7343  -12.9224 O   0  0  0  0  0  0  0  0  0  0  0  0
   40.0010   14.5007  -13.5889 N   0  0  0  0  0  0  0  0  0  0  0  0
   39.0822   15.3029  -14.2828 H   0  0  0  0  0  0  0  0  0  0  0  0
   42.0630   15.7175  -11.2624 C   0  0  0  0  0  0  0  0  0  0  0  0
   41.7817   14.6874  -12.3816 C   0  0  0  0  0  0  0  0  0  0  0  0
   42.8892   14.6167  -13.2657 C   0  0  0  0  0  0  0  0  0  0  0  0
   43.9194   15.4674  -13.2458 C   0  0  0  0  0  0  0  0  0  0  0  0
   45.0208   15.3387  -13.9776 C   0  0  0  0  0  0  0  0  0  0  0  0
   45.1116   14.2108  -14.8915 C   0  0  0  0  0  0  0  0  0  0  0  0
   44.0946   13.3886  -14.9220 C   0  0  0  0  0  0  0  0  0  0  0  0
   44.1355   12.3757  -15.8916 F   0  0  0  0  0  0  0  0  0  0  0  0
   42.9503   13.4764  -14.1582 C   0  0  0  0  0  0  0  0  0  0  0  0
   46.4385   14.1067  -15.3513 N   0  0  0  0  0  0  0  0  0  0  0  0
   46.5900   14.8498  -16.1998 H   0  0  0  0  0  0  0  0  0  0  0  0
   47.7818   13.2756  -14.8866 S   0  0  0  0  0  0  0  0  0  0  0  0
   48.7360   14.2160  -13.6911 C   0  0  0  0  0  0  0  0  0  0  0  0
   48.5508   12.7693  -16.0422 O   0  0  0  0  0  0  0  0  0  0  0  0
   47.2772   12.0469  -14.0610 O   0  0  0  0  0  0  0  0  0  0  0  0
   39.4607   13.4801  -14.0674 C   0  0  0  0  0  0  0  0  0  0  0  0
   38.2670   13.3007  -14.9330 C   0  0  0  0  0  0  0  0  0  0  0  0
   36.9788   13.7100  -14.7067 C   0  0  0  0  0  0  0  0  0  0  0  0
   35.8653   13.0769  -15.3431 C   0  0  0  0  0  0  0  0  0  0  0  0
   36.1376   12.0789  -16.1605 C   0  0  0  0  0  0  0  0  0  0  0  0
   37.4316   11.6356  -16.3993 C   0  0  0  0  0  0  0  0  0  0  0  0
   38.4653   12.2137  -15.8231 C   0  0  0  0  0  0  0  0  0  0  0  0
   39.9274   12.0387  -16.1073 C   0  0  0  0  0  0  0  0  0  0  0  0
   40.4283   13.2200  -16.9671 C   0  0  0  0  0  0  0  0  0  0  0  0
   39.8873   13.3310  -18.3180 C   0  0  0  0  0  0  0  0  0  0  0  0
   40.0668   12.0504  -19.0979 C   0  0  0  0  0  0  0  0  0  0  0  0
   40.7664   11.0016  -18.2709 C   0  0  0  0  0  0  0  0  0  0  0  0
   40.2047   10.7790  -16.9050 C   0  0  0  0  0  0  0  0  0  0  0  0
   35.0103   11.1284  -16.6282 C   0  0  0  0  0  0  0  0  0  0  0  0
   34.4074   11.4306  -17.7244 F   0  0  0  0  0  0  0  0  0  0  0  0
   34.1835   10.9497  -15.5416 F   0  0  0  0  0  0  0  0  0  0  0  0
   35.6559    9.8603  -16.7691 F   0  0  0  0  0  0  0  0  0  0  0  0
  5  6  1  0  0  0
  6  1  1  0  0  0
  1  2  2  0  0  0
  1  3  1  0  0  0
  3 20  1  0  0  0
 20 21  1  0  0  0
 21 22  2  0  0  0
 22 23  1  0  0  0
 23 24  2  0  0  0
 24 33  1  0  0  0
 33 34  1  0  0  0
 33 35  1  0  0  0
 33 36  1  0  0  0
 24 25  1  0  0  0
 25 26  2  0  0  0
 26 27  1  0  0  0
 27 28  1  0  0  0
 28 29  1  0  0  0
 29 30  1  0  0  0
 30 31  1  0  0  0
 31 32  1  0  0  0
  6  7  1  0  0  0
  7  8  2  0  0  0
  8  9  1  0  0  0
  9 10  2  0  0  0
 10 14  1  0  0  0
 14 16  1  0  0  0
 16 17  1  0  0  0
 16 18  2  0  0  0
 16 19  2  0  0  0
 10 11  1  0  0  0
 11 12  1  0  0  0
 11 13  2  0  0  0
 26 21  1  0  0  0
 32 27  1  0  0  0
 13  7  1  0  0  0
  3  4  1  0  0  0
 14 15  1  0  0  0
M  END
> <minimizedAffinity>
-7.92524

> <CNNscore>
0.2336942255

> <CNNaffinity>
6.8443145752

> <CNN_VS>
1.5994768143

> <CNNaffinity_variance>
0.1831650585

$$$$
[H]c1c([H])c(C([H])(C(=O)N([H])C([H])([H])c2c([H])c([H])c(C(F)(F)F)c([H])c2C2([H])C([H])([H])C([H])([H])C([H])([H])C([H])([H])C2([H])[H])C([H])([H])[H])c([H])c(F)c1N([H])S(=O)(=O)C([H])([H])[H]


 36 38  0  0  0  0  0  0  0  0999 V2000
   40.8154   14.3624  -15.2896 C   0  0  0  0  0  0  0  0  0  0  0  0
   40.3028   14.8305  -16.1360 O   0  0  0  0  0  0  0  0  0  0  0  0
   41.5752   14.4430  -14.1163 N   0  0  0  0  0  0  0  0  0  0  0  0
   41.5169   15.8437  -14.1760 H   0  0  0  0  0  0  0  0  0  0  0  0
   41.8028   12.4842  -16.2179 C   0  0  0  0  0  0  0  0  0  0  0  0
   40.7529   12.7076  -15.1040 C   0  0  0  0  0  0  0  0  0  0  0  0
   39.4846   12.2361  -15.5310 C   0  0  0  0  0  0  0  0  0  0  0  0
   38.3436   12.4515  -14.8698 C   0  0  0  0  0  0  0  0  0  0  0  0
   37.1359   12.1294  -15.3205 C   0  0  0  0  0  0  0  0  0  0  0  0
   37.0375   11.4680  -16.6122 C   0  0  0  0  0  0  0  0  0  0  0  0
   38.1571   11.2425  -17.2501 C   0  0  0  0  0  0  0  0  0  0  0  0
   38.0653   10.4962  -18.4343 F   0  0  0  0  0  0  0  0  0  0  0  0
   39.4226   11.5872  -16.8255 C   0  0  0  0  0  0  0  0  0  0  0  0
   35.6894   11.4681  -17.0191 N   0  0  0  0  0  0  0  0  0  0  0  0
   35.5816   12.1494  -17.9242 H   0  0  0  0  0  0  0  0  0  0  0  0
   34.3268   10.6584  -16.5731 S   0  0  0  0  0  0  0  0  0  0  0  0
   33.6305   11.3535  -15.0711 C   0  0  0  0  0  0  0  0  0  0  0  0
   34.5314    9.1952  -16.5494 O   0  0  0  0  0  0  0  0  0  0  0  0
   33.2463   10.9819  -17.6565 O   0  0  0  0  0  0  0  0  0  0  0  0
   42.2538   14.5228  -13.0697 C   0  0  0  0  0  0  0  0  0  0  0  0
   43.5295   13.8808  -12.6610 C   0  0  0  0  0  0  0  0  0  0  0  0
   43.7361   12.6038  -12.2085 C   0  0  0  0  0  0  0  0  0  0  0  0
   44.8714   12.2638  -11.4075 C   0  0  0  0  0  0  0  0  0  0  0  0
   45.7122   13.2393  -11.1253 C   0  0  0  0  0  0  0  0  0  0  0  0
   45.5216   14.5441  -11.5602 C   0  0  0  0  0  0  0  0  0  0  0  0
   44.4829   14.8684  -12.3024 C   0  0  0  0  0  0  0  0  0  0  0  0
   44.2114   16.1426  -13.0452 C   0  0  0  0  0  0  0  0  0  0  0  0
   45.1806   16.2554  -14.2426 C   0  0  0  0  0  0  0  0  0  0  0  0
   46.5993   16.4030  -13.9336 C   0  0  0  0  0  0  0  0  0  0  0  0
   46.8485   17.5593  -12.9949 C   0  0  0  0  0  0  0  0  0  0  0  0
   45.5612   18.2570  -12.6352 C   0  0  0  0  0  0  0  0  0  0  0  0
   44.4513   17.3662  -12.1819 C   0  0  0  0  0  0  0  0  0  0  0  0
   46.7686   13.0559  -10.0102 C   0  0  0  0  0  0  0  0  0  0  0  0
   47.8856   12.5121  -10.3463 F   0  0  0  0  0  0  0  0  0  0  0  0
   46.1179   12.4443   -8.9620 F   0  0  0  0  0  0  0  0  0  0  0  0
   47.0053   14.3814   -9.5290 F   0  0  0  0  0  0  0  0  0  0  0  0
  5  6  1  0  0  0
  6  1  1  0  0  0
  1  2  2  0  0  0
  1  3  1  0  0  0
  3 20  1  0  0  0
 20 21  1  0  0  0
 21 22  2  0  0  0
 22 23  1  0  0  0
 23 24  2  0  0  0
 24 33  1  0  0  0
 33 34  1  0  0  0
 33 35  1  0  0  0
 33 36  1  0  0  0
 24 25  1  0  0  0
 25 26  2  0  0  0
 26 27  1  0  0  0
 27 28  1  0  0  0
 28 29  1  0  0  0
 29 30  1  0  0  0
 30 31  1  0  0  0
 31 32  1  0  0  0
  6  7  1  0  0  0
  7  8  2  0  0  0
  8  9  1  0  0  0
  9 10  2  0  0  0
 10 14  1  0  0  0
 14 16  1  0  0  0
 16 17  1  0  0  0
 16 18  2  0  0  0
 16 19  2  0  0  0
 10 11  1  0  0  0
 11 12  1  0  0  0
 11 13  2  0  0  0
 26 21  1  0  0  0
 32 27  1  0  0  0
 13  7  1  0  0  0
  3  4  1  0  0  0
 14 15  1  0  0  0
M  END
> <minimizedAffinity>
-6.36765

> <CNNscore>
0.2119812667

> <CNNaffinity>
6.6281938553

> <CNN_VS>
1.4050529003

> <CNNaffinity_variance>
0.3443562090

$$$$
[H]c1c([H])c(C([H])(C(=O)N([H])C([H])([H])c2c([H])c([H])c(C(F)(F)F)c([H])c2C2([H])C([H])([H])C([H])([H])C([H])([H])C([H])([H])C2([H])[H])C([H])([H])[H])c([H])c(F)c1N([H])S(=O)(=O)C([H])([H])[H]


 36 38  0  0  0  0  0  0  0  0999 V2000
   40.9661   13.8013  -16.3886 C   0  0  0  0  0  0  0  0  0  0  0  0
   40.5034   14.3156  -17.2370 O   0  0  0  0  0  0  0  0  0  0  0  0
   41.6843   13.8152  -15.1868 N   0  0  0  0  0  0  0  0  0  0  0  0
   41.6812   15.2183  -15.2022 H   0  0  0  0  0  0  0  0  0  0  0  0
   41.6639   11.9206  -17.5463 C   0  0  0  0  0  0  0  0  0  0  0  0
   40.8343   12.1452  -16.2602 C   0  0  0  0  0  0  0  0  0  0  0  0
   39.4853   11.7643  -16.4802 C   0  0  0  0  0  0  0  0  0  0  0  0
   38.4790   12.0588  -15.6520 C   0  0  0  0  0  0  0  0  0  0  0  0
   37.1964   11.8227  -15.9063 C   0  0  0  0  0  0  0  0  0  0  0  0
   36.8524   11.1710  -17.1603 C   0  0  0  0  0  0  0  0  0  0  0  0
   37.8406   10.8681  -17.9621 C   0  0  0  0  0  0  0  0  0  0  0  0
   37.5139   10.1311  -19.1101 F   0  0  0  0  0  0  0  0  0  0  0  0
   39.1777   11.1226  -17.7427 C   0  0  0  0  0  0  0  0  0  0  0  0
   35.4607   11.2662  -17.3528 N   0  0  0  0  0  0  0  0  0  0  0  0
   35.2602   11.9709  -18.2236 H   0  0  0  0  0  0  0  0  0  0  0  0
   34.1323   10.5373  -16.7084 S   0  0  0  0  0  0  0  0  0  0  0  0
   33.6053   11.3743  -15.2098 C   0  0  0  0  0  0  0  0  0  0  0  0
   34.3062    9.0756  -16.5808 O   0  0  0  0  0  0  0  0  0  0  0  0
   32.9561   10.8031  -17.7043 O   0  0  0  0  0  0  0  0  0  0  0  0
   42.3261   13.8353  -14.1143 C   0  0  0  0  0  0  0  0  0  0  0  0
   43.7746   13.6885  -13.8201 C   0  0  0  0  0  0  0  0  0  0  0  0
   44.7255   13.0051  -14.5320 C   0  0  0  0  0  0  0  0  0  0  0  0
   45.9301   12.5350  -13.9203 C   0  0  0  0  0  0  0  0  0  0  0  0
   46.0829   12.7918  -12.6362 C   0  0  0  0  0  0  0  0  0  0  0  0
   45.1310   13.4714  -11.8879 C   0  0  0  0  0  0  0  0  0  0  0  0
   44.0203   13.9134  -12.4409 C   0  0  0  0  0  0  0  0  0  0  0  0
   42.9864   14.8415  -11.8764 C   0  0  0  0  0  0  0  0  0  0  0  0
   43.2728   16.2817  -12.3556 C   0  0  0  0  0  0  0  0  0  0  0  0
   44.5040   16.9045  -11.8799 C   0  0  0  0  0  0  0  0  0  0  0  0
   44.6043   16.8633  -10.3737 C   0  0  0  0  0  0  0  0  0  0  0  0
   43.3976   16.1951   -9.7648 C   0  0  0  0  0  0  0  0  0  0  0  0
   43.0221   14.8782  -10.3607 C   0  0  0  0  0  0  0  0  0  0  0  0
   47.1682   12.0510  -11.8199 C   0  0  0  0  0  0  0  0  0  0  0  0
   47.0489   12.0665  -10.5385 F   0  0  0  0  0  0  0  0  0  0  0  0
   48.3798   12.5009  -12.2951 F   0  0  0  0  0  0  0  0  0  0  0  0
   47.1037   10.7028  -12.2919 F   0  0  0  0  0  0  0  0  0  0  0  0
  5  6  1  0  0  0
  6  1  1  0  0  0
  1  2  2  0  0  0
  1  3  1  0  0  0
  3 20  1  0  0  0
 20 21  1  0  0  0
 21 22  2  0  0  0
 22 23  1  0  0  0
 23 24  2  0  0  0
 24 33  1  0  0  0
 33 34  1  0  0  0
 33 35  1  0  0  0
 33 36  1  0  0  0
 24 25  1  0  0  0
 25 26  2  0  0  0
 26 27  1  0  0  0
 27 28  1  0  0  0
 28 29  1  0  0  0
 29 30  1  0  0  0
 30 31  1  0  0  0
 31 32  1  0  0  0
  6  7  1  0  0  0
  7  8  2  0  0  0
  8  9  1  0  0  0
  9 10  2  0  0  0
 10 14  1  0  0  0
 14 16  1  0  0  0
 16 17  1  0  0  0
 16 18  2  0  0  0
 16 19  2  0  0  0
 10 11  1  0  0  0
 11 12  1  0  0  0
 11 13  2  0  0  0
 26 21  1  0  0  0
 32 27  1  0  0  0
 13  7  1  0  0  0
  3  4  1  0  0  0
 14 15  1  0  0  0
M  END
> <minimizedAffinity>
-8.07949

> <CNNscore>
0.1868588179

> <CNNaffinity>
6.5560660362

> <CNN_VS>
1.2250587940

> <CNNaffinity_variance>
0.1155353561

$$$$
[H]c1c([H])c(C([H])(C(=O)N([H])C([H])([H])c2c([H])c([H])c(C(F)(F)F)c([H])c2C2([H])C([H])([H])C([H])([H])C([H])([H])C([H])([H])C2([H])[H])C([H])([H])[H])c([H])c(F)c1N([H])S(=O)(=O)C([H])([H])[H]


 36 38  0  0  0  0  0  0  0  0999 V2000
   36.7849   15.7414  -11.3981 C   0  0  0  0  0  0  0  0  0  0  0  0
   36.4272   16.4568  -12.1453 O   0  0  0  0  0  0  0  0  0  0  0  0
   37.0031   15.3591  -10.0690 N   0  0  0  0  0  0  0  0  0  0  0  0
   36.3614   16.5268   -9.6288 H   0  0  0  0  0  0  0  0  0  0  0  0
   38.5934   14.9436  -12.6053 C   0  0  0  0  0  0  0  0  0  0  0  0
   37.3955   14.2721  -11.8932 C   0  0  0  0  0  0  0  0  0  0  0  0
   36.5196   13.7001  -12.8518 C   0  0  0  0  0  0  0  0  0  0  0  0
   36.9183   12.9147  -13.8566 C   0  0  0  0  0  0  0  0  0  0  0  0
   36.1014   12.2694  -14.6822 C   0  0  0  0  0  0  0  0  0  0  0  0
   34.6681   12.4454  -14.5084 C   0  0  0  0  0  0  0  0  0  0  0  0
   34.2801   13.2284  -13.5349 C   0  0  0  0  0  0  0  0  0  0  0  0
   32.9046   13.4906  -13.4507 F   0  0  0  0  0  0  0  0  0  0  0  0
   35.0979   13.8904  -12.6442 C   0  0  0  0  0  0  0  0  0  0  0  0
   33.9965   11.4809  -15.2842 N   0  0  0  0  0  0  0  0  0  0  0  0
   33.0273   11.2000  -14.7581 H   0  0  0  0  0  0  0  0  0  0  0  0
   34.2305   10.7883  -16.7595 S   0  0  0  0  0  0  0  0  0  0  0  0
   35.7430   11.3900  -17.5176 C   0  0  0  0  0  0  0  0  0  0  0  0
   33.0265   10.8733  -17.6118 O   0  0  0  0  0  0  0  0  0  0  0  0
   34.5345    9.2772  -16.4947 O   0  0  0  0  0  0  0  0  0  0  0  0
   37.1951   15.0247   -8.8800 C   0  0  0  0  0  0  0  0  0  0  0  0
   38.4362   14.8746   -8.0777 C   0  0  0  0  0  0  0  0  0  0  0  0
   39.7380   14.9057   -8.5049 C   0  0  0  0  0  0  0  0  0  0  0  0
   40.7888   14.2812   -7.7620 C   0  0  0  0  0  0  0  0  0  0  0  0
   40.4449   13.6736   -6.6436 C   0  0  0  0  0  0  0  0  0  0  0  0
   39.1327   13.6163   -6.1931 C   0  0  0  0  0  0  0  0  0  0  0  0
   38.1573   14.1916   -6.8657 C   0  0  0  0  0  0  0  0  0  0  0  0
   36.7362   14.4328   -6.4518 C   0  0  0  0  0  0  0  0  0  0  0  0
   36.6799   15.6371   -5.4863 C   0  0  0  0  0  0  0  0  0  0  0  0
   37.3304   15.4763   -4.1897 C   0  0  0  0  0  0  0  0  0  0  0  0
   36.8345   14.2476   -3.4653 C   0  0  0  0  0  0  0  0  0  0  0  0
   35.7916   13.5203   -4.2757 C   0  0  0  0  0  0  0  0  0  0  0  0
   36.1550   13.2514   -5.6992 C   0  0  0  0  0  0  0  0  0  0  0  0
   41.4295   12.6996   -5.9544 C   0  0  0  0  0  0  0  0  0  0  0  0
   42.5010   13.2075   -5.4543 F   0  0  0  0  0  0  0  0  0  0  0  0
   41.6365   11.6695   -6.8446 F   0  0  0  0  0  0  0  0  0  0  0  0
   40.6553   12.0936   -4.9161 F   0  0  0  0  0  0  0  0  0  0  0  0
  5  6  1  0  0  0
  6  1  1  0  0  0
  1  2  2  0  0  0
  1  3  1  0  0  0
  3 20  1  0  0  0
 20 21  1  0  0  0
 21 22  2  0  0  0
 22 23  1  0  0  0
 23 24  2  0  0  0
 24 33  1  0  0  0
 33 34  1  0  0  0
 33 35  1  0  0  0
 33 36  1  0  0  0
 24 25  1  0  0  0
 25 26  2  0  0  0
 26 27  1  0  0  0
 27 28  1  0  0  0
 28 29  1  0  0  0
 29 30  1  0  0  0
 30 31  1  0  0  0
 31 32  1  0  0  0
  6  7  1  0  0  0
  7  8  2  0  0  0
  8  9  1  0  0  0
  9 10  2  0  0  0
 10 14  1  0  0  0
 14 16  1  0  0  0
 16 17  1  0  0  0
 16 18  2  0  0  0
 16 19  2  0  0  0
 10 11  1  0  0  0
 11 12  1  0  0  0
 11 13  2  0  0  0
 26 21  1  0  0  0
 32 27  1  0  0  0
 13  7  1  0  0  0
  3  4  1  0  0  0
 14 15  1  0  0  0
M  END
> <minimizedAffinity>
-7.84827

> <CNNscore>
0.1795700192

> <CNNaffinity>
6.2693963051

> <CNN_VS>
1.1257956028

> <CNNaffinity_variance>
0.0958330259

$$$$
[H]c1c([H])c(C([H])(C(=O)N([H])C([H])([H])c2c([H])c([H])c(C(F)(F)F)c([H])c2C2([H])C([H])([H])C([H])([H])C([H])([H])C([H])([H])C2([H])[H])C([H])([H])[H])c([H])c(F)c1N([H])S(=O)(=O)C([H])([H])[H]


 36 38  0  0  0  0  0  0  0  0999 V2000
   41.3446   15.7795  -13.1003 C   0  0  0  0  0  0  0  0  0  0  0  0
   41.9505   16.6865  -13.0076 O   0  0  0  0  0  0  0  0  0  0  0  0
   40.2057   15.1042  -13.5552 N   0  0  0  0  0  0  0  0  0  0  0  0
   39.7845   16.2652  -14.2214 H   0  0  0  0  0  0  0  0  0  0  0  0
   42.4144   15.0477  -11.1808 C   0  0  0  0  0  0  0  0  0  0  0  0
   41.9075   14.3464  -12.4631 C   0  0  0  0  0  0  0  0  0  0  0  0
   43.0079   13.8912  -13.2345 C   0  0  0  0  0  0  0  0  0  0  0  0
   43.0350   13.8847  -14.5704 C   0  0  0  0  0  0  0  0  0  0  0  0
   44.1014   13.5843  -15.3038 C   0  0  0  0  0  0  0  0  0  0  0  0
   45.3252   13.2053  -14.6153 C   0  0  0  0  0  0  0  0  0  0  0  0
   45.2917   13.1956  -13.3076 C   0  0  0  0  0  0  0  0  0  0  0  0
   46.4347   12.7115  -12.6541 F   0  0  0  0  0  0  0  0  0  0  0  0
   44.2129   13.5275  -12.5159 C   0  0  0  0  0  0  0  0  0  0  0  0
   46.3839   13.2003  -15.5439 N   0  0  0  0  0  0  0  0  0  0  0  0
   45.9475   13.1714  -16.5944 H   0  0  0  0  0  0  0  0  0  0  0  0
   48.0228   13.3346  -15.4588 S   0  0  0  0  0  0  0  0  0  0  0  0
   48.5009   14.6427  -14.3255 C   0  0  0  0  0  0  0  0  0  0  0  0
   48.6456   13.4069  -16.7967 O   0  0  0  0  0  0  0  0  0  0  0  0
   48.5359   12.0374  -14.7517 O   0  0  0  0  0  0  0  0  0  0  0  0
   39.1861   14.5080  -13.9644 C   0  0  0  0  0  0  0  0  0  0  0  0
   39.0115   13.2383  -14.7152 C   0  0  0  0  0  0  0  0  0  0  0  0
   39.8591   12.6600  -15.6237 C   0  0  0  0  0  0  0  0  0  0  0  0
   39.3885   11.7383  -16.6111 C   0  0  0  0  0  0  0  0  0  0  0  0
   38.0977   11.4701  -16.6053 C   0  0  0  0  0  0  0  0  0  0  0  0
   37.2143   12.0501  -15.7046 C   0  0  0  0  0  0  0  0  0  0  0  0
   37.6364   12.8963  -14.7877 C   0  0  0  0  0  0  0  0  0  0  0  0
   36.9021   13.4539  -13.6049 C   0  0  0  0  0  0  0  0  0  0  0  0
   36.1305   12.3182  -12.8974 C   0  0  0  0  0  0  0  0  0  0  0  0
   35.0401   11.6960  -13.6416 C   0  0  0  0  0  0  0  0  0  0  0  0
   34.0494   12.7205  -14.1407 C   0  0  0  0  0  0  0  0  0  0  0  0
   34.4506   14.1139  -13.7274 C   0  0  0  0  0  0  0  0  0  0  0  0
   35.8686   14.4863  -14.0123 C   0  0  0  0  0  0  0  0  0  0  0  0
   37.4458   10.7633  -17.8172 C   0  0  0  0  0  0  0  0  0  0  0  0
   37.1614    9.5153  -17.6831 F   0  0  0  0  0  0  0  0  0  0  0  0
   38.2323   11.0654  -18.9063 F   0  0  0  0  0  0  0  0  0  0  0  0
   36.2472   11.5061  -18.0541 F   0  0  0  0  0  0  0  0  0  0  0  0
  5  6  1  0  0  0
  6  1  1  0  0  0
  1  2  2  0  0  0
  1  3  1  0  0  0
  3 20  1  0  0  0
 20 21  1  0  0  0
 21 22  2  0  0  0
 22 23  1  0  0  0
 23 24  2  0  0  0
 24 33  1  0  0  0
 33 34  1  0  0  0
 33 35  1  0  0  0
 33 36  1  0  0  0
 24 25  1  0  0  0
 25 26  2  0  0  0
 26 27  1  0  0  0
 27 28  1  0  0  0
 28 29  1  0  0  0
 29 30  1  0  0  0
 30 31  1  0  0  0
 31 32  1  0  0  0
  6  7  1  0  0  0
  7  8  2  0  0  0
  8  9  1  0  0  0
  9 10  2  0  0  0
 10 14  1  0  0  0
 14 16  1  0  0  0
 16 17  1  0  0  0
 16 18  2  0  0  0
 16 19  2  0  0  0
 10 11  1  0  0  0
 11 12  1  0  0  0
 11 13  2  0  0  0
 26 21  1  0  0  0
 32 27  1  0  0  0
 13  7  1  0  0  0
  3  4  1  0  0  0
 14 15  1  0  0  0
M  END
> <minimizedAffinity>
-8.29638

> <CNNscore>
0.1673608869

> <CNNaffinity>
6.8996710777

> <CNN_VS>
1.1547350883

> <CNNaffinity_variance>
0.1731105000

$$$$
[H]c1c([H])c(C([H])(C(=O)N([H])C([H])([H])c2c([H])c([H])c(C(F)(F)F)c([H])c2C2([H])C([H])([H])C([H])([H])C([H])([H])C([H])([H])C2([H])[H])C([H])([H])[H])c([H])c(F)c1N([H])S(=O)(=O)C([H])([H])[H]


 36 38  0  0  0  0  0  0  0  0999 V2000
   41.5531   15.0748  -12.6570 C   0  0  0  0  0  0  0  0  0  0  0  0
   41.6960   15.3975  -11.6208 O   0  0  0  0  0  0  0  0  0  0  0  0
   40.7278   14.7733  -13.7471 N   0  0  0  0  0  0  0  0  0  0  0  0
   39.6051   15.1738  -13.0066 H   0  0  0  0  0  0  0  0  0  0  0  0
   43.1571   13.4195  -12.8841 C   0  0  0  0  0  0  0  0  0  0  0  0
   42.8828   14.7578  -13.6099 C   0  0  0  0  0  0  0  0  0  0  0  0
   43.9077   15.6918  -13.3093 C   0  0  0  0  0  0  0  0  0  0  0  0
   43.7274   17.0152  -13.2692 C   0  0  0  0  0  0  0  0  0  0  0  0
   44.6409   17.8911  -12.8648 C   0  0  0  0  0  0  0  0  0  0  0  0
   45.9449   17.3884  -12.4617 C   0  0  0  0  0  0  0  0  0  0  0  0
   46.1251   16.0939  -12.5180 C   0  0  0  0  0  0  0  0  0  0  0  0
   47.4202   15.6283  -12.2466 F   0  0  0  0  0  0  0  0  0  0  0  0
   45.1923   15.1557  -12.9057 C   0  0  0  0  0  0  0  0  0  0  0  0
   46.6503   18.4242  -11.8193 N   0  0  0  0  0  0  0  0  0  0  0  0
   46.0911   18.7131  -10.8712 H   0  0  0  0  0  0  0  0  0  0  0  0
   48.0864   19.1931  -12.0592 S   0  0  0  0  0  0  0  0  0  0  0  0
   49.0719   19.1939  -10.5583 C   0  0  0  0  0  0  0  0  0  0  0  0
   47.9104   20.5161  -12.6932 O   0  0  0  0  0  0  0  0  0  0  0  0
   48.9125   18.2915  -13.0343 O   0  0  0  0  0  0  0  0  0  0  0  0
   39.9846   14.5056  -14.7158 C   0  0  0  0  0  0  0  0  0  0  0  0
   39.5231   13.2145  -15.2874 C   0  0  0  0  0  0  0  0  0  0  0  0
   40.1821   12.3788  -16.1508 C   0  0  0  0  0  0  0  0  0  0  0  0
   39.4796   11.4564  -16.9884 C   0  0  0  0  0  0  0  0  0  0  0  0
   38.1649   11.4476  -16.8896 C   0  0  0  0  0  0  0  0  0  0  0  0
   37.4707   12.2911  -16.0325 C   0  0  0  0  0  0  0  0  0  0  0  0
   38.1066   13.1411  -15.2528 C   0  0  0  0  0  0  0  0  0  0  0  0
   37.5738   13.9671  -14.1201 C   0  0  0  0  0  0  0  0  0  0  0  0
   37.4038   13.0757  -12.8702 C   0  0  0  0  0  0  0  0  0  0  0  0
   36.4031   12.0161  -12.9447 C   0  0  0  0  0  0  0  0  0  0  0  0
   35.0505   12.5533  -13.3473 C   0  0  0  0  0  0  0  0  0  0  0  0
   35.0966   14.0458  -13.5565 C   0  0  0  0  0  0  0  0  0  0  0  0
   36.2037   14.5393  -14.4290 C   0  0  0  0  0  0  0  0  0  0  0  0
   37.3095   10.7432  -17.9691 C   0  0  0  0  0  0  0  0  0  0  0  0
   37.8081   10.6678  -19.1532 F   0  0  0  0  0  0  0  0  0  0  0  0
   36.0590   11.3156  -17.9017 F   0  0  0  0  0  0  0  0  0  0  0  0
   37.1031    9.4269  -17.4502 F   0  0  0  0  0  0  0  0  0  0  0  0
  5  6  1  0  0  0
  6  1  1  0  0  0
  1  2  2  0  0  0
  1  3  1  0  0  0
  3 20  1  0  0  0
 20 21  1  0  0  0
 21 22  2  0  0  0
 22 23  1  0  0  0
 23 24  2  0  0  0
 24 33  1  0  0  0
 33 34  1  0  0  0
 33 35  1  0  0  0
 33 36  1  0  0  0
 24 25  1  0  0  0
 25 26  2  0  0  0
 26 27  1  0  0  0
 27 28  1  0  0  0
 28 29  1  0  0  0
 29 30  1  0  0  0
 30 31  1  0  0  0
 31 32  1  0  0  0
  6  7  1  0  0  0
  7  8  2  0  0  0
  8  9  1  0  0  0
  9 10  2  0  0  0
 10 14  1  0  0  0
 14 16  1  0  0  0
 16 17  1  0  0  0
 16 18  2  0  0  0
 16 19  2  0  0  0
 10 11  1  0  0  0
 11 12  1  0  0  0
 11 13  2  0  0  0
 26 21  1  0  0  0
 32 27  1  0  0  0
 13  7  1  0  0  0
  3  4  1  0  0  0
 14 15  1  0  0  0
M  END
> <minimizedAffinity>
-7.90017

> <CNNscore>
0.1399923563

> <CNNaffinity>
6.4411287308

> <CNN_VS>
0.9017087817

> <CNNaffinity_variance>
0.1554656476

$$$$
[H]OC(=O)C([H])([H])N(C([H])([H])c1c([H])c([H])c([H])c(OC([H])([H])C([H])([H])c2nc(-c3c([H])c([H])c([H])c([H])c3[H])oc2C([H])([H])[H])c1[H])C([H])([H])c1c([H])c([H])c2c([H])c([H])c([H])c([H])c2c1[H]


 39 43  0  0  0  0  0  0  0  0999 V2000
   36.3365   14.3415  -12.1524 C   0  0  0  0  0  0  0  0  0  0  0  0
   37.4301   14.4790  -12.9597 C   0  0  0  0  0  0  0  0  0  0  0  0
   38.5436   15.1364  -12.4935 C   0  0  0  0  0  0  0  0  0  0  0  0
   38.6154   15.6739  -11.2282 C   0  0  0  0  0  0  0  0  0  0  0  0
   37.5318   15.5527  -10.3899 C   0  0  0  0  0  0  0  0  0  0  0  0
   36.4279   14.8959  -10.8658 C   0  0  0  0  0  0  0  0  0  0  0  0
   35.1982   13.7107  -12.5327 O   0  0  0  0  0  0  0  0  0  0  0  0
   34.4477   13.7081  -13.6690 C   0  0  0  0  0  0  0  0  0  0  0  0
   34.1075   12.3936  -14.2892 C   0  0  0  0  0  0  0  0  0  0  0  0
   33.6152   10.7143  -16.8943 C   0  0  0  0  0  0  0  0  0  0  0  0
   34.9219   11.2453  -16.4657 C   0  0  0  0  0  0  0  0  0  0  0  0
   36.0747   11.1122  -17.0823 O   0  0  0  0  0  0  0  0  0  0  0  0
   37.0210   11.7169  -16.4086 C   0  0  0  0  0  0  0  0  0  0  0  0
   36.4379   12.2538  -15.3210 N   0  0  0  0  0  0  0  0  0  0  0  0
   35.1307   11.9874  -15.3112 C   0  0  0  0  0  0  0  0  0  0  0  0
   38.4339   11.8042  -16.7513 C   0  0  0  0  0  0  0  0  0  0  0  0
   38.9298   11.1621  -17.8667 C   0  0  0  0  0  0  0  0  0  0  0  0
   40.2764   11.2293  -18.2142 C   0  0  0  0  0  0  0  0  0  0  0  0
   41.1465   11.9527  -17.4313 C   0  0  0  0  0  0  0  0  0  0  0  0
   40.6796   12.5972  -16.3221 C   0  0  0  0  0  0  0  0  0  0  0  0
   39.3248   12.5208  -15.9859 C   0  0  0  0  0  0  0  0  0  0  0  0
   37.5986   16.1273   -9.0416 C   0  0  0  0  0  0  0  0  0  0  0  0
   37.2616   15.2553   -7.9682 N   0  0  0  0  0  0  0  0  0  0  0  0
   38.3761   14.5316   -7.4699 C   0  0  0  0  0  0  0  0  0  0  0  0
   38.0635   13.4369   -6.5418 C   0  0  0  0  0  0  0  0  0  0  0  0
   37.2000   12.5570   -6.6968 O   0  0  0  0  0  0  0  0  0  0  0  0
   38.8092   13.3625   -5.3490 O   0  0  0  0  0  0  0  0  0  0  0  0
   38.3629   13.5868   -4.4710 H   0  0  0  0  0  0  0  0  0  0  0  0
   36.4064   15.8525   -6.9863 C   0  0  0  0  0  0  0  0  0  0  0  0
   35.0168   15.4055   -6.9915 C   0  0  0  0  0  0  0  0  0  0  0  0
   34.4223   14.6100   -6.0393 C   0  0  0  0  0  0  0  0  0  0  0  0
   33.0916   14.2340   -6.1390 C   0  0  0  0  0  0  0  0  0  0  0  0
   32.2989   14.6357   -7.1913 C   0  0  0  0  0  0  0  0  0  0  0  0
   30.9793   14.2415   -7.2574 C   0  0  0  0  0  0  0  0  0  0  0  0
   30.1776   14.6381   -8.3090 C   0  0  0  0  0  0  0  0  0  0  0  0
   30.7434   15.4354   -9.2799 C   0  0  0  0  0  0  0  0  0  0  0  0
   32.0796   15.8334   -9.2107 C   0  0  0  0  0  0  0  0  0  0  0  0
   32.8795   15.4343   -8.1557 C   0  0  0  0  0  0  0  0  0  0  0  0
   34.2044   15.8058   -8.0521 C   0  0  0  0  0  0  0  0  0  0  0  0
 10 11  1  0  0  0
 11 12  1  0  0  0
 12 13  1  0  0  0
 13 16  1  0  0  0
 16 17  2  0  0  0
 17 18  1  0  0  0
 18 19  2  0  0  0
 19 20  1  0  0  0
 20 21  2  0  0  0
 13 14  2  0  0  0
 14 15  1  0  0  0
 15  9  1  0  0  0
  9  8  1  0  0  0
  8  7  1  0  0  0
  7  1  1  0  0  0
  1  2  2  0  0  0
  2  3  1  0  0  0
  3  4  2  0  0  0
  4  5  1  0  0  0
  5 22  1  0  0  0
 22 23  1  0  0  0
 23 24  1  0  0  0
 24 25  1  0  0  0
 25 26  2  0  0  0
 25 27  1  0  0  0
 23 29  1  0  0  0
 29 30  1  0  0  0
 30 31  2  0  0  0
 31 32  1  0  0  0
 32 33  2  0  0  0
 33 34  1  0  0  0
 34 35  2  0  0  0
 35 36  1  0  0  0
 36 37  2  0  0  0
 37 38  1  0  0  0
 38 39  2  0  0  0
  5  6  2  0  0  0
 15 11  2  0  0  0
  6  1  1  0  0  0
 21 16  1  0  0  0
 39 30  1  0  0  0
 38 33  1  0  0  0
 27 28  1  0  0  0
M  END
> <minimizedAffinity>
-9.24356

> <CNNscore>
0.2798860073

> <CNNaffinity>
6.3579478264

> <CNN_VS>
1.7795006037

> <CNNaffinity_variance>
0.6327474713

$$$$
[H]OC(=O)C([H])([H])N(C([H])([H])c1c([H])c([H])c([H])c(OC([H])([H])C([H])([H])c2nc(-c3c([H])c([H])c([H])c([H])c3[H])oc2C([H])([H])[H])c1[H])C([H])([H])c1c([H])c([H])c2c([H])c([H])c([H])c([H])c2c1[H]


 39 43  0  0  0  0  0  0  0  0999 V2000
   42.3100   15.9807  -11.2590 C   0  0  0  0  0  0  0  0  0  0  0  0
   43.3912   16.8061  -11.3865 C   0  0  0  0  0  0  0  0  0  0  0  0
   44.3578   16.5244  -12.3224 C   0  0  0  0  0  0  0  0  0  0  0  0
   44.2906   15.4308  -13.1558 C   0  0  0  0  0  0  0  0  0  0  0  0
   43.2151   14.5798  -13.0537 C   0  0  0  0  0  0  0  0  0  0  0  0
   42.2585   14.8707  -12.1172 C   0  0  0  0  0  0  0  0  0  0  0  0
   41.3137   16.1830  -10.3620 O   0  0  0  0  0  0  0  0  0  0  0  0
   39.9759   16.4160  -10.4645 C   0  0  0  0  0  0  0  0  0  0  0  0
   39.0622   15.7271   -9.5059 C   0  0  0  0  0  0  0  0  0  0  0  0
   36.3630   17.1095   -8.6986 C   0  0  0  0  0  0  0  0  0  0  0  0
   36.5095   16.0978   -9.7607 C   0  0  0  0  0  0  0  0  0  0  0  0
   35.5628   15.6131  -10.5325 O   0  0  0  0  0  0  0  0  0  0  0  0
   36.0621   14.7316  -11.3624 C   0  0  0  0  0  0  0  0  0  0  0  0
   37.3803   14.6589  -11.1013 N   0  0  0  0  0  0  0  0  0  0  0  0
   37.7079   15.4911  -10.1112 C   0  0  0  0  0  0  0  0  0  0  0  0
   35.3490   13.9684  -12.3774 C   0  0  0  0  0  0  0  0  0  0  0  0
   35.6562   12.6439  -12.6091 C   0  0  0  0  0  0  0  0  0  0  0  0
   34.9900   11.8940  -13.5747 C   0  0  0  0  0  0  0  0  0  0  0  0
   33.9960   12.4789  -14.3251 C   0  0  0  0  0  0  0  0  0  0  0  0
   33.6736   13.7886  -14.1144 C   0  0  0  0  0  0  0  0  0  0  0  0
   34.3513   14.5289  -13.1411 C   0  0  0  0  0  0  0  0  0  0  0  0
   43.1387   13.4092  -13.9349 C   0  0  0  0  0  0  0  0  0  0  0  0
   43.3621   13.6484  -15.3202 N   0  0  0  0  0  0  0  0  0  0  0  0
   44.7112   13.9741  -15.6169 C   0  0  0  0  0  0  0  0  0  0  0  0
   45.6265   12.8343  -15.7602 C   0  0  0  0  0  0  0  0  0  0  0  0
   46.0339   12.0913  -14.8514 O   0  0  0  0  0  0  0  0  0  0  0  0
   46.1009   12.5397  -17.0535 O   0  0  0  0  0  0  0  0  0  0  0  0
   47.0681   12.7229  -17.2801 H   0  0  0  0  0  0  0  0  0  0  0  0
   42.7415   12.6848  -16.1796 C   0  0  0  0  0  0  0  0  0  0  0  0
   41.2857   12.6059  -16.1060 C   0  0  0  0  0  0  0  0  0  0  0  0
   40.4868   13.2732  -15.2064 C   0  0  0  0  0  0  0  0  0  0  0  0
   39.1082   13.1256  -15.2148 C   0  0  0  0  0  0  0  0  0  0  0  0
   38.4697   12.3073  -16.1203 C   0  0  0  0  0  0  0  0  0  0  0  0
   37.0965   12.1848  -16.0983 C   0  0  0  0  0  0  0  0  0  0  0  0
   36.4480   11.3661  -17.0011 C   0  0  0  0  0  0  0  0  0  0  0  0
   37.2201   10.6833  -17.9154 C   0  0  0  0  0  0  0  0  0  0  0  0
   38.6103   10.8092  -17.9359 C   0  0  0  0  0  0  0  0  0  0  0  0
   39.2564   11.6303  -17.0301 C   0  0  0  0  0  0  0  0  0  0  0  0
   40.6279   11.7806  -17.0176 C   0  0  0  0  0  0  0  0  0  0  0  0
 10 11  1  0  0  0
 11 12  1  0  0  0
 12 13  1  0  0  0
 13 16  1  0  0  0
 16 17  2  0  0  0
 17 18  1  0  0  0
 18 19  2  0  0  0
 19 20  1  0  0  0
 20 21  2  0  0  0
 13 14  2  0  0  0
 14 15  1  0  0  0
 15  9  1  0  0  0
  9  8  1  0  0  0
  8  7  1  0  0  0
  7  1  1  0  0  0
  1  2  2  0  0  0
  2  3  1  0  0  0
  3  4  2  0  0  0
  4  5  1  0  0  0
  5 22  1  0  0  0
 22 23  1  0  0  0
 23 24  1  0  0  0
 24 25  1  0  0  0
 25 26  2  0  0  0
 25 27  1  0  0  0
 23 29  1  0  0  0
 29 30  1  0  0  0
 30 31  2  0  0  0
 31 32  1  0  0  0
 32 33  2  0  0  0
 33 34  1  0  0  0
 34 35  2  0  0  0
 35 36  1  0  0  0
 36 37  2  0  0  0
 37 38  1  0  0  0
 38 39  2  0  0  0
  5  6  2  0  0  0
 15 11  2  0  0  0
  6  1  1  0  0  0
 21 16  1  0  0  0
 39 30  1  0  0  0
 38 33  1  0  0  0
 27 28  1  0  0  0
M  END
> <minimizedAffinity>
-9.16006

> <CNNscore>
0.2051336169

> <CNNaffinity>
6.5663046837

> <CNN_VS>
1.3469698429

> <CNNaffinity_variance>
0.7366420627

$$$$
[H]OC(=O)C([H])([H])N(C([H])([H])c1c([H])c([H])c([H])c(OC([H])([H])C([H])([H])c2nc(-c3c([H])c([H])c([H])c([H])c3[H])oc2C([H])([H])[H])c1[H])C([H])([H])c1c([H])c([H])c2c([H])c([H])c([H])c([H])c2c1[H]


 39 43  0  0  0  0  0  0  0  0999 V2000
   35.2000   15.0785  -11.8249 C   0  0  0  0  0  0  0  0  0  0  0  0
   36.5301   14.9716  -12.1180 C   0  0  0  0  0  0  0  0  0  0  0  0
   37.4611   15.5334  -11.2771 C   0  0  0  0  0  0  0  0  0  0  0  0
   37.1150   16.2117  -10.1304 C   0  0  0  0  0  0  0  0  0  0  0  0
   35.7844   16.3374   -9.8059 C   0  0  0  0  0  0  0  0  0  0  0  0
   34.8660   15.7737  -10.6517 C   0  0  0  0  0  0  0  0  0  0  0  0
   34.2170   14.5569  -12.5994 O   0  0  0  0  0  0  0  0  0  0  0  0
   34.1900   13.9427  -13.8145 C   0  0  0  0  0  0  0  0  0  0  0  0
   34.4016   12.4659  -13.8657 C   0  0  0  0  0  0  0  0  0  0  0  0
   33.6298   10.9711  -16.5149 C   0  0  0  0  0  0  0  0  0  0  0  0
   34.9891   11.4209  -16.1639 C   0  0  0  0  0  0  0  0  0  0  0  0
   36.0825   11.2789  -16.8788 O   0  0  0  0  0  0  0  0  0  0  0  0
   37.1055   11.8019  -16.2503 C   0  0  0  0  0  0  0  0  0  0  0  0
   36.6349   12.2945  -15.0897 N   0  0  0  0  0  0  0  0  0  0  0  0
   35.3217   12.0816  -14.9892 C   0  0  0  0  0  0  0  0  0  0  0  0
   38.4896   11.8522  -16.7010 C   0  0  0  0  0  0  0  0  0  0  0  0
   38.8954   11.1430  -17.8122 C   0  0  0  0  0  0  0  0  0  0  0  0
   40.2129   11.1738  -18.2616 C   0  0  0  0  0  0  0  0  0  0  0  0
   41.1451   11.9285  -17.5873 C   0  0  0  0  0  0  0  0  0  0  0  0
   40.7677   12.6394  -16.4846 C   0  0  0  0  0  0  0  0  0  0  0  0
   39.4411   12.5988  -16.0452 C   0  0  0  0  0  0  0  0  0  0  0  0
   35.4072   17.0634   -8.5881 C   0  0  0  0  0  0  0  0  0  0  0  0
   34.7733   16.2975   -7.5694 N   0  0  0  0  0  0  0  0  0  0  0  0
   35.6851   15.7907   -6.6072 C   0  0  0  0  0  0  0  0  0  0  0  0
   35.9238   14.3421   -6.6545 C   0  0  0  0  0  0  0  0  0  0  0  0
   36.2855   13.6819   -7.6431 O   0  0  0  0  0  0  0  0  0  0  0  0
   35.7266   13.6112   -5.4665 O   0  0  0  0  0  0  0  0  0  0  0  0
   34.9343   12.9889   -5.3934 H   0  0  0  0  0  0  0  0  0  0  0  0
   33.5802   16.8992   -7.0530 C   0  0  0  0  0  0  0  0  0  0  0  0
   32.3362   16.1826   -7.3177 C   0  0  0  0  0  0  0  0  0  0  0  0
   31.2002   16.7196   -7.8780 C   0  0  0  0  0  0  0  0  0  0  0  0
   30.0631   15.9533   -8.0832 C   0  0  0  0  0  0  0  0  0  0  0  0
   30.0120   14.6206   -7.7389 C   0  0  0  0  0  0  0  0  0  0  0  0
   28.8633   13.8900   -7.9574 C   0  0  0  0  0  0  0  0  0  0  0  0
   28.8024   12.5541   -7.6145 C   0  0  0  0  0  0  0  0  0  0  0  0
   29.9240   11.9863   -7.0506 C   0  0  0  0  0  0  0  0  0  0  0  0
   31.0859   12.7280   -6.8306 C   0  0  0  0  0  0  0  0  0  0  0  0
   31.1433   14.0658   -7.1756 C   0  0  0  0  0  0  0  0  0  0  0  0
   32.2725   14.8326   -6.9734 C   0  0  0  0  0  0  0  0  0  0  0  0
 10 11  1  0  0  0
 11 12  1  0  0  0
 12 13  1  0  0  0
 13 16  1  0  0  0
 16 17  2  0  0  0
 17 18  1  0  0  0
 18 19  2  0  0  0
 19 20  1  0  0  0
 20 21  2  0  0  0
 13 14  2  0  0  0
 14 15  1  0  0  0
 15  9  1  0  0  0
  9  8  1  0  0  0
  8  7  1  0  0  0
  7  1  1  0  0  0
  1  2  2  0  0  0
  2  3  1  0  0  0
  3  4  2  0  0  0
  4  5  1  0  0  0
  5 22  1  0  0  0
 22 23  1  0  0  0
 23 24  1  0  0  0
 24 25  1  0  0  0
 25 26  2  0  0  0
 25 27  1  0  0  0
 23 29  1  0  0  0
 29 30  1  0  0  0
 30 31  2  0  0  0
 31 32  1  0  0  0
 32 33  2  0  0  0
 33 34  1  0  0  0
 34 35  2  0  0  0
 35 36  1  0  0  0
 36 37  2  0  0  0
 37 38  1  0  0  0
 38 39  2  0  0  0
  5  6  2  0  0  0
 15 11  2  0  0  0
  6  1  1  0  0  0
 21 16  1  0  0  0
 39 30  1  0  0  0
 38 33  1  0  0  0
 27 28  1  0  0  0
M  END
> <minimizedAffinity>
-9.18995

> <CNNscore>
0.1799760908

> <CNNaffinity>
6.0085983276

> <CNN_VS>
1.0814040899

> <CNNaffinity_variance>
0.7793238759

$$$$
[H]OC(=O)C([H])([H])N(C([H])([H])c1c([H])c([H])c([H])c(OC([H])([H])C([H])([H])c2nc(-c3c([H])c([H])c([H])c([H])c3[H])oc2C([H])([H])[H])c1[H])C([H])([H])c1c([H])c([H])c2c([H])c([H])c([H])c([H])c2c1[H]


 39 43  0  0  0  0  0  0  0  0999 V2000
   35.8386   14.2354  -12.2068 C   0  0  0  0  0  0  0  0  0  0  0  0
   37.0058   14.3288  -12.9109 C   0  0  0  0  0  0  0  0  0  0  0  0
   38.1269   14.8466  -12.3071 C   0  0  0  0  0  0  0  0  0  0  0  0
   38.1345   15.2843  -11.0020 C   0  0  0  0  0  0  0  0  0  0  0  0
   36.9761   15.2040  -10.2651 C   0  0  0  0  0  0  0  0  0  0  0  0
   35.8654   14.6866  -10.8776 C   0  0  0  0  0  0  0  0  0  0  0  0
   34.6878   13.7403  -12.7250 O   0  0  0  0  0  0  0  0  0  0  0  0
   34.1459   13.7053  -13.9739 C   0  0  0  0  0  0  0  0  0  0  0  0
   33.8384   12.3739  -14.5747 C   0  0  0  0  0  0  0  0  0  0  0  0
   33.5121   10.5320  -17.0946 C   0  0  0  0  0  0  0  0  0  0  0  0
   34.7836   11.1222  -16.6383 C   0  0  0  0  0  0  0  0  0  0  0  0
   35.9675   10.9842  -17.1917 O   0  0  0  0  0  0  0  0  0  0  0  0
   36.8656   11.6526  -16.5121 C   0  0  0  0  0  0  0  0  0  0  0  0
   36.2183   12.2365  -15.4869 N   0  0  0  0  0  0  0  0  0  0  0  0
   34.9188   11.9361  -15.5219 C   0  0  0  0  0  0  0  0  0  0  0  0
   38.2908   11.7576  -16.7935 C   0  0  0  0  0  0  0  0  0  0  0  0
   39.1245   12.4679  -15.9551 C   0  0  0  0  0  0  0  0  0  0  0  0
   40.4895   12.5841  -16.2035 C   0  0  0  0  0  0  0  0  0  0  0  0
   41.0338   11.9785  -17.3127 C   0  0  0  0  0  0  0  0  0  0  0  0
   40.2292   11.2698  -18.1577 C   0  0  0  0  0  0  0  0  0  0  0  0
   38.8603   11.1618  -17.8951 C   0  0  0  0  0  0  0  0  0  0  0  0
   36.9747   15.6732   -8.8749 C   0  0  0  0  0  0  0  0  0  0  0  0
   38.0976   16.4493   -8.4714 N   0  0  0  0  0  0  0  0  0  0  0  0
   37.7847   17.8200   -8.2782 C   0  0  0  0  0  0  0  0  0  0  0  0
   36.5892   18.0943   -7.4700 C   0  0  0  0  0  0  0  0  0  0  0  0
   36.4739   17.9449   -6.2418 O   0  0  0  0  0  0  0  0  0  0  0  0
   35.4476   18.5762   -8.1400 O   0  0  0  0  0  0  0  0  0  0  0  0
   34.6442   17.9732   -8.2464 H   0  0  0  0  0  0  0  0  0  0  0  0
   38.8882   15.8320   -7.4485 C   0  0  0  0  0  0  0  0  0  0  0  0
   40.1491   15.2397   -7.8848 C   0  0  0  0  0  0  0  0  0  0  0  0
   40.6858   14.0585   -7.4271 C   0  0  0  0  0  0  0  0  0  0  0  0
   41.8982   13.5826   -7.9025 C   0  0  0  0  0  0  0  0  0  0  0  0
   42.6248   14.2642   -8.8535 C   0  0  0  0  0  0  0  0  0  0  0  0
   43.8273   13.7604   -9.3022 C   0  0  0  0  0  0  0  0  0  0  0  0
   44.5631   14.4372  -10.2542 C   0  0  0  0  0  0  0  0  0  0  0  0
   44.0529   15.6242  -10.7329 C   0  0  0  0  0  0  0  0  0  0  0  0
   42.8351   16.1322  -10.2772 C   0  0  0  0  0  0  0  0  0  0  0  0
   42.1007   15.4514   -9.3236 C   0  0  0  0  0  0  0  0  0  0  0  0
   40.8938   15.9208   -8.8474 C   0  0  0  0  0  0  0  0  0  0  0  0
 10 11  1  0  0  0
 11 12  1  0  0  0
 12 13  1  0  0  0
 13 16  1  0  0  0
 16 17  2  0  0  0
 17 18  1  0  0  0
 18 19  2  0  0  0
 19 20  1  0  0  0
 20 21  2  0  0  0
 13 14  2  0  0  0
 14 15  1  0  0  0
 15  9  1  0  0  0
  9  8  1  0  0  0
  8  7  1  0  0  0
  7  1  1  0  0  0
  1  2  2  0  0  0
  2  3  1  0  0  0
  3  4  2  0  0  0
  4  5  1  0  0  0
  5 22  1  0  0  0
 22 23  1  0  0  0
 23 24  1  0  0  0
 24 25  1  0  0  0
 25 26  2  0  0  0
 25 27  1  0  0  0
 23 29  1  0  0  0
 29 30  1  0  0  0
 30 31  2  0  0  0
 31 32  1  0  0  0
 32 33  2  0  0  0
 33 34  1  0  0  0
 34 35  2  0  0  0
 35 36  1  0  0  0
 36 37  2  0  0  0
 37 38  1  0  0  0
 38 39  2  0  0  0
  5  6  2  0  0  0
 15 11  2  0  0  0
  6  1  1  0  0  0
 21 16  1  0  0  0
 39 30  1  0  0  0
 38 33  1  0  0  0
 27 28  1  0  0  0
M  END
> <minimizedAffinity>
-8.34466

> <CNNscore>
0.1660163552

> <CNNaffinity>
6.1109337807

> <CNN_VS>
1.0145149231

> <CNNaffinity_variance>
0.6469862461

$$$$
[H]OC(=O)C([H])([H])N(C([H])([H])c1c([H])c([H])c([H])c(OC([H])([H])C([H])([H])c2nc(-c3c([H])c([H])c([H])c([H])c3[H])oc2C([H])([H])[H])c1[H])C([H])([H])c1c([H])c([H])c2c([H])c([H])c([H])c([H])c2c1[H]


 39 43  0  0  0  0  0  0  0  0999 V2000
   36.4929   15.3033   -9.9246 C   0  0  0  0  0  0  0  0  0  0  0  0
   36.7603   16.4914  -10.5438 C   0  0  0  0  0  0  0  0  0  0  0  0
   36.9705   17.6213   -9.7897 C   0  0  0  0  0  0  0  0  0  0  0  0
   36.9255   17.6171   -8.4139 C   0  0  0  0  0  0  0  0  0  0  0  0
   36.6590   16.4373   -7.7592 C   0  0  0  0  0  0  0  0  0  0  0  0
   36.4508   15.3181   -8.5213 C   0  0  0  0  0  0  0  0  0  0  0  0
   36.2712   14.1435  -10.5909 O   0  0  0  0  0  0  0  0  0  0  0  0
   36.5726   13.6931  -11.8402 C   0  0  0  0  0  0  0  0  0  0  0  0
   35.5606   12.8611  -12.5557 C   0  0  0  0  0  0  0  0  0  0  0  0
   33.8346   11.7558  -14.9322 C   0  0  0  0  0  0  0  0  0  0  0  0
   35.2939   11.9601  -14.9715 C   0  0  0  0  0  0  0  0  0  0  0  0
   36.1028   11.7224  -15.9795 O   0  0  0  0  0  0  0  0  0  0  0  0
   37.3346   12.0235  -15.6523 C   0  0  0  0  0  0  0  0  0  0  0  0
   37.2989   12.4702  -14.3834 N   0  0  0  0  0  0  0  0  0  0  0  0
   36.0498   12.4496  -13.9150 C   0  0  0  0  0  0  0  0  0  0  0  0
   38.5249   11.9063  -16.4836 C   0  0  0  0  0  0  0  0  0  0  0  0
   39.6845   12.5757  -16.1527 C   0  0  0  0  0  0  0  0  0  0  0  0
   40.8345   12.4809  -16.9320 C   0  0  0  0  0  0  0  0  0  0  0  0
   40.8264   11.7016  -18.0659 C   0  0  0  0  0  0  0  0  0  0  0  0
   39.6905   11.0292  -18.4144 C   0  0  0  0  0  0  0  0  0  0  0  0
   38.5436   11.1339  -17.6219 C   0  0  0  0  0  0  0  0  0  0  0  0
   36.6042   16.4255   -6.2931 C   0  0  0  0  0  0  0  0  0  0  0  0
   35.8060   15.4064   -5.7011 N   0  0  0  0  0  0  0  0  0  0  0  0
   36.5043   14.6526   -4.7223 C   0  0  0  0  0  0  0  0  0  0  0  0
   35.7500   13.5541   -4.1043 C   0  0  0  0  0  0  0  0  0  0  0  0
   35.4881   12.4533   -4.6178 O   0  0  0  0  0  0  0  0  0  0  0  0
   35.2665   13.7523   -2.7962 O   0  0  0  0  0  0  0  0  0  0  0  0
   34.2745   13.8717   -2.6475 H   0  0  0  0  0  0  0  0  0  0  0  0
   34.4887   15.8404   -5.3425 C   0  0  0  0  0  0  0  0  0  0  0  0
   33.3912   15.2464   -6.1000 C   0  0  0  0  0  0  0  0  0  0  0  0
   32.5836   14.2167   -5.6756 C   0  0  0  0  0  0  0  0  0  0  0  0
   31.5677   13.7172   -6.4761 C   0  0  0  0  0  0  0  0  0  0  0  0
   31.3150   14.2237   -7.7317 C   0  0  0  0  0  0  0  0  0  0  0  0
   30.2962   13.7012   -8.4998 C   0  0  0  0  0  0  0  0  0  0  0  0
   30.0364   14.2017   -9.7599 C   0  0  0  0  0  0  0  0  0  0  0  0
   30.8281   15.2336  -10.2145 C   0  0  0  0  0  0  0  0  0  0  0  0
   31.8589   15.7612   -9.4349 C   0  0  0  0  0  0  0  0  0  0  0  0
   32.1161   15.2574   -8.1731 C   0  0  0  0  0  0  0  0  0  0  0  0
   33.1259   15.7511   -7.3727 C   0  0  0  0  0  0  0  0  0  0  0  0
 10 11  1  0  0  0
 11 12  1  0  0  0
 12 13  1  0  0  0
 13 16  1  0  0  0
 16 17  2  0  0  0
 17 18  1  0  0  0
 18 19  2  0  0  0
 19 20  1  0  0  0
 20 21  2  0  0  0
 13 14  2  0  0  0
 14 15  1  0  0  0
 15  9  1  0  0  0
  9  8  1  0  0  0
  8  7  1  0  0  0
  7  1  1  0  0  0
  1  2  2  0  0  0
  2  3  1  0  0  0
  3  4  2  0  0  0
  4  5  1  0  0  0
  5 22  1  0  0  0
 22 23  1  0  0  0
 23 24  1  0  0  0
 24 25  1  0  0  0
 25 26  2  0  0  0
 25 27  1  0  0  0
 23 29  1  0  0  0
 29 30  1  0  0  0
 30 31  2  0  0  0
 31 32  1  0  0  0
 32 33  2  0  0  0
 33 34  1  0  0  0
 34 35  2  0  0  0
 35 36  1  0  0  0
 36 37  2  0  0  0
 37 38  1  0  0  0
 38 39  2  0  0  0
  5  6  2  0  0  0
 15 11  2  0  0  0
  6  1  1  0  0  0
 21 16  1  0  0  0
 39 30  1  0  0  0
 38 33  1  0  0  0
 27 28  1  0  0  0
M  END
> <minimizedAffinity>
-9.09335

> <CNNscore>
0.1611266732

> <CNNaffinity>
5.9814157486

> <CNN_VS>
0.9637656212

> <CNNaffinity_variance>
0.8666236997

$$$$
[H]OC(=O)C([H])([H])N(C([H])([H])c1c([H])c([H])c([H])c(OC([H])([H])C([H])([H])c2nc(-c3c([H])c([H])c([H])c([H])c3[H])oc2C([H])([H])[H])c1[H])C([H])([H])c1c([H])c([H])c2c([H])c([H])c([H])c([H])c2c1[H]


 39 43  0  0  0  0  0  0  0  0999 V2000
   38.4215   11.7312  -16.1368 C   0  0  0  0  0  0  0  0  0  0  0  0
   38.4897   10.9887  -17.2817 C   0  0  0  0  0  0  0  0  0  0  0  0
   39.5917   11.0919  -18.0968 C   0  0  0  0  0  0  0  0  0  0  0  0
   40.6527   11.9215  -17.8126 C   0  0  0  0  0  0  0  0  0  0  0  0
   40.6159   12.6825  -16.6677 C   0  0  0  0  0  0  0  0  0  0  0  0
   39.5125   12.5715  -15.8635 C   0  0  0  0  0  0  0  0  0  0  0  0
   37.3723   11.6920  -15.2790 O   0  0  0  0  0  0  0  0  0  0  0  0
   36.0870   12.1389  -15.3291 C   0  0  0  0  0  0  0  0  0  0  0  0
   35.8459   13.6101  -15.2533 C   0  0  0  0  0  0  0  0  0  0  0  0
   33.9829   14.2757  -12.8172 C   0  0  0  0  0  0  0  0  0  0  0  0
   35.4448   14.4640  -12.8390 C   0  0  0  0  0  0  0  0  0  0  0  0
   36.2006   14.9293  -11.8700 O   0  0  0  0  0  0  0  0  0  0  0  0
   37.4546   14.9559  -12.2468 C   0  0  0  0  0  0  0  0  0  0  0  0
   37.4889   14.4867  -13.5077 N   0  0  0  0  0  0  0  0  0  0  0  0
   36.2615   14.1668  -13.9215 C   0  0  0  0  0  0  0  0  0  0  0  0
   38.6030   15.4012  -11.4695 C   0  0  0  0  0  0  0  0  0  0  0  0
   39.7552   15.8285  -12.0956 C   0  0  0  0  0  0  0  0  0  0  0  0
   40.8665   16.2573  -11.3747 C   0  0  0  0  0  0  0  0  0  0  0  0
   40.8266   16.2593   -9.9993 C   0  0  0  0  0  0  0  0  0  0  0  0
   39.6973   15.8411   -9.3564 C   0  0  0  0  0  0  0  0  0  0  0  0
   38.5892   15.4134  -10.0938 C   0  0  0  0  0  0  0  0  0  0  0  0
   41.7406   13.5732  -16.3603 C   0  0  0  0  0  0  0  0  0  0  0  0
   42.6840   13.0910  -15.4098 N   0  0  0  0  0  0  0  0  0  0  0  0
   44.0208   13.4507  -15.7226 C   0  0  0  0  0  0  0  0  0  0  0  0
   44.9056   12.3443  -16.1106 C   0  0  0  0  0  0  0  0  0  0  0  0
   44.7436   11.5645  -17.0643 O   0  0  0  0  0  0  0  0  0  0  0  0
   46.0603   12.1312  -15.3322 O   0  0  0  0  0  0  0  0  0  0  0  0
   46.1105   11.3202  -14.7322 H   0  0  0  0  0  0  0  0  0  0  0  0
   42.2808   13.2820  -14.0485 C   0  0  0  0  0  0  0  0  0  0  0  0
   43.2648   13.9102  -13.1720 C   0  0  0  0  0  0  0  0  0  0  0  0
   44.0351   13.2652  -12.2322 C   0  0  0  0  0  0  0  0  0  0  0  0
   44.9407   13.9559  -11.4415 C   0  0  0  0  0  0  0  0  0  0  0  0
   45.1157   15.3173  -11.5555 C   0  0  0  0  0  0  0  0  0  0  0  0
   46.0254   15.9708  -10.7515 C   0  0  0  0  0  0  0  0  0  0  0  0
   46.2067   17.3352  -10.8578 C   0  0  0  0  0  0  0  0  0  0  0  0
   45.4497   18.0108  -11.7900 C   0  0  0  0  0  0  0  0  0  0  0  0
   44.5294   17.3470  -12.6031 C   0  0  0  0  0  0  0  0  0  0  0  0
   44.3507   15.9802  -12.4938 C   0  0  0  0  0  0  0  0  0  0  0  0
   43.4508   15.2883  -13.2783 C   0  0  0  0  0  0  0  0  0  0  0  0
 10 11  1  0  0  0
 11 12  1  0  0  0
 12 13  1  0  0  0
 13 16  1  0  0  0
 16 17  2  0  0  0
 17 18  1  0  0  0
 18 19  2  0  0  0
 19 20  1  0  0  0
 20 21  2  0  0  0
 13 14  2  0  0  0
 14 15  1  0  0  0
 15  9  1  0  0  0
  9  8  1  0  0  0
  8  7  1  0  0  0
  7  1  1  0  0  0
  1  2  2  0  0  0
  2  3  1  0  0  0
  3  4  2  0  0  0
  4  5  1  0  0  0
  5 22  1  0  0  0
 22 23  1  0  0  0
 23 24  1  0  0  0
 24 25  1  0  0  0
 25 26  2  0  0  0
 25 27  1  0  0  0
 23 29  1  0  0  0
 29 30  1  0  0  0
 30 31  2  0  0  0
 31 32  1  0  0  0
 32 33  2  0  0  0
 33 34  1  0  0  0
 34 35  2  0  0  0
 35 36  1  0  0  0
 36 37  2  0  0  0
 37 38  1  0  0  0
 38 39  2  0  0  0
  5  6  2  0  0  0
 15 11  2  0  0  0
  6  1  1  0  0  0
 21 16  1  0  0  0
 39 30  1  0  0  0
 38 33  1  0  0  0
 27 28  1  0  0  0
M  END
> <minimizedAffinity>
-8.73937

> <CNNscore>
0.1374666244

> <CNNaffinity>
6.1747350693

> <CNN_VS>
0.8488199711

> <CNNaffinity_variance>
0.7877022624

$$$$
[H]OC(=O)C([H])([H])N(C([H])([H])c1c([H])c([H])c([H])c(OC([H])([H])C([H])([H])c2nc(-c3c([H])c([H])c([H])c([H])c3[H])oc2C([H])([H])[H])c1[H])C([H])([H])c1c([H])c([H])c2c([H])c([H])c([H])c([H])c2c1[H]


 39 43  0  0  0  0  0  0  0  0999 V2000
   39.9383   16.0946  -10.7205 C   0  0  0  0  0  0  0  0  0  0  0  0
   40.1621   16.3991   -9.4075 C   0  0  0  0  0  0  0  0  0  0  0  0
   39.2270   16.0582   -8.4594 C   0  0  0  0  0  0  0  0  0  0  0  0
   38.0524   15.4115   -8.7712 C   0  0  0  0  0  0  0  0  0  0  0  0
   37.7963   15.0902  -10.0837 C   0  0  0  0  0  0  0  0  0  0  0  0
   38.7354   15.4354  -11.0195 C   0  0  0  0  0  0  0  0  0  0  0  0
   40.8051   16.3960  -11.7184 O   0  0  0  0  0  0  0  0  0  0  0  0
   41.1481   15.7966  -12.8921 C   0  0  0  0  0  0  0  0  0  0  0  0
   42.1528   14.6931  -12.8560 C   0  0  0  0  0  0  0  0  0  0  0  0
   44.6039   13.5362  -14.4379 C   0  0  0  0  0  0  0  0  0  0  0  0
   43.1914   13.3571  -14.8195 C   0  0  0  0  0  0  0  0  0  0  0  0
   42.7260   12.7003  -15.8582 O   0  0  0  0  0  0  0  0  0  0  0  0
   41.4176   12.7526  -15.8779 C   0  0  0  0  0  0  0  0  0  0  0  0
   41.0438   13.4734  -14.8047 N   0  0  0  0  0  0  0  0  0  0  0  0
   42.1129   13.8728  -14.1137 C   0  0  0  0  0  0  0  0  0  0  0  0
   40.5226   12.1543  -16.8590 C   0  0  0  0  0  0  0  0  0  0  0  0
   40.6548   12.4417  -18.2015 C   0  0  0  0  0  0  0  0  0  0  0  0
   39.8109   11.8838  -19.1580 C   0  0  0  0  0  0  0  0  0  0  0  0
   38.8135   11.0207  -18.7660 C   0  0  0  0  0  0  0  0  0  0  0  0
   38.6626   10.7205  -17.4428 C   0  0  0  0  0  0  0  0  0  0  0  0
   39.5178   11.2884  -16.4937 C   0  0  0  0  0  0  0  0  0  0  0  0
   36.5443   14.4055  -10.4248 C   0  0  0  0  0  0  0  0  0  0  0  0
   35.5310   15.2070  -11.0222 N   0  0  0  0  0  0  0  0  0  0  0  0
   35.0129   16.1933  -10.1431 C   0  0  0  0  0  0  0  0  0  0  0  0
   34.1433   15.6973   -9.0682 C   0  0  0  0  0  0  0  0  0  0  0  0
   34.4508   15.5514   -7.8732 O   0  0  0  0  0  0  0  0  0  0  0  0
   32.8226   15.3461   -9.4100 O   0  0  0  0  0  0  0  0  0  0  0  0
   32.5548   14.3721   -9.4165 H   0  0  0  0  0  0  0  0  0  0  0  0
   35.8501   15.6474  -12.3475 C   0  0  0  0  0  0  0  0  0  0  0  0
   35.9218   14.6057  -13.3677 C   0  0  0  0  0  0  0  0  0  0  0  0
   37.0396   14.2634  -14.0930 C   0  0  0  0  0  0  0  0  0  0  0  0
   37.0027   13.2590  -15.0480 C   0  0  0  0  0  0  0  0  0  0  0  0
   35.8505   12.5546  -15.3188 C   0  0  0  0  0  0  0  0  0  0  0  0
   35.8514   11.5624  -16.2763 C   0  0  0  0  0  0  0  0  0  0  0  0
   34.7011   10.8520  -16.5554 C   0  0  0  0  0  0  0  0  0  0  0  0
   33.5638   11.1711  -15.8462 C   0  0  0  0  0  0  0  0  0  0  0  0
   33.5654   12.1759  -14.8771 C   0  0  0  0  0  0  0  0  0  0  0  0
   34.7196   12.8852  -14.6001 C   0  0  0  0  0  0  0  0  0  0  0  0
   34.7614   13.8857  -13.6507 C   0  0  0  0  0  0  0  0  0  0  0  0
 10 11  1  0  0  0
 11 12  1  0  0  0
 12 13  1  0  0  0
 13 16  1  0  0  0
 16 17  2  0  0  0
 17 18  1  0  0  0
 18 19  2  0  0  0
 19 20  1  0  0  0
 20 21  2  0  0  0
 13 14  2  0  0  0
 14 15  1  0  0  0
 15  9  1  0  0  0
  9  8  1  0  0  0
  8  7  1  0  0  0
  7  1  1  0  0  0
  1  2  2  0  0  0
  2  3  1  0  0  0
  3  4  2  0  0  0
  4  5  1  0  0  0
  5 22  1  0  0  0
 22 23  1  0  0  0
 23 24  1  0  0  0
 24 25  1  0  0  0
 25 26  2  0  0  0
 25 27  1  0  0  0
 23 29  1  0  0  0
 29 30  1  0  0  0
 30 31  2  0  0  0
 31 32  1  0  0  0
 32 33  2  0  0  0
 33 34  1  0  0  0
 34 35  2  0  0  0
 35 36  1  0  0  0
 36 37  2  0  0  0
 37 38  1  0  0  0
 38 39  2  0  0  0
  5  6  2  0  0  0
 15 11  2  0  0  0
  6  1  1  0  0  0
 21 16  1  0  0  0
 39 30  1  0  0  0
 38 33  1  0  0  0
 27 28  1  0  0  0
M  END
> <minimizedAffinity>
-8.76782

> <CNNscore>
0.1266118735

> <CNNaffinity>
6.6312661171

> <CNN_VS>
0.8395970464

> <CNNaffinity_variance>
0.3687394261

$$$$
[H]OC(=O)C([H])([H])N(C([H])([H])c1c([H])c([H])c([H])c(OC([H])([H])C([H])([H])c2nc(-c3c([H])c([H])c([H])c([H])c3[H])oc2C([H])([H])[H])c1[H])C([H])([H])c1c([H])c([H])c2c([H])c([H])c([H])c([H])c2c1[H]


 39 43  0  0  0  0  0  0  0  0999 V2000
   41.1872   16.2083  -11.7563 C   0  0  0  0  0  0  0  0  0  0  0  0
   41.1458   16.2186  -10.3907 C   0  0  0  0  0  0  0  0  0  0  0  0
   42.3168   16.1690   -9.6725 C   0  0  0  0  0  0  0  0  0  0  0  0
   43.5551   16.1090  -10.2709 C   0  0  0  0  0  0  0  0  0  0  0  0
   43.6321   16.0973  -11.6440 C   0  0  0  0  0  0  0  0  0  0  0  0
   42.4585   16.1468  -12.3489 C   0  0  0  0  0  0  0  0  0  0  0  0
   40.0821   16.2522  -12.5405 O   0  0  0  0  0  0  0  0  0  0  0  0
   39.0732   15.3782  -12.8101 C   0  0  0  0  0  0  0  0  0  0  0  0
   37.8671   15.3968  -11.9309 C   0  0  0  0  0  0  0  0  0  0  0  0
   34.8372   15.6079  -11.1411 C   0  0  0  0  0  0  0  0  0  0  0  0
   35.3713   14.7608  -12.2229 C   0  0  0  0  0  0  0  0  0  0  0  0
   34.6912   13.9698  -13.0222 O   0  0  0  0  0  0  0  0  0  0  0  0
   35.4988   13.3726  -13.8626 C   0  0  0  0  0  0  0  0  0  0  0  0
   36.7407   13.8069  -13.5796 N   0  0  0  0  0  0  0  0  0  0  0  0
   36.7137   14.6734  -12.5655 C   0  0  0  0  0  0  0  0  0  0  0  0
   35.1436   12.4216  -14.9071 C   0  0  0  0  0  0  0  0  0  0  0  0
   36.0826   11.9989  -15.8246 C   0  0  0  0  0  0  0  0  0  0  0  0
   35.7671   11.0921  -16.8330 C   0  0  0  0  0  0  0  0  0  0  0  0
   34.4868   10.5970  -16.9275 C   0  0  0  0  0  0  0  0  0  0  0  0
   33.5395   11.0003  -16.0309 C   0  0  0  0  0  0  0  0  0  0  0  0
   33.8712   11.9113  -15.0237 C   0  0  0  0  0  0  0  0  0  0  0  0
   44.9480   16.0283  -12.2893 C   0  0  0  0  0  0  0  0  0  0  0  0
   44.9776   15.4770  -13.6013 N   0  0  0  0  0  0  0  0  0  0  0  0
   45.9456   16.0893  -14.4392 C   0  0  0  0  0  0  0  0  0  0  0  0
   47.2818   15.4796  -14.4226 C   0  0  0  0  0  0  0  0  0  0  0  0
   48.1238   15.5629  -13.5126 O   0  0  0  0  0  0  0  0  0  0  0  0
   47.6640   14.7198  -15.5455 O   0  0  0  0  0  0  0  0  0  0  0  0
   48.3679   15.0824  -16.1728 H   0  0  0  0  0  0  0  0  0  0  0  0
   44.9356   14.0453  -13.6267 C   0  0  0  0  0  0  0  0  0  0  0  0
   44.0917   13.4483  -14.6574 C   0  0  0  0  0  0  0  0  0  0  0  0
   44.5348   12.7565  -15.7610 C   0  0  0  0  0  0  0  0  0  0  0  0
   43.6489   12.2312  -16.6892 C   0  0  0  0  0  0  0  0  0  0  0  0
   42.2855   12.3736  -16.5552 C   0  0  0  0  0  0  0  0  0  0  0  0
   41.4347   11.8380  -17.4989 C   0  0  0  0  0  0  0  0  0  0  0  0
   40.0669   11.9767  -17.3736 C   0  0  0  0  0  0  0  0  0  0  0  0
   39.5911   12.6650  -16.2789 C   0  0  0  0  0  0  0  0  0  0  0  0
   40.4543   13.2061  -15.3246 C   0  0  0  0  0  0  0  0  0  0  0  0
   41.8238   13.0649  -15.4534 C   0  0  0  0  0  0  0  0  0  0  0  0
   42.7095   13.5858  -14.5325 C   0  0  0  0  0  0  0  0  0  0  0  0
 10 11  1  0  0  0
 11 12  1  0  0  0
 12 13  1  0  0  0
 13 16  1  0  0  0
 16 17  2  0  0  0
 17 18  1  0  0  0
 18 19  2  0  0  0
 19 20  1  0  0  0
 20 21  2  0  0  0
 13 14  2  0  0  0
 14 15  1  0  0  0
 15  9  1  0  0  0
  9  8  1  0  0  0
  8  7  1  0  0  0
  7  1  1  0  0  0
  1  2  2  0  0  0
  2  3  1  0  0  0
  3  4  2  0  0  0
  4  5  1  0  0  0
  5 22  1  0  0  0
 22 23  1  0  0  0
 23 24  1  0  0  0
 24 25  1  0  0  0
 25 26  2  0  0  0
 25 27  1  0  0  0
 23 29  1  0  0  0
 29 30  1  0  0  0
 30 31  2  0  0  0
 31 32  1  0  0  0
 32 33  2  0  0  0
 33 34  1  0  0  0
 34 35  2  0  0  0
 35 36  1  0  0  0
 36 37  2  0  0  0
 37 38  1  0  0  0
 38 39  2  0  0  0
  5  6  2  0  0  0
 15 11  2  0  0  0
  6  1  1  0  0  0
 21 16  1  0  0  0
 39 30  1  0  0  0
 38 33  1  0  0  0
 27 28  1  0  0  0
M  END
> <minimizedAffinity>
-9.52969

> <CNNscore>
0.1223705336

> <CNNaffinity>
6.5194473267

> <CNN_VS>
0.7977882624

> <CNNaffinity_variance>
0.2945232987

$$$$
[H]OC(=O)C([H])([H])N(C([H])([H])c1c([H])c([H])c([H])c(OC([H])([H])C([H])([H])c2nc(-c3c([H])c([H])c([H])c([H])c3[H])oc2C([H])([H])[H])c1[H])C([H])([H])c1c([H])c([H])c2c([H])c([H])c([H])c([H])c2c1[H]


 39 43  0  0  0  0  0  0  0  0999 V2000
   43.2155   13.6382  -13.3531 C   0  0  0  0  0  0  0  0  0  0  0  0
   44.4736   13.1059  -13.3720 C   0  0  0  0  0  0  0  0  0  0  0  0
   45.3433   13.3745  -12.3419 C   0  0  0  0  0  0  0  0  0  0  0  0
   45.0045   14.1683  -11.2695 C   0  0  0  0  0  0  0  0  0  0  0  0
   43.7455   14.7195  -11.2196 C   0  0  0  0  0  0  0  0  0  0  0  0
   42.8878   14.4450  -12.2519 C   0  0  0  0  0  0  0  0  0  0  0  0
   42.2969   13.4265  -14.3276 O   0  0  0  0  0  0  0  0  0  0  0  0
   42.2980   13.5707  -15.6817 C   0  0  0  0  0  0  0  0  0  0  0  0
   41.8854   12.4049  -16.5178 C   0  0  0  0  0  0  0  0  0  0  0  0
   40.0721   11.3199  -18.8380 C   0  0  0  0  0  0  0  0  0  0  0  0
   39.5874   11.7261  -17.5063 C   0  0  0  0  0  0  0  0  0  0  0  0
   38.3476   11.7047  -17.0714 O   0  0  0  0  0  0  0  0  0  0  0  0
   38.2935   12.1373  -15.8365 C   0  0  0  0  0  0  0  0  0  0  0  0
   39.5542   12.4440  -15.4792 N   0  0  0  0  0  0  0  0  0  0  0  0
   40.3970   12.2053  -16.4855 C   0  0  0  0  0  0  0  0  0  0  0  0
   37.1114   12.2683  -14.9956 C   0  0  0  0  0  0  0  0  0  0  0  0
   37.1917   12.0786  -13.6319 C   0  0  0  0  0  0  0  0  0  0  0  0
   36.0759   12.1967  -12.8075 C   0  0  0  0  0  0  0  0  0  0  0  0
   34.8538   12.5105  -13.3563 C   0  0  0  0  0  0  0  0  0  0  0  0
   34.7488   12.7031  -14.7038 C   0  0  0  0  0  0  0  0  0  0  0  0
   35.8780   12.5813  -15.5189 C   0  0  0  0  0  0  0  0  0  0  0  0
   43.3784   15.5709  -10.0824 C   0  0  0  0  0  0  0  0  0  0  0  0
   42.2318   15.1701   -9.3402 N   0  0  0  0  0  0  0  0  0  0  0  0
   42.5575   14.4570   -8.1572 C   0  0  0  0  0  0  0  0  0  0  0  0
   41.4710   13.6602   -7.5723 C   0  0  0  0  0  0  0  0  0  0  0  0
   41.1646   12.4931   -7.8688 O   0  0  0  0  0  0  0  0  0  0  0  0
   40.6858   14.2662   -6.5719 O   0  0  0  0  0  0  0  0  0  0  0  0
   39.7318   14.5248   -6.7798 H   0  0  0  0  0  0  0  0  0  0  0  0
   41.2431   16.1981   -9.2058 C   0  0  0  0  0  0  0  0  0  0  0  0
   40.0406   16.0391  -10.0181 C   0  0  0  0  0  0  0  0  0  0  0  0
   40.0081   15.8317  -11.3777 C   0  0  0  0  0  0  0  0  0  0  0  0
   38.8088   15.6989  -12.0607 C   0  0  0  0  0  0  0  0  0  0  0  0
   37.5933   15.7670  -11.4165 C   0  0  0  0  0  0  0  0  0  0  0  0
   36.4206   15.6311  -12.1289 C   0  0  0  0  0  0  0  0  0  0  0  0
   35.1977   15.6992  -11.4920 C   0  0  0  0  0  0  0  0  0  0  0  0
   35.1962   15.9067  -10.1299 C   0  0  0  0  0  0  0  0  0  0  0  0
   36.3847   16.0438   -9.4107 C   0  0  0  0  0  0  0  0  0  0  0  0
   37.6078   15.9747  -10.0521 C   0  0  0  0  0  0  0  0  0  0  0  0
   38.8040   16.1063   -9.3769 C   0  0  0  0  0  0  0  0  0  0  0  0
 10 11  1  0  0  0
 11 12  1  0  0  0
 12 13  1  0  0  0
 13 16  1  0  0  0
 16 17  2  0  0  0
 17 18  1  0  0  0
 18 19  2  0  0  0
 19 20  1  0  0  0
 20 21  2  0  0  0
 13 14  2  0  0  0
 14 15  1  0  0  0
 15  9  1  0  0  0
  9  8  1  0  0  0
  8  7  1  0  0  0
  7  1  1  0  0  0
  1  2  2  0  0  0
  2  3  1  0  0  0
  3  4  2  0  0  0
  4  5  1  0  0  0
  5 22  1  0  0  0
 22 23  1  0  0  0
 23 24  1  0  0  0
 24 25  1  0  0  0
 25 26  2  0  0  0
 25 27  1  0  0  0
 23 29  1  0  0  0
 29 30  1  0  0  0
 30 31  2  0  0  0
 31 32  1  0  0  0
 32 33  2  0  0  0
 33 34  1  0  0  0
 34 35  2  0  0  0
 35 36  1  0  0  0
 36 37  2  0  0  0
 37 38  1  0  0  0
 38 39  2  0  0  0
  5  6  2  0  0  0
 15 11  2  0  0  0
  6  1  1  0  0  0
 21 16  1  0  0  0
 39 30  1  0  0  0
 38 33  1  0  0  0
 27 28  1  0  0  0
M  END
> <minimizedAffinity>
-7.76564

> <CNNscore>
0.1174116880

> <CNNaffinity>
6.0758666992

> <CNN_VS>
0.7133777738

> <CNNaffinity_variance>
0.8684675097

$$$$
[H]c1nc([H])c(N([H])C2([H])C([H])([H])N(C(=O)c3c(C([H])([H])[H])noc3C([H])([H])[H])C2([H])[H])c([H])c1N1C(=O)c2c([H])c([H])c(Cl)c([H])c2C([H])([H])C1([H])[H]


 33 37  0  0  0  0  0  0  0  0999 V2000
   36.3599   15.0171  -12.2262 C   0  0  0  0  0  0  0  0  0  0  0  0
   35.6378   14.5645  -11.1120 C   0  0  0  0  0  0  0  0  0  0  0  0
   36.2090   14.5583   -9.8981 N   0  0  0  0  0  0  0  0  0  0  0  0
   37.4828   14.9824   -9.7096 C   0  0  0  0  0  0  0  0  0  0  0  0
   38.2547   15.4418  -10.7588 C   0  0  0  0  0  0  0  0  0  0  0  0
   37.6516   15.4443  -12.0184 C   0  0  0  0  0  0  0  0  0  0  0  0
   39.5835   15.8992  -10.5693 N   0  0  0  0  0  0  0  0  0  0  0  0
   40.0327   16.1137   -9.2113 C   0  0  0  0  0  0  0  0  0  0  0  0
   41.4735   15.7881   -9.0084 C   0  0  0  0  0  0  0  0  0  0  0  0
   42.3043   15.9812  -10.2132 C   0  0  0  0  0  0  0  0  0  0  0  0
   43.6822   15.9975  -10.0070 C   0  0  0  0  0  0  0  0  0  0  0  0
   44.5612   16.1812  -11.0795 C   0  0  0  0  0  0  0  0  0  0  0  0
   46.2985   16.2015  -10.8357 Cl  0  0  0  0  0  0  0  0  0  0  0  0
   44.0923   16.3523  -12.3737 C   0  0  0  0  0  0  0  0  0  0  0  0
   42.7128   16.3301  -12.5401 C   0  0  0  0  0  0  0  0  0  0  0  0
   41.8526   16.1482  -11.4807 C   0  0  0  0  0  0  0  0  0  0  0  0
   40.4078   16.1122  -11.7138 C   0  0  0  0  0  0  0  0  0  0  0  0
   39.9502   16.2633  -12.8683 O   0  0  0  0  0  0  0  0  0  0  0  0
   35.7222   15.0164  -13.4858 N   0  0  0  0  0  0  0  0  0  0  0  0
   35.7264   15.9031  -14.0455 H   0  0  0  0  0  0  0  0  0  0  0  0
   37.9234   12.0731  -14.8940 C   0  0  0  0  0  0  0  0  0  0  0  0
   38.2965   11.4451  -13.7746 O   0  0  0  0  0  0  0  0  0  0  0  0
   36.6436   12.6210  -14.7447 N   0  0  0  0  0  0  0  0  0  0  0  0
   35.7435   12.5353  -13.5410 C   0  0  0  0  0  0  0  0  0  0  0  0
   35.0864   13.8049  -13.9693 C   0  0  0  0  0  0  0  0  0  0  0  0
   35.6125   13.3756  -15.3420 C   0  0  0  0  0  0  0  0  0  0  0  0
   37.4191   10.6201  -17.5810 C   0  0  0  0  0  0  0  0  0  0  0  0
   38.6300   11.3908  -17.1790 C   0  0  0  0  0  0  0  0  0  0  0  0
   39.7040   11.5743  -17.9600 N   0  0  0  0  0  0  0  0  0  0  0  0
   40.5592   12.2711  -17.3383 O   0  0  0  0  0  0  0  0  0  0  0  0
   40.1013   12.5880  -16.1145 C   0  0  0  0  0  0  0  0  0  0  0  0
   40.8875   13.3930  -15.1774 C   0  0  0  0  0  0  0  0  0  0  0  0
   38.8688   12.0504  -15.9558 C   0  0  0  0  0  0  0  0  0  0  0  0
 27 28  1  0  0  0
 28 29  2  0  0  0
 29 30  1  0  0  0
 30 31  1  0  0  0
 31 32  1  0  0  0
 31 33  2  0  0  0
 33 21  1  0  0  0
 21 22  2  0  0  0
 21 23  1  0  0  0
 23 24  1  0  0  0
 24 25  1  0  0  0
 25 19  1  0  0  0
 19  1  1  0  0  0
  1  2  2  0  0  0
  2  3  1  0  0  0
  3  4  2  0  0  0
  4  5  1  0  0  0
  5  7  1  0  0  0
  7  8  1  0  0  0
  8  9  1  0  0  0
  9 10  1  0  0  0
 10 11  2  0  0  0
 11 12  1  0  0  0
 12 13  1  0  0  0
 12 14  2  0  0  0
 14 15  1  0  0  0
 15 16  2  0  0  0
 16 17  1  0  0  0
 17 18  2  0  0  0
  5  6  2  0  0  0
 25 26  1  0  0  0
 33 28  1  0  0  0
 26 23  1  0  0  0
  6  1  1  0  0  0
 17  7  1  0  0  0
 16 10  1  0  0  0
 19 20  1  0  0  0
M  END
> <minimizedAffinity>
-9.52424

> <CNNscore>
0.4944557548

> <CNNaffinity>
6.9464311600

> <CNN_VS>
3.4347028732

> <CNNaffinity_variance>
0.1307938844

$$$$
[H]c1nc([H])c(N([H])C2([H])C([H])([H])N(C(=O)c3c(C([H])([H])[H])noc3C([H])([H])[H])C2([H])[H])c([H])c1N1C(=O)c2c([H])c([H])c(Cl)c([H])c2C([H])([H])C1([H])[H]


 33 37  0  0  0  0  0  0  0  0999 V2000
   37.0121   15.0484  -13.4794 C   0  0  0  0  0  0  0  0  0  0  0  0
   38.3904   14.9254  -13.7097 C   0  0  0  0  0  0  0  0  0  0  0  0
   39.2631   15.2044  -12.7298 N   0  0  0  0  0  0  0  0  0  0  0  0
   38.8499   15.6081  -11.5033 C   0  0  0  0  0  0  0  0  0  0  0  0
   37.5094   15.7517  -11.2030 C   0  0  0  0  0  0  0  0  0  0  0  0
   36.6086   15.4592  -12.2294 C   0  0  0  0  0  0  0  0  0  0  0  0
   37.0672   16.1612   -9.9195 N   0  0  0  0  0  0  0  0  0  0  0  0
   37.5150   17.4479   -9.4337 C   0  0  0  0  0  0  0  0  0  0  0  0
   36.4959   18.1522   -8.6040 C   0  0  0  0  0  0  0  0  0  0  0  0
   35.5880   17.2441   -7.8761 C   0  0  0  0  0  0  0  0  0  0  0  0
   34.8335   17.8239   -6.8583 C   0  0  0  0  0  0  0  0  0  0  0  0
   33.9464   17.0522   -6.1005 C   0  0  0  0  0  0  0  0  0  0  0  0
   32.9880   17.7687   -4.8176 Cl  0  0  0  0  0  0  0  0  0  0  0  0
   33.7911   15.6941   -6.3363 C   0  0  0  0  0  0  0  0  0  0  0  0
   34.5599   15.1516   -7.3589 C   0  0  0  0  0  0  0  0  0  0  0  0
   35.4308   15.9164   -8.1018 C   0  0  0  0  0  0  0  0  0  0  0  0
   36.2023   15.2992   -9.1821 C   0  0  0  0  0  0  0  0  0  0  0  0
   36.0870   14.0769   -9.4222 O   0  0  0  0  0  0  0  0  0  0  0  0
   36.1245   14.7379  -14.5325 N   0  0  0  0  0  0  0  0  0  0  0  0
   35.8721   15.4974  -15.2100 H   0  0  0  0  0  0  0  0  0  0  0  0
   38.4259   11.8219  -15.8330 C   0  0  0  0  0  0  0  0  0  0  0  0
   39.0876   11.4749  -14.7246 O   0  0  0  0  0  0  0  0  0  0  0  0
   37.1309   12.2498  -15.5163 N   0  0  0  0  0  0  0  0  0  0  0  0
   36.4927   12.3129  -14.1542 C   0  0  0  0  0  0  0  0  0  0  0  0
   35.5912   13.3936  -14.6509 C   0  0  0  0  0  0  0  0  0  0  0  0
   35.9087   12.7553  -16.0063 C   0  0  0  0  0  0  0  0  0  0  0  0
   41.2966   12.9127  -16.2258 C   0  0  0  0  0  0  0  0  0  0  0  0
   40.4596   12.1814  -17.2189 C   0  0  0  0  0  0  0  0  0  0  0  0
   40.8544   11.8768  -18.4633 N   0  0  0  0  0  0  0  0  0  0  0  0
   39.9249   11.2542  -19.0566 O   0  0  0  0  0  0  0  0  0  0  0  0
   38.8655   11.1111  -18.2411 C   0  0  0  0  0  0  0  0  0  0  0  0
   37.6452   10.4245  -18.6694 C   0  0  0  0  0  0  0  0  0  0  0  0
   39.1501   11.6865  -17.0490 C   0  0  0  0  0  0  0  0  0  0  0  0
 27 28  1  0  0  0
 28 29  2  0  0  0
 29 30  1  0  0  0
 30 31  1  0  0  0
 31 32  1  0  0  0
 31 33  2  0  0  0
 33 21  1  0  0  0
 21 22  2  0  0  0
 21 23  1  0  0  0
 23 24  1  0  0  0
 24 25  1  0  0  0
 25 19  1  0  0  0
 19  1  1  0  0  0
  1  2  2  0  0  0
  2  3  1  0  0  0
  3  4  2  0  0  0
  4  5  1  0  0  0
  5  7  1  0  0  0
  7  8  1  0  0  0
  8  9  1  0  0  0
  9 10  1  0  0  0
 10 11  2  0  0  0
 11 12  1  0  0  0
 12 13  1  0  0  0
 12 14  2  0  0  0
 14 15  1  0  0  0
 15 16  2  0  0  0
 16 17  1  0  0  0
 17 18  2  0  0  0
  5  6  2  0  0  0
 25 26  1  0  0  0
 33 28  1  0  0  0
 26 23  1  0  0  0
  6  1  1  0  0  0
 17  7  1  0  0  0
 16 10  1  0  0  0
 19 20  1  0  0  0
M  END
> <minimizedAffinity>
-8.82980

> <CNNscore>
0.4462285638

> <CNNaffinity>
6.8833899498

> <CNN_VS>
3.0715651512

> <CNNaffinity_variance>
0.1426711082

$$$$
[H]c1nc([H])c(N([H])C2([H])C([H])([H])N(C(=O)c3c(C([H])([H])[H])noc3C([H])([H])[H])C2([H])[H])c([H])c1N1C(=O)c2c([H])c([H])c(Cl)c([H])c2C([H])([H])C1([H])[H]


 33 37  0  0  0  0  0  0  0  0999 V2000
   37.0272   15.0548  -13.4962 C   0  0  0  0  0  0  0  0  0  0  0  0
   38.4002   14.8474  -13.6951 C   0  0  0  0  0  0  0  0  0  0  0  0
   39.2736   15.1497  -12.7228 N   0  0  0  0  0  0  0  0  0  0  0  0
   38.8659   15.6579  -11.5338 C   0  0  0  0  0  0  0  0  0  0  0  0
   37.5308   15.8889  -11.2658 C   0  0  0  0  0  0  0  0  0  0  0  0
   36.6293   15.5712  -12.2840 C   0  0  0  0  0  0  0  0  0  0  0  0
   37.0939   16.4082  -10.0207 N   0  0  0  0  0  0  0  0  0  0  0  0
   36.3338   15.5318   -9.1569 C   0  0  0  0  0  0  0  0  0  0  0  0
   36.6014   15.7552   -7.7073 C   0  0  0  0  0  0  0  0  0  0  0  0
   36.9830   17.1425   -7.3778 C   0  0  0  0  0  0  0  0  0  0  0  0
   36.9384   17.4824   -6.0273 C   0  0  0  0  0  0  0  0  0  0  0  0
   37.2735   18.7735   -5.6058 C   0  0  0  0  0  0  0  0  0  0  0  0
   37.2245   19.2153   -3.9087 Cl  0  0  0  0  0  0  0  0  0  0  0  0
   37.6579   19.7501   -6.5129 C   0  0  0  0  0  0  0  0  0  0  0  0
   37.6905   19.3740   -7.8503 C   0  0  0  0  0  0  0  0  0  0  0  0
   37.3602   18.1016   -8.2591 C   0  0  0  0  0  0  0  0  0  0  0  0
   37.4313   17.7514   -9.6787 C   0  0  0  0  0  0  0  0  0  0  0  0
   37.7739   18.6075  -10.5242 O   0  0  0  0  0  0  0  0  0  0  0  0
   36.1383   14.7168  -14.5396 N   0  0  0  0  0  0  0  0  0  0  0  0
   35.8751   15.4617  -15.2292 H   0  0  0  0  0  0  0  0  0  0  0  0
   38.4488   11.8118  -15.8485 C   0  0  0  0  0  0  0  0  0  0  0  0
   39.1351   11.4857  -14.7487 O   0  0  0  0  0  0  0  0  0  0  0  0
   37.1551   12.2287  -15.5126 N   0  0  0  0  0  0  0  0  0  0  0  0
   36.5417   12.3009  -14.1396 C   0  0  0  0  0  0  0  0  0  0  0  0
   35.6186   13.3651  -14.6321 C   0  0  0  0  0  0  0  0  0  0  0  0
   35.9181   12.7142  -15.9856 C   0  0  0  0  0  0  0  0  0  0  0  0
   41.3114   12.9022  -16.2976 C   0  0  0  0  0  0  0  0  0  0  0  0
   40.4577   12.1648  -17.2718 C   0  0  0  0  0  0  0  0  0  0  0  0
   40.8309   11.8535  -18.5212 N   0  0  0  0  0  0  0  0  0  0  0  0
   39.8917   11.2270  -19.0946 O   0  0  0  0  0  0  0  0  0  0  0  0
   38.8468   11.0878  -18.2599 C   0  0  0  0  0  0  0  0  0  0  0  0
   37.6197   10.3980  -18.6630 C   0  0  0  0  0  0  0  0  0  0  0  0
   39.1518   11.6700  -17.0763 C   0  0  0  0  0  0  0  0  0  0  0  0
 27 28  1  0  0  0
 28 29  2  0  0  0
 29 30  1  0  0  0
 30 31  1  0  0  0
 31 32  1  0  0  0
 31 33  2  0  0  0
 33 21  1  0  0  0
 21 22  2  0  0  0
 21 23  1  0  0  0
 23 24  1  0  0  0
 24 25  1  0  0  0
 25 19  1  0  0  0
 19  1  1  0  0  0
  1  2  2  0  0  0
  2  3  1  0  0  0
  3  4  2  0  0  0
  4  5  1  0  0  0
  5  7  1  0  0  0
  7  8  1  0  0  0
  8  9  1  0  0  0
  9 10  1  0  0  0
 10 11  2  0  0  0
 11 12  1  0  0  0
 12 13  1  0  0  0
 12 14  2  0  0  0
 14 15  1  0  0  0
 15 16  2  0  0  0
 16 17  1  0  0  0
 17 18  2  0  0  0
  5  6  2  0  0  0
 25 26  1  0  0  0
 33 28  1  0  0  0
 26 23  1  0  0  0
  6  1  1  0  0  0
 17  7  1  0  0  0
 16 10  1  0  0  0
 19 20  1  0  0  0
M  END
> <minimizedAffinity>
-9.03477

> <CNNscore>
0.4444572628

> <CNNaffinity>
6.8812384605

> <CNN_VS>
3.0584163666

> <CNNaffinity_variance>
0.1363897622

$$$$
[H]c1nc([H])c(N([H])C2([H])C([H])([H])N(C(=O)c3c(C([H])([H])[H])noc3C([H])([H])[H])C2([H])[H])c([H])c1N1C(=O)c2c([H])c([H])c(Cl)c([H])c2C([H])([H])C1([H])[H]


 33 37  0  0  0  0  0  0  0  0999 V2000
   43.1313   13.6102  -14.2561 C   0  0  0  0  0  0  0  0  0  0  0  0
   44.2304   13.2015  -15.0259 C   0  0  0  0  0  0  0  0  0  0  0  0
   44.0359   12.6006  -16.2095 N   0  0  0  0  0  0  0  0  0  0  0  0
   42.7908   12.3713  -16.6943 C   0  0  0  0  0  0  0  0  0  0  0  0
   41.6614   12.7458  -15.9928 C   0  0  0  0  0  0  0  0  0  0  0  0
   41.8740   13.3704  -14.7619 C   0  0  0  0  0  0  0  0  0  0  0  0
   40.3554   12.5216  -16.4976 N   0  0  0  0  0  0  0  0  0  0  0  0
   40.2354   11.9029  -17.7994 C   0  0  0  0  0  0  0  0  0  0  0  0
   39.0545   11.0004  -17.9169 C   0  0  0  0  0  0  0  0  0  0  0  0
   37.9181   11.3901  -17.0591 C   0  0  0  0  0  0  0  0  0  0  0  0
   36.6977   10.7849  -17.3524 C   0  0  0  0  0  0  0  0  0  0  0  0
   35.5542   11.0882  -16.6060 C   0  0  0  0  0  0  0  0  0  0  0  0
   34.0115   10.3323  -16.9619 Cl  0  0  0  0  0  0  0  0  0  0  0  0
   35.5983   11.9953  -15.5575 C   0  0  0  0  0  0  0  0  0  0  0  0
   36.8321   12.5781  -15.2949 C   0  0  0  0  0  0  0  0  0  0  0  0
   37.9544   12.2752  -16.0326 C   0  0  0  0  0  0  0  0  0  0  0  0
   39.2349   12.9022  -15.7009 C   0  0  0  0  0  0  0  0  0  0  0  0
   39.3109   13.7251  -14.7616 O   0  0  0  0  0  0  0  0  0  0  0  0
   43.3761   14.2466  -13.0199 N   0  0  0  0  0  0  0  0  0  0  0  0
   42.7048   14.9859  -12.6999 H   0  0  0  0  0  0  0  0  0  0  0  0
   45.5968   17.0225  -11.3305 C   0  0  0  0  0  0  0  0  0  0  0  0
   44.9097   17.2872  -10.2149 O   0  0  0  0  0  0  0  0  0  0  0  0
   45.4600   15.6740  -11.6814 N   0  0  0  0  0  0  0  0  0  0  0  0
   44.6916   14.6080  -10.9466 C   0  0  0  0  0  0  0  0  0  0  0  0
   44.5340   13.8665  -12.2322 C   0  0  0  0  0  0  0  0  0  0  0  0
   45.7860   14.6635  -12.6099 C   0  0  0  0  0  0  0  0  0  0  0  0
   48.6128   17.5438  -10.8638 C   0  0  0  0  0  0  0  0  0  0  0  0
   47.6685   18.3520  -11.6865 C   0  0  0  0  0  0  0  0  0  0  0  0
   48.0118   19.4528  -12.3702 N   0  0  0  0  0  0  0  0  0  0  0  0
   46.9930   19.9085  -12.9685 O   0  0  0  0  0  0  0  0  0  0  0  0
   45.9209   19.1373  -12.7163 C   0  0  0  0  0  0  0  0  0  0  0  0
   44.6038   19.4316  -13.2845 C   0  0  0  0  0  0  0  0  0  0  0  0
   46.2933   18.1239  -11.8993 C   0  0  0  0  0  0  0  0  0  0  0  0
 27 28  1  0  0  0
 28 29  2  0  0  0
 29 30  1  0  0  0
 30 31  1  0  0  0
 31 32  1  0  0  0
 31 33  2  0  0  0
 33 21  1  0  0  0
 21 22  2  0  0  0
 21 23  1  0  0  0
 23 24  1  0  0  0
 24 25  1  0  0  0
 25 19  1  0  0  0
 19  1  1  0  0  0
  1  2  2  0  0  0
  2  3  1  0  0  0
  3  4  2  0  0  0
  4  5  1  0  0  0
  5  7  1  0  0  0
  7  8  1  0  0  0
  8  9  1  0  0  0
  9 10  1  0  0  0
 10 11  2  0  0  0
 11 12  1  0  0  0
 12 13  1  0  0  0
 12 14  2  0  0  0
 14 15  1  0  0  0
 15 16  2  0  0  0
 16 17  1  0  0  0
 17 18  2  0  0  0
  5  6  2  0  0  0
 25 26  1  0  0  0
 33 28  1  0  0  0
 26 23  1  0  0  0
  6  1  1  0  0  0
 17  7  1  0  0  0
 16 10  1  0  0  0
 19 20  1  0  0  0
M  END
> <minimizedAffinity>
-9.53092

> <CNNscore>
0.3787241280

> <CNNaffinity>
6.6037421227

> <CNN_VS>
2.5009965897

> <CNNaffinity_variance>
0.2365985364

$$$$
[H]c1nc([H])c(N([H])C2([H])C([H])([H])N(C(=O)c3c(C([H])([H])[H])noc3C([H])([H])[H])C2([H])[H])c([H])c1N1C(=O)c2c([H])c([H])c(Cl)c([H])c2C([H])([H])C1([H])[H]


 33 37  0  0  0  0  0  0  0  0999 V2000
   43.6070   13.9272  -14.2458 C   0  0  0  0  0  0  0  0  0  0  0  0
   44.6994   13.3339  -14.8957 C   0  0  0  0  0  0  0  0  0  0  0  0
   44.5006   12.5552  -15.9698 N   0  0  0  0  0  0  0  0  0  0  0  0
   43.2574   12.3187  -16.4562 C   0  0  0  0  0  0  0  0  0  0  0  0
   42.1346   12.8686  -15.8691 C   0  0  0  0  0  0  0  0  0  0  0  0
   42.3516   13.6776  -14.7516 C   0  0  0  0  0  0  0  0  0  0  0  0
   40.8315   12.6372  -16.3782 N   0  0  0  0  0  0  0  0  0  0  0  0
   40.7194   12.0336  -17.6878 C   0  0  0  0  0  0  0  0  0  0  0  0
   39.5480   11.1204  -17.8180 C   0  0  0  0  0  0  0  0  0  0  0  0
   38.4067   11.4876  -16.9569 C   0  0  0  0  0  0  0  0  0  0  0  0
   37.1930   10.8735  -17.2592 C   0  0  0  0  0  0  0  0  0  0  0  0
   36.0455   11.1556  -16.5105 C   0  0  0  0  0  0  0  0  0  0  0  0
   34.5111   10.3883  -16.8777 Cl  0  0  0  0  0  0  0  0  0  0  0  0
   36.0790   12.0500  -15.4508 C   0  0  0  0  0  0  0  0  0  0  0  0
   37.3065   12.6423  -15.1794 C   0  0  0  0  0  0  0  0  0  0  0  0
   38.4327   12.3602  -15.9194 C   0  0  0  0  0  0  0  0  0  0  0  0
   39.7063   12.9963  -15.5783 C   0  0  0  0  0  0  0  0  0  0  0  0
   39.7727   13.8081  -14.6288 O   0  0  0  0  0  0  0  0  0  0  0  0
   43.8567   14.7469  -13.1237 N   0  0  0  0  0  0  0  0  0  0  0  0
   44.2834   15.6914  -13.2833 H   0  0  0  0  0  0  0  0  0  0  0  0
   46.5399   12.8029  -10.9994 C   0  0  0  0  0  0  0  0  0  0  0  0
   47.2544   13.8023  -10.4726 O   0  0  0  0  0  0  0  0  0  0  0  0
   45.1999   13.1823  -11.1440 N   0  0  0  0  0  0  0  0  0  0  0  0
   44.5716   14.4956  -10.7604 C   0  0  0  0  0  0  0  0  0  0  0  0
   43.5203   14.2696  -11.7953 C   0  0  0  0  0  0  0  0  0  0  0  0
   43.9136   12.8049  -11.5826 C   0  0  0  0  0  0  0  0  0  0  0  0
   48.3035   12.4645  -13.5214 C   0  0  0  0  0  0  0  0  0  0  0  0
   48.0706   11.4694  -12.4363 C   0  0  0  0  0  0  0  0  0  0  0  0
   48.6215   10.2479  -12.3986 N   0  0  0  0  0  0  0  0  0  0  0  0
   48.2339    9.6461  -11.3541 O   0  0  0  0  0  0  0  0  0  0  0  0
   47.4075   10.4327  -10.6427 C   0  0  0  0  0  0  0  0  0  0  0  0
   46.8094    9.9888   -9.3820 C   0  0  0  0  0  0  0  0  0  0  0  0
   47.2651   11.6145  -11.2880 C   0  0  0  0  0  0  0  0  0  0  0  0
 27 28  1  0  0  0
 28 29  2  0  0  0
 29 30  1  0  0  0
 30 31  1  0  0  0
 31 32  1  0  0  0
 31 33  2  0  0  0
 33 21  1  0  0  0
 21 22  2  0  0  0
 21 23  1  0  0  0
 23 24  1  0  0  0
 24 25  1  0  0  0
 25 19  1  0  0  0
 19  1  1  0  0  0
  1  2  2  0  0  0
  2  3  1  0  0  0
  3  4  2  0  0  0
  4  5  1  0  0  0
  5  7  1  0  0  0
  7  8  1  0  0  0
  8  9  1  0  0  0
  9 10  1  0  0  0
 10 11  2  0  0  0
 11 12  1  0  0  0
 12 13  1  0  0  0
 12 14  2  0  0  0
 14 15  1  0  0  0
 15 16  2  0  0  0
 16 17  1  0  0  0
 17 18  2  0  0  0
  5  6  2  0  0  0
 25 26  1  0  0  0
 33 28  1  0  0  0
 26 23  1  0  0  0
  6  1  1  0  0  0
 17  7  1  0  0  0
 16 10  1  0  0  0
 19 20  1  0  0  0
M  END
> <minimizedAffinity>
-9.51396

> <CNNscore>
0.3576862216

> <CNNaffinity>
6.6547560692

> <CNN_VS>
2.3803145885

> <CNNaffinity_variance>
0.0743225664

$$$$
[H]c1nc([H])c(N([H])C2([H])C([H])([H])N(C(=O)c3c(C([H])([H])[H])noc3C([H])([H])[H])C2([H])[H])c([H])c1N1C(=O)c2c([H])c([H])c(Cl)c([H])c2C([H])([H])C1([H])[H]


 33 37  0  0  0  0  0  0  0  0999 V2000
   34.4475   15.0899  -12.1469 C   0  0  0  0  0  0  0  0  0  0  0  0
   33.1722   15.3525  -11.6250 C   0  0  0  0  0  0  0  0  0  0  0  0
   33.0392   15.7932  -10.3649 N   0  0  0  0  0  0  0  0  0  0  0  0
   34.1152   15.9965   -9.5656 C   0  0  0  0  0  0  0  0  0  0  0  0
   35.4013   15.7598  -10.0102 C   0  0  0  0  0  0  0  0  0  0  0  0
   35.5296   15.3012  -11.3231 C   0  0  0  0  0  0  0  0  0  0  0  0
   36.5334   15.9815   -9.1857 N   0  0  0  0  0  0  0  0  0  0  0  0
   37.3434   17.1488   -9.4567 C   0  0  0  0  0  0  0  0  0  0  0  0
   37.9212   17.7639   -8.2275 C   0  0  0  0  0  0  0  0  0  0  0  0
   38.1673   16.8000   -7.1370 C   0  0  0  0  0  0  0  0  0  0  0  0
   38.9824   17.2484   -6.0998 C   0  0  0  0  0  0  0  0  0  0  0  0
   39.2857   16.4130   -5.0195 C   0  0  0  0  0  0  0  0  0  0  0  0
   40.3084   16.9645   -3.7051 Cl  0  0  0  0  0  0  0  0  0  0  0  0
   38.7885   15.1201   -4.9474 C   0  0  0  0  0  0  0  0  0  0  0  0
   37.9796   14.7084   -5.9997 C   0  0  0  0  0  0  0  0  0  0  0  0
   37.6840   15.5354   -7.0599 C   0  0  0  0  0  0  0  0  0  0  0  0
   36.8094   15.0593   -8.1330 C   0  0  0  0  0  0  0  0  0  0  0  0
   36.3435   13.8987   -8.1001 O   0  0  0  0  0  0  0  0  0  0  0  0
   34.5477   14.6353  -13.4798 N   0  0  0  0  0  0  0  0  0  0  0  0
   34.8895   15.3064  -14.2094 H   0  0  0  0  0  0  0  0  0  0  0  0
   37.3238   12.0644  -14.5638 C   0  0  0  0  0  0  0  0  0  0  0  0
   37.8109   11.6677  -13.3840 O   0  0  0  0  0  0  0  0  0  0  0  0
   35.9569   12.3488  -14.4584 N   0  0  0  0  0  0  0  0  0  0  0  0
   35.0853   12.2246  -13.2372 C   0  0  0  0  0  0  0  0  0  0  0  0
   34.1816   13.2688  -13.8030 C   0  0  0  0  0  0  0  0  0  0  0  0
   34.7958   12.7951  -15.1235 C   0  0  0  0  0  0  0  0  0  0  0  0
   39.9878   13.6347  -14.4143 C   0  0  0  0  0  0  0  0  0  0  0  0
   39.4752   12.8232  -15.5547 C   0  0  0  0  0  0  0  0  0  0  0  0
   40.1272   12.6488  -16.7129 N   0  0  0  0  0  0  0  0  0  0  0  0
   39.4366   11.9097  -17.4747 O   0  0  0  0  0  0  0  0  0  0  0  0
   38.2920   11.5535  -16.8658 C   0  0  0  0  0  0  0  0  0  0  0  0
   37.3015   10.6951  -17.5189 C   0  0  0  0  0  0  0  0  0  0  0  0
   38.2612   12.1100  -15.6320 C   0  0  0  0  0  0  0  0  0  0  0  0
 27 28  1  0  0  0
 28 29  2  0  0  0
 29 30  1  0  0  0
 30 31  1  0  0  0
 31 32  1  0  0  0
 31 33  2  0  0  0
 33 21  1  0  0  0
 21 22  2  0  0  0
 21 23  1  0  0  0
 23 24  1  0  0  0
 24 25  1  0  0  0
 25 19  1  0  0  0
 19  1  1  0  0  0
  1  2  2  0  0  0
  2  3  1  0  0  0
  3  4  2  0  0  0
  4  5  1  0  0  0
  5  7  1  0  0  0
  7  8  1  0  0  0
  8  9  1  0  0  0
  9 10  1  0  0  0
 10 11  2  0  0  0
 11 12  1  0  0  0
 12 13  1  0  0  0
 12 14  2  0  0  0
 14 15  1  0  0  0
 15 16  2  0  0  0
 16 17  1  0  0  0
 17 18  2  0  0  0
  5  6  2  0  0  0
 25 26  1  0  0  0
 33 28  1  0  0  0
 26 23  1  0  0  0
  6  1  1  0  0  0
 17  7  1  0  0  0
 16 10  1  0  0  0
 19 20  1  0  0  0
M  END
> <minimizedAffinity>
-8.98657

> <CNNscore>
0.3514002264

> <CNNaffinity>
6.5863161087

> <CNN_VS>
2.3144328594

> <CNNaffinity_variance>
0.3037463427

$$$$
[H]c1nc([H])c(N([H])C2([H])C([H])([H])N(C(=O)c3c(C([H])([H])[H])noc3C([H])([H])[H])C2([H])[H])c([H])c1N1C(=O)c2c([H])c([H])c(Cl)c([H])c2C([H])([H])C1([H])[H]


 33 37  0  0  0  0  0  0  0  0999 V2000
   41.2615   12.9220  -16.5109 C   0  0  0  0  0  0  0  0  0  0  0  0
   40.9950   12.0506  -17.5774 C   0  0  0  0  0  0  0  0  0  0  0  0
   39.7973   11.4541  -17.6749 N   0  0  0  0  0  0  0  0  0  0  0  0
   38.8193   11.6694  -16.7610 C   0  0  0  0  0  0  0  0  0  0  0  0
   39.0087   12.5140  -15.6847 C   0  0  0  0  0  0  0  0  0  0  0  0
   40.2586   13.1302  -15.5916 C   0  0  0  0  0  0  0  0  0  0  0  0
   37.9876   12.7552  -14.7308 N   0  0  0  0  0  0  0  0  0  0  0  0
   38.3858   13.2478  -13.4305 C   0  0  0  0  0  0  0  0  0  0  0  0
   37.4019   14.1948  -12.8319 C   0  0  0  0  0  0  0  0  0  0  0  0
   36.0080   13.9516  -13.2522 C   0  0  0  0  0  0  0  0  0  0  0  0
   35.0243   14.5878  -12.4978 C   0  0  0  0  0  0  0  0  0  0  0  0
   33.6701   14.4198  -12.8055 C   0  0  0  0  0  0  0  0  0  0  0  0
   32.4206   15.2164  -11.8663 Cl  0  0  0  0  0  0  0  0  0  0  0  0
   33.2661   13.6196  -13.8640 C   0  0  0  0  0  0  0  0  0  0  0  0
   34.2750   13.0018  -14.5931 C   0  0  0  0  0  0  0  0  0  0  0  0
   35.6063   13.1715  -14.2859 C   0  0  0  0  0  0  0  0  0  0  0  0
   36.6307   12.5142  -15.0993 C   0  0  0  0  0  0  0  0  0  0  0  0
   36.3019   11.7852  -16.0613 O   0  0  0  0  0  0  0  0  0  0  0  0
   42.5306   13.5372  -16.4467 N   0  0  0  0  0  0  0  0  0  0  0  0
   42.6434   14.4893  -16.8713 H   0  0  0  0  0  0  0  0  0  0  0  0
   44.7754   15.4380  -13.8315 C   0  0  0  0  0  0  0  0  0  0  0  0
   44.0457   15.3400  -12.7158 O   0  0  0  0  0  0  0  0  0  0  0  0
   44.6020   14.3019  -14.6312 N   0  0  0  0  0  0  0  0  0  0  0  0
   43.7567   13.0918  -14.3354 C   0  0  0  0  0  0  0  0  0  0  0  0
   43.6326   12.8472  -15.8024 C   0  0  0  0  0  0  0  0  0  0  0  0
   44.9324   13.6561  -15.8409 C   0  0  0  0  0  0  0  0  0  0  0  0
   47.7605   15.4489  -14.6526 C   0  0  0  0  0  0  0  0  0  0  0  0
   46.9003   16.6257  -14.3414 C   0  0  0  0  0  0  0  0  0  0  0  0
   47.3159   17.8995  -14.3847 N   0  0  0  0  0  0  0  0  0  0  0  0
   46.3557   18.6638  -14.0726 O   0  0  0  0  0  0  0  0  0  0  0  0
   45.2532   17.9418  -13.8064 C   0  0  0  0  0  0  0  0  0  0  0  0
   43.9892   18.5717  -13.4193 C   0  0  0  0  0  0  0  0  0  0  0  0
   45.5422   16.6282  -13.9618 C   0  0  0  0  0  0  0  0  0  0  0  0
 27 28  1  0  0  0
 28 29  2  0  0  0
 29 30  1  0  0  0
 30 31  1  0  0  0
 31 32  1  0  0  0
 31 33  2  0  0  0
 33 21  1  0  0  0
 21 22  2  0  0  0
 21 23  1  0  0  0
 23 24  1  0  0  0
 24 25  1  0  0  0
 25 19  1  0  0  0
 19  1  1  0  0  0
  1  2  2  0  0  0
  2  3  1  0  0  0
  3  4  2  0  0  0
  4  5  1  0  0  0
  5  7  1  0  0  0
  7  8  1  0  0  0
  8  9  1  0  0  0
  9 10  1  0  0  0
 10 11  2  0  0  0
 11 12  1  0  0  0
 12 13  1  0  0  0
 12 14  2  0  0  0
 14 15  1  0  0  0
 15 16  2  0  0  0
 16 17  1  0  0  0
 17 18  2  0  0  0
  5  6  2  0  0  0
 25 26  1  0  0  0
 33 28  1  0  0  0
 26 23  1  0  0  0
  6  1  1  0  0  0
 17  7  1  0  0  0
 16 10  1  0  0  0
 19 20  1  0  0  0
M  END
> <minimizedAffinity>
-8.91932

> <CNNscore>
0.3340047598

> <CNNaffinity>
6.9975562096

> <CNN_VS>
2.3372170925

> <CNNaffinity_variance>
0.3169106841

$$$$
[H]c1nc([H])c(N([H])C2([H])C([H])([H])N(C(=O)c3c(C([H])([H])[H])noc3C([H])([H])[H])C2([H])[H])c([H])c1N1C(=O)c2c([H])c([H])c(Cl)c([H])c2C([H])([H])C1([H])[H]


 33 37  0  0  0  0  0  0  0  0999 V2000
   42.5941   13.7888  -13.5421 C   0  0  0  0  0  0  0  0  0  0  0  0
   43.7717   13.5060  -14.2500 C   0  0  0  0  0  0  0  0  0  0  0  0
   43.7052   12.9879  -15.4857 N   0  0  0  0  0  0  0  0  0  0  0  0
   42.5170   12.7241  -16.0830 C   0  0  0  0  0  0  0  0  0  0  0  0
   41.3167   12.9763  -15.4479 C   0  0  0  0  0  0  0  0  0  0  0  0
   41.3961   13.5154  -14.1620 C   0  0  0  0  0  0  0  0  0  0  0  0
   40.0691   12.7155  -16.0694 N   0  0  0  0  0  0  0  0  0  0  0  0
   40.0870   12.1384  -17.3955 C   0  0  0  0  0  0  0  0  0  0  0  0
   38.9617   11.1919  -17.6420 C   0  0  0  0  0  0  0  0  0  0  0  0
   37.7408   11.5032  -16.8729 C   0  0  0  0  0  0  0  0  0  0  0  0
   36.5778   10.8581  -17.2885 C   0  0  0  0  0  0  0  0  0  0  0  0
   35.3630   11.0868  -16.6336 C   0  0  0  0  0  0  0  0  0  0  0  0
   33.8911   10.2800  -17.1439 Cl  0  0  0  0  0  0  0  0  0  0  0  0
   35.2781   11.9576  -15.5572 C   0  0  0  0  0  0  0  0  0  0  0  0
   36.4582   12.5820  -15.1717 C   0  0  0  0  0  0  0  0  0  0  0  0
   37.6510   12.3525  -15.8197 C   0  0  0  0  0  0  0  0  0  0  0  0
   38.8697   13.0206  -15.3600 C   0  0  0  0  0  0  0  0  0  0  0  0
   38.8295   13.8124  -14.3923 O   0  0  0  0  0  0  0  0  0  0  0  0
   42.7045   14.3412  -12.2475 N   0  0  0  0  0  0  0  0  0  0  0  0
   42.9373   13.6995  -11.4515 H   0  0  0  0  0  0  0  0  0  0  0  0
   43.6774   16.0146   -8.8205 C   0  0  0  0  0  0  0  0  0  0  0  0
   44.9904   16.2141   -8.9716 O   0  0  0  0  0  0  0  0  0  0  0  0
   43.0183   16.1414  -10.0493 N   0  0  0  0  0  0  0  0  0  0  0  0
   43.6247   16.4788  -11.3853 C   0  0  0  0  0  0  0  0  0  0  0  0
   42.4973   15.7642  -12.0528 C   0  0  0  0  0  0  0  0  0  0  0  0
   41.7862   16.0769  -10.7329 C   0  0  0  0  0  0  0  0  0  0  0  0
   42.8570   13.1812   -7.8802 C   0  0  0  0  0  0  0  0  0  0  0  0
   42.8804   14.4342   -7.0732 C   0  0  0  0  0  0  0  0  0  0  0  0
   42.5446   14.5061   -5.7774 N   0  0  0  0  0  0  0  0  0  0  0  0
   42.6704   15.7013   -5.3783 O   0  0  0  0  0  0  0  0  0  0  0  0
   43.0959   16.4859   -6.3838 C   0  0  0  0  0  0  0  0  0  0  0  0
   43.3293   17.9200   -6.2021 C   0  0  0  0  0  0  0  0  0  0  0  0
   43.2476   15.7284   -7.4957 C   0  0  0  0  0  0  0  0  0  0  0  0
 27 28  1  0  0  0
 28 29  2  0  0  0
 29 30  1  0  0  0
 30 31  1  0  0  0
 31 32  1  0  0  0
 31 33  2  0  0  0
 33 21  1  0  0  0
 21 22  2  0  0  0
 21 23  1  0  0  0
 23 24  1  0  0  0
 24 25  1  0  0  0
 25 19  1  0  0  0
 19  1  1  0  0  0
  1  2  2  0  0  0
  2  3  1  0  0  0
  3  4  2  0  0  0
  4  5  1  0  0  0
  5  7  1  0  0  0
  7  8  1  0  0  0
  8  9  1  0  0  0
  9 10  1  0  0  0
 10 11  2  0  0  0
 11 12  1  0  0  0
 12 13  1  0  0  0
 12 14  2  0  0  0
 14 15  1  0  0  0
 15 16  2  0  0  0
 16 17  1  0  0  0
 17 18  2  0  0  0
  5  6  2  0  0  0
 25 26  1  0  0  0
 33 28  1  0  0  0
 26 23  1  0  0  0
  6  1  1  0  0  0
 17  7  1  0  0  0
 16 10  1  0  0  0
 19 20  1  0  0  0
M  END
> <minimizedAffinity>
-8.98838

> <CNNscore>
0.3248752356

> <CNNaffinity>
6.4930830002

> <CNN_VS>
2.1094417572

> <CNNaffinity_variance>
0.2032122612

$$$$
[H]c1nc([H])c(N([H])C2([H])C([H])([H])N(C(=O)c3c(C([H])([H])[H])noc3C([H])([H])[H])C2([H])[H])c([H])c1N1C(=O)c2c([H])c([H])c(Cl)c([H])c2C([H])([H])C1([H])[H]


 33 37  0  0  0  0  0  0  0  0999 V2000
   43.1882   13.6060  -13.3742 C   0  0  0  0  0  0  0  0  0  0  0  0
   44.3228   13.7442  -14.1874 C   0  0  0  0  0  0  0  0  0  0  0  0
   44.2196   13.5941  -15.5165 N   0  0  0  0  0  0  0  0  0  0  0  0
   43.0345   13.3083  -16.1098 C   0  0  0  0  0  0  0  0  0  0  0  0
   41.8753   13.1580  -15.3741 C   0  0  0  0  0  0  0  0  0  0  0  0
   41.9927   13.3160  -13.9915 C   0  0  0  0  0  0  0  0  0  0  0  0
   40.6290   12.8716  -15.9869 N   0  0  0  0  0  0  0  0  0  0  0  0
   40.6492   12.2118  -17.2739 C   0  0  0  0  0  0  0  0  0  0  0  0
   39.5151   11.2635  -17.4683 C   0  0  0  0  0  0  0  0  0  0  0  0
   38.2928   11.6357  -16.7292 C   0  0  0  0  0  0  0  0  0  0  0  0
   37.1255   10.9779  -17.1116 C   0  0  0  0  0  0  0  0  0  0  0  0
   35.9091   11.2603  -16.4812 C   0  0  0  0  0  0  0  0  0  0  0  0
   34.4318   10.4385  -16.9502 Cl  0  0  0  0  0  0  0  0  0  0  0  0
   35.8266   12.1982  -15.4625 C   0  0  0  0  0  0  0  0  0  0  0  0
   37.0110   12.8333  -15.1087 C   0  0  0  0  0  0  0  0  0  0  0  0
   38.2054   12.5506  -15.7323 C   0  0  0  0  0  0  0  0  0  0  0  0
   39.4284   13.2336  -15.3069 C   0  0  0  0  0  0  0  0  0  0  0  0
   39.3905   14.0853  -14.3914 O   0  0  0  0  0  0  0  0  0  0  0  0
   43.3348   13.7794  -11.9808 N   0  0  0  0  0  0  0  0  0  0  0  0
   42.5526   13.4672  -11.3561 H   0  0  0  0  0  0  0  0  0  0  0  0
   44.4642   12.9980   -8.2923 C   0  0  0  0  0  0  0  0  0  0  0  0
   45.0887   11.8249   -8.4356 O   0  0  0  0  0  0  0  0  0  0  0  0
   44.6366   13.7873   -9.4358 N   0  0  0  0  0  0  0  0  0  0  0  0
   45.4196   13.4473  -10.6759 C   0  0  0  0  0  0  0  0  0  0  0  0
   44.5482   14.3759  -11.4541 C   0  0  0  0  0  0  0  0  0  0  0  0
   44.3386   15.0087  -10.0753 C   0  0  0  0  0  0  0  0  0  0  0  0
   45.8686   14.0089   -5.7249 C   0  0  0  0  0  0  0  0  0  0  0  0
   44.4311   13.6522   -5.8929 C   0  0  0  0  0  0  0  0  0  0  0  0
   43.5128   13.7319   -4.9195 N   0  0  0  0  0  0  0  0  0  0  0  0
   42.3891   13.3648   -5.3733 O   0  0  0  0  0  0  0  0  0  0  0  0
   42.4990   13.0228   -6.6690 C   0  0  0  0  0  0  0  0  0  0  0  0
   41.3490   12.5604   -7.4486 C   0  0  0  0  0  0  0  0  0  0  0  0
   43.7858   13.1864   -7.0570 C   0  0  0  0  0  0  0  0  0  0  0  0
 27 28  1  0  0  0
 28 29  2  0  0  0
 29 30  1  0  0  0
 30 31  1  0  0  0
 31 32  1  0  0  0
 31 33  2  0  0  0
 33 21  1  0  0  0
 21 22  2  0  0  0
 21 23  1  0  0  0
 23 24  1  0  0  0
 24 25  1  0  0  0
 25 19  1  0  0  0
 19  1  1  0  0  0
  1  2  2  0  0  0
  2  3  1  0  0  0
  3  4  2  0  0  0
  4  5  1  0  0  0
  5  7  1  0  0  0
  7  8  1  0  0  0
  8  9  1  0  0  0
  9 10  1  0  0  0
 10 11  2  0  0  0
 11 12  1  0  0  0
 12 13  1  0  0  0
 12 14  2  0  0  0
 14 15  1  0  0  0
 15 16  2  0  0  0
 16 17  1  0  0  0
 17 18  2  0  0  0
  5  6  2  0  0  0
 25 26  1  0  0  0
 33 28  1  0  0  0
 26 23  1  0  0  0
  6  1  1  0  0  0
 17  7  1  0  0  0
 16 10  1  0  0  0
 19 20  1  0  0  0
M  END
> <minimizedAffinity>
-8.68852

> <CNNscore>
0.3210438490

> <CNNaffinity>
6.5269804001

> <CNN_VS>
2.0954468250

> <CNNaffinity_variance>
0.1958933175

$$$$
[H]c1c([H])c([H])c2c(nc(SC([H])([H])C(=O)N3C(=O)C([H])([H])C([H])([H])C3([H])[H])n2C([H])([H])[H])c1[H]


 20 22  0  0  0  0  0  0  0  0999 V2000
   38.9867   13.7674  -14.1214 C   0  0  0  0  0  0  0  0  0  0  0  0
   39.2804   12.9834  -15.3241 N   0  0  0  0  0  0  0  0  0  0  0  0
   40.4251   12.7836  -15.9622 C   0  0  0  0  0  0  0  0  0  0  0  0
   40.1714   11.9335  -16.9997 N   0  0  0  0  0  0  0  0  0  0  0  0
   38.8687   11.5974  -17.0190 C   0  0  0  0  0  0  0  0  0  0  0  0
   38.1252   10.7826  -17.8535 C   0  0  0  0  0  0  0  0  0  0  0  0
   36.7821   10.6269  -17.6239 C   0  0  0  0  0  0  0  0  0  0  0  0
   36.2037   11.2973  -16.5521 C   0  0  0  0  0  0  0  0  0  0  0  0
   36.9423   12.1029  -15.7282 C   0  0  0  0  0  0  0  0  0  0  0  0
   38.3074   12.2663  -15.9544 C   0  0  0  0  0  0  0  0  0  0  0  0
   42.0036   13.4655  -15.6571 S   0  0  0  0  0  0  0  0  0  0  0  0
   42.7003   13.2674  -14.0506 C   0  0  0  0  0  0  0  0  0  0  0  0
   42.5615   14.3194  -13.0654 C   0  0  0  0  0  0  0  0  0  0  0  0
   41.9112   15.3537  -13.2104 O   0  0  0  0  0  0  0  0  0  0  0  0
   43.2510   14.1255  -11.8097 N   0  0  0  0  0  0  0  0  0  0  0  0
   44.0494   12.9827  -11.4654 C   0  0  0  0  0  0  0  0  0  0  0  0
   44.1831   13.0466   -9.9396 C   0  0  0  0  0  0  0  0  0  0  0  0
   44.2123   14.5303   -9.6887 C   0  0  0  0  0  0  0  0  0  0  0  0
   43.2531   15.0329  -10.7020 C   0  0  0  0  0  0  0  0  0  0  0  0
   42.5393   16.0668  -10.6519 O   0  0  0  0  0  0  0  0  0  0  0  0
  1  2  1  0  0  0
  2  3  1  0  0  0
  3 11  1  0  0  0
 11 12  1  0  0  0
 12 13  1  0  0  0
 13 14  2  0  0  0
 13 15  1  0  0  0
 15 16  1  0  0  0
 16 17  1  0  0  0
 17 18  1  0  0  0
 18 19  1  0  0  0
 19 20  2  0  0  0
  3  4  2  0  0  0
  4  5  1  0  0  0
  5  6  2  0  0  0
  6  7  1  0  0  0
  7  8  2  0  0  0
  8  9  1  0  0  0
  9 10  2  0  0  0
 10  2  1  0  0  0
 19 15  1  0  0  0
 10  5  1  0  0  0
M  END
> <minimizedAffinity>
-6.22114

> <CNNscore>
0.4503355920

> <CNNaffinity>
5.2668886185

> <CNN_VS>
2.3718674183

> <CNNaffinity_variance>
0.0843082443

$$$$
[H]c1c([H])c([H])c2c(nc(SC([H])([H])C(=O)N3C(=O)C([H])([H])C([H])([H])C3([H])[H])n2C([H])([H])[H])c1[H]


 20 22  0  0  0  0  0  0  0  0999 V2000
   39.2483   13.7699  -14.2683 C   0  0  0  0  0  0  0  0  0  0  0  0
   39.4067   12.9365  -15.4632 N   0  0  0  0  0  0  0  0  0  0  0  0
   40.4882   12.6486  -16.1738 C   0  0  0  0  0  0  0  0  0  0  0  0
   40.1096   11.7877  -17.1632 N   0  0  0  0  0  0  0  0  0  0  0  0
   38.7911   11.5326  -17.0799 C   0  0  0  0  0  0  0  0  0  0  0  0
   37.9417   10.7429  -17.8334 C   0  0  0  0  0  0  0  0  0  0  0  0
   36.6118   10.6772  -17.5048 C   0  0  0  0  0  0  0  0  0  0  0  0
   36.1538   11.4114  -16.4168 C   0  0  0  0  0  0  0  0  0  0  0  0
   36.9969   12.1919  -15.6731 C   0  0  0  0  0  0  0  0  0  0  0  0
   38.3494   12.2641  -16.0002 C   0  0  0  0  0  0  0  0  0  0  0  0
   42.1226   13.2394  -16.0027 S   0  0  0  0  0  0  0  0  0  0  0  0
   42.8919   13.1158  -14.4221 C   0  0  0  0  0  0  0  0  0  0  0  0
   43.7852   14.1604  -13.9668 C   0  0  0  0  0  0  0  0  0  0  0  0
   43.4554   15.1480  -13.3114 O   0  0  0  0  0  0  0  0  0  0  0  0
   45.1799   14.0190  -14.3198 N   0  0  0  0  0  0  0  0  0  0  0  0
   45.7427   12.9340  -15.0735 C   0  0  0  0  0  0  0  0  0  0  0  0
   47.2498   13.0136  -14.8043 C   0  0  0  0  0  0  0  0  0  0  0  0
   47.4675   14.4970  -14.6731 C   0  0  0  0  0  0  0  0  0  0  0  0
   46.2309   14.9295  -13.9779 C   0  0  0  0  0  0  0  0  0  0  0  0
   46.0733   15.9132  -13.2108 O   0  0  0  0  0  0  0  0  0  0  0  0
  1  2  1  0  0  0
  2  3  1  0  0  0
  3 11  1  0  0  0
 11 12  1  0  0  0
 12 13  1  0  0  0
 13 14  2  0  0  0
 13 15  1  0  0  0
 15 16  1  0  0  0
 16 17  1  0  0  0
 17 18  1  0  0  0
 18 19  1  0  0  0
 19 20  2  0  0  0
  3  4  2  0  0  0
  4  5  1  0  0  0
  5  6  2  0  0  0
  6  7  1  0  0  0
  7  8  2  0  0  0
  8  9  1  0  0  0
  9 10  2  0  0  0
 10  2  1  0  0  0
 19 15  1  0  0  0
 10  5  1  0  0  0
M  END
> <minimizedAffinity>
-6.31879

> <CNNscore>
0.4410308599

> <CNNaffinity>
5.2160925865

> <CNN_VS>
2.3004577160

> <CNNaffinity_variance>
0.0813158974

$$$$
[H]c1c([H])c([H])c2c(nc(SC([H])([H])C(=O)N3C(=O)C([H])([H])C([H])([H])C3([H])[H])n2C([H])([H])[H])c1[H]


 20 22  0  0  0  0  0  0  0  0999 V2000
   38.9791   13.3785  -14.4987 C   0  0  0  0  0  0  0  0  0  0  0  0
   38.4465   12.5733  -15.6012 N   0  0  0  0  0  0  0  0  0  0  0  0
   39.0563   12.0446  -16.6528 C   0  0  0  0  0  0  0  0  0  0  0  0
   38.1211   11.3423  -17.3569 N   0  0  0  0  0  0  0  0  0  0  0  0
   36.9219   11.4278  -16.7529 C   0  0  0  0  0  0  0  0  0  0  0  0
   35.6791   10.9058  -17.0630 C   0  0  0  0  0  0  0  0  0  0  0  0
   34.6124   11.1689  -16.2422 C   0  0  0  0  0  0  0  0  0  0  0  0
   34.8130   11.9578  -15.1153 C   0  0  0  0  0  0  0  0  0  0  0  0
   36.0441   12.4728  -14.8112 C   0  0  0  0  0  0  0  0  0  0  0  0
   37.1331   12.2102  -15.6398 C   0  0  0  0  0  0  0  0  0  0  0  0
   40.7181   12.1947  -17.1681 S   0  0  0  0  0  0  0  0  0  0  0  0
   41.8532   13.0087  -16.0936 C   0  0  0  0  0  0  0  0  0  0  0  0
   43.2478   12.6195  -16.0829 C   0  0  0  0  0  0  0  0  0  0  0  0
   43.7969   11.9038  -16.9195 O   0  0  0  0  0  0  0  0  0  0  0  0
   44.0515   13.1207  -14.9909 N   0  0  0  0  0  0  0  0  0  0  0  0
   43.5817   13.9681  -13.9312 C   0  0  0  0  0  0  0  0  0  0  0  0
   44.8539   14.5561  -13.3098 C   0  0  0  0  0  0  0  0  0  0  0  0
   45.8324   13.4234  -13.4667 C   0  0  0  0  0  0  0  0  0  0  0  0
   45.4443   12.8611  -14.7830 C   0  0  0  0  0  0  0  0  0  0  0  0
   46.1675   12.2540  -15.6132 O   0  0  0  0  0  0  0  0  0  0  0  0
  1  2  1  0  0  0
  2  3  1  0  0  0
  3 11  1  0  0  0
 11 12  1  0  0  0
 12 13  1  0  0  0
 13 14  2  0  0  0
 13 15  1  0  0  0
 15 16  1  0  0  0
 16 17  1  0  0  0
 17 18  1  0  0  0
 18 19  1  0  0  0
 19 20  2  0  0  0
  3  4  2  0  0  0
  4  5  1  0  0  0
  5  6  2  0  0  0
  6  7  1  0  0  0
  7  8  2  0  0  0
  8  9  1  0  0  0
  9 10  2  0  0  0
 10  2  1  0  0  0
 19 15  1  0  0  0
 10  5  1  0  0  0
M  END
> <minimizedAffinity>
-7.08585

> <CNNscore>
0.4248198867

> <CNNaffinity>
5.6122651100

> <CNN_VS>
2.3842017651

> <CNNaffinity_variance>
0.0341299698

$$$$
[H]c1c([H])c([H])c2c(nc(SC([H])([H])C(=O)N3C(=O)C([H])([H])C([H])([H])C3([H])[H])n2C([H])([H])[H])c1[H]


 20 22  0  0  0  0  0  0  0  0999 V2000
   40.7933   14.0419  -14.2023 C   0  0  0  0  0  0  0  0  0  0  0  0
   41.5840   13.3186  -15.2018 N   0  0  0  0  0  0  0  0  0  0  0  0
   41.2167   12.7488  -16.3410 C   0  0  0  0  0  0  0  0  0  0  0  0
   42.3427   12.2495  -16.9296 N   0  0  0  0  0  0  0  0  0  0  0  0
   43.4199   12.5014  -16.1637 C   0  0  0  0  0  0  0  0  0  0  0  0
   44.7631   12.2075  -16.3130 C   0  0  0  0  0  0  0  0  0  0  0  0
   45.6516   12.5988  -15.3444 C   0  0  0  0  0  0  0  0  0  0  0  0
   45.1726   13.2839  -14.2336 C   0  0  0  0  0  0  0  0  0  0  0  0
   43.8428   13.5734  -14.0888 C   0  0  0  0  0  0  0  0  0  0  0  0
   42.9335   13.1794  -15.0684 C   0  0  0  0  0  0  0  0  0  0  0  0
   39.6230   12.5649  -17.0307 S   0  0  0  0  0  0  0  0  0  0  0  0
   38.4493   11.5763  -16.1642 C   0  0  0  0  0  0  0  0  0  0  0  0
   37.3597   12.2055  -15.4477 C   0  0  0  0  0  0  0  0  0  0  0  0
   37.4765   13.0960  -14.6070 O   0  0  0  0  0  0  0  0  0  0  0  0
   36.0269   11.7378  -15.7556 N   0  0  0  0  0  0  0  0  0  0  0  0
   35.7027   10.7136  -16.7084 C   0  0  0  0  0  0  0  0  0  0  0  0
   34.2045   10.8938  -16.9790 C   0  0  0  0  0  0  0  0  0  0  0  0
   33.6970   11.3572  -15.6400 C   0  0  0  0  0  0  0  0  0  0  0  0
   34.8112   12.2149  -15.1684 C   0  0  0  0  0  0  0  0  0  0  0  0
   34.7579   13.2015  -14.3906 O   0  0  0  0  0  0  0  0  0  0  0  0
  1  2  1  0  0  0
  2  3  1  0  0  0
  3 11  1  0  0  0
 11 12  1  0  0  0
 12 13  1  0  0  0
 13 14  2  0  0  0
 13 15  1  0  0  0
 15 16  1  0  0  0
 16 17  1  0  0  0
 17 18  1  0  0  0
 18 19  1  0  0  0
 19 20  2  0  0  0
  3  4  2  0  0  0
  4  5  1  0  0  0
  5  6  2  0  0  0
  6  7  1  0  0  0
  7  8  2  0  0  0
  8  9  1  0  0  0
  9 10  2  0  0  0
 10  2  1  0  0  0
 19 15  1  0  0  0
 10  5  1  0  0  0
M  END
> <minimizedAffinity>
-6.92208

> <CNNscore>
0.4169676006

> <CNNaffinity>
5.6268720627

> <CNN_VS>
2.3462233543

> <CNNaffinity_variance>
0.0908541232

$$$$
[H]c1c([H])c([H])c2c(nc(SC([H])([H])C(=O)N3C(=O)C([H])([H])C([H])([H])C3([H])[H])n2C([H])([H])[H])c1[H]


 20 22  0  0  0  0  0  0  0  0999 V2000
   37.5955   10.6153  -18.2704 C   0  0  0  0  0  0  0  0  0  0  0  0
   37.3117   11.3742  -17.0494 N   0  0  0  0  0  0  0  0  0  0  0  0
   38.0893   12.1751  -16.3343 C   0  0  0  0  0  0  0  0  0  0  0  0
   37.3318   12.6768  -15.3153 N   0  0  0  0  0  0  0  0  0  0  0  0
   36.0782   12.1932  -15.3847 C   0  0  0  0  0  0  0  0  0  0  0  0
   34.9550   12.3901  -14.6020 C   0  0  0  0  0  0  0  0  0  0  0  0
   33.7872   11.7465  -14.9226 C   0  0  0  0  0  0  0  0  0  0  0  0
   33.7668   10.9093  -16.0323 C   0  0  0  0  0  0  0  0  0  0  0  0
   34.8800   10.7166  -16.8049 C   0  0  0  0  0  0  0  0  0  0  0  0
   36.0704   11.3669  -16.4861 C   0  0  0  0  0  0  0  0  0  0  0  0
   39.7836   12.5493  -16.5316 S   0  0  0  0  0  0  0  0  0  0  0  0
   40.7203   12.9533  -15.0947 C   0  0  0  0  0  0  0  0  0  0  0  0
   40.5426   14.2379  -14.4508 C   0  0  0  0  0  0  0  0  0  0  0  0
   39.6058   15.0115  -14.6448 O   0  0  0  0  0  0  0  0  0  0  0  0
   41.5595   14.6330  -13.5024 N   0  0  0  0  0  0  0  0  0  0  0  0
   42.7158   13.8582  -13.1496 C   0  0  0  0  0  0  0  0  0  0  0  0
   43.2159   14.4792  -11.8402 C   0  0  0  0  0  0  0  0  0  0  0  0
   42.8772   15.9330  -12.0327 C   0  0  0  0  0  0  0  0  0  0  0  0
   41.5852   15.8551  -12.7564 C   0  0  0  0  0  0  0  0  0  0  0  0
   40.6405   16.6849  -12.7532 O   0  0  0  0  0  0  0  0  0  0  0  0
  1  2  1  0  0  0
  2  3  1  0  0  0
  3 11  1  0  0  0
 11 12  1  0  0  0
 12 13  1  0  0  0
 13 14  2  0  0  0
 13 15  1  0  0  0
 15 16  1  0  0  0
 16 17  1  0  0  0
 17 18  1  0  0  0
 18 19  1  0  0  0
 19 20  2  0  0  0
  3  4  2  0  0  0
  4  5  1  0  0  0
  5  6  2  0  0  0
  6  7  1  0  0  0
  7  8  2  0  0  0
  8  9  1  0  0  0
  9 10  2  0  0  0
 10  2  1  0  0  0
 19 15  1  0  0  0
 10  5  1  0  0  0
M  END
> <minimizedAffinity>
-7.60785

> <CNNscore>
0.3913272619

> <CNNaffinity>
5.5694794655

> <CNN_VS>
2.1794891357

> <CNNaffinity_variance>
0.0219893195

$$$$
[H]c1c([H])c([H])c2c(nc(SC([H])([H])C(=O)N3C(=O)C([H])([H])C([H])([H])C3([H])[H])n2C([H])([H])[H])c1[H]


 20 22  0  0  0  0  0  0  0  0999 V2000
   41.1929   11.7776  -17.6074 C   0  0  0  0  0  0  0  0  0  0  0  0
   40.3945   12.2236  -16.4624 N   0  0  0  0  0  0  0  0  0  0  0  0
   40.7503   12.8909  -15.3735 C   0  0  0  0  0  0  0  0  0  0  0  0
   39.6207   13.1024  -14.6367 N   0  0  0  0  0  0  0  0  0  0  0  0
   38.5528   12.5687  -15.2572 C   0  0  0  0  0  0  0  0  0  0  0  0
   37.2106   12.5138  -14.9281 C   0  0  0  0  0  0  0  0  0  0  0  0
   36.3328   11.8863  -15.7747 C   0  0  0  0  0  0  0  0  0  0  0  0
   36.8216   11.3201  -16.9465 C   0  0  0  0  0  0  0  0  0  0  0  0
   38.1504   11.3761  -17.2694 C   0  0  0  0  0  0  0  0  0  0  0  0
   39.0487   12.0119  -16.4148 C   0  0  0  0  0  0  0  0  0  0  0  0
   42.3352   13.4057  -14.8514 S   0  0  0  0  0  0  0  0  0  0  0  0
   43.6235   13.4822  -16.0513 C   0  0  0  0  0  0  0  0  0  0  0  0
   44.9249   12.9208  -15.7547 C   0  0  0  0  0  0  0  0  0  0  0  0
   45.3090   11.7971  -16.0762 O   0  0  0  0  0  0  0  0  0  0  0  0
   45.8402   13.7623  -15.0173 N   0  0  0  0  0  0  0  0  0  0  0  0
   45.5648   15.0972  -14.5655 C   0  0  0  0  0  0  0  0  0  0  0  0
   46.9413   15.6919  -14.2464 C   0  0  0  0  0  0  0  0  0  0  0  0
   47.6943   14.4893  -13.7444 C   0  0  0  0  0  0  0  0  0  0  0  0
   47.1694   13.4110  -14.6168 C   0  0  0  0  0  0  0  0  0  0  0  0
   47.7444   12.3523  -14.9765 O   0  0  0  0  0  0  0  0  0  0  0  0
  1  2  1  0  0  0
  2  3  1  0  0  0
  3 11  1  0  0  0
 11 12  1  0  0  0
 12 13  1  0  0  0
 13 14  2  0  0  0
 13 15  1  0  0  0
 15 16  1  0  0  0
 16 17  1  0  0  0
 17 18  1  0  0  0
 18 19  1  0  0  0
 19 20  2  0  0  0
  3  4  2  0  0  0
  4  5  1  0  0  0
  5  6  2  0  0  0
  6  7  1  0  0  0
  7  8  2  0  0  0
  8  9  1  0  0  0
  9 10  2  0  0  0
 10  2  1  0  0  0
 19 15  1  0  0  0
 10  5  1  0  0  0
M  END
> <minimizedAffinity>
-6.69524

> <CNNscore>
0.3469084203

> <CNNaffinity>
5.2761926651

> <CNN_VS>
1.8303556442

> <CNNaffinity_variance>
0.0329101607

$$$$
[H]c1c([H])c([H])c2c(nc(SC([H])([H])C(=O)N3C(=O)C([H])([H])C([H])([H])C3([H])[H])n2C([H])([H])[H])c1[H]


 20 22  0  0  0  0  0  0  0  0999 V2000
   34.1973   12.0582  -15.0538 C   0  0  0  0  0  0  0  0  0  0  0  0
   35.6588   12.0644  -14.9478 N   0  0  0  0  0  0  0  0  0  0  0  0
   36.4464   12.4087  -13.9386 C   0  0  0  0  0  0  0  0  0  0  0  0
   37.7347   12.1862  -14.3316 N   0  0  0  0  0  0  0  0  0  0  0  0
   37.7622   11.7036  -15.5872 C   0  0  0  0  0  0  0  0  0  0  0  0
   38.7987   11.3275  -16.4223 C   0  0  0  0  0  0  0  0  0  0  0  0
   38.5167   10.8622  -17.6812 C   0  0  0  0  0  0  0  0  0  0  0  0
   37.1884   10.7820  -18.0835 C   0  0  0  0  0  0  0  0  0  0  0  0
   36.1650   11.1549  -17.2548 C   0  0  0  0  0  0  0  0  0  0  0  0
   36.4429   11.6285  -15.9742 C   0  0  0  0  0  0  0  0  0  0  0  0
   36.0310   13.0797  -12.3808 S   0  0  0  0  0  0  0  0  0  0  0  0
   36.4747   14.7527  -12.0493 C   0  0  0  0  0  0  0  0  0  0  0  0
   37.7671   15.2561  -12.4650 C   0  0  0  0  0  0  0  0  0  0  0  0
   38.1415   15.3904  -13.6292 O   0  0  0  0  0  0  0  0  0  0  0  0
   38.6860   15.6280  -11.4128 N   0  0  0  0  0  0  0  0  0  0  0  0
   38.4187   15.5427  -10.0045 C   0  0  0  0  0  0  0  0  0  0  0  0
   39.4831   16.4321   -9.3517 C   0  0  0  0  0  0  0  0  0  0  0  0
   40.6620   16.2338  -10.2661 C   0  0  0  0  0  0  0  0  0  0  0  0
   40.0094   16.1436  -11.5948 C   0  0  0  0  0  0  0  0  0  0  0  0
   40.4847   16.4517  -12.7173 O   0  0  0  0  0  0  0  0  0  0  0  0
  1  2  1  0  0  0
  2  3  1  0  0  0
  3 11  1  0  0  0
 11 12  1  0  0  0
 12 13  1  0  0  0
 13 14  2  0  0  0
 13 15  1  0  0  0
 15 16  1  0  0  0
 16 17  1  0  0  0
 17 18  1  0  0  0
 18 19  1  0  0  0
 19 20  2  0  0  0
  3  4  2  0  0  0
  4  5  1  0  0  0
  5  6  2  0  0  0
  6  7  1  0  0  0
  7  8  2  0  0  0
  8  9  1  0  0  0
  9 10  2  0  0  0
 10  2  1  0  0  0
 19 15  1  0  0  0
 10  5  1  0  0  0
M  END
> <minimizedAffinity>
-7.55386

> <CNNscore>
0.3410106897

> <CNNaffinity>
5.2567014694

> <CNN_VS>
1.7925914526

> <CNNaffinity_variance>
0.1358232498

$$$$
[H]c1c([H])c([H])c2c(nc(SC([H])([H])C(=O)N3C(=O)C([H])([H])C([H])([H])C3([H])[H])n2C([H])([H])[H])c1[H]


 20 22  0  0  0  0  0  0  0  0999 V2000
   38.9005   13.7769  -14.1737 C   0  0  0  0  0  0  0  0  0  0  0  0
   38.9520   12.9196  -15.3611 N   0  0  0  0  0  0  0  0  0  0  0  0
   39.9772   12.5688  -16.1248 C   0  0  0  0  0  0  0  0  0  0  0  0
   39.5032   11.7133  -17.0772 N   0  0  0  0  0  0  0  0  0  0  0  0
   38.1806   11.5245  -16.9174 C   0  0  0  0  0  0  0  0  0  0  0  0
   37.2536   10.7667  -17.6096 C   0  0  0  0  0  0  0  0  0  0  0  0
   35.9424   10.7710  -17.2076 C   0  0  0  0  0  0  0  0  0  0  0  0
   35.5814   11.5424  -16.1088 C   0  0  0  0  0  0  0  0  0  0  0  0
   36.5012   12.2912  -15.4259 C   0  0  0  0  0  0  0  0  0  0  0  0
   37.8353   12.2922  -15.8277 C   0  0  0  0  0  0  0  0  0  0  0  0
   41.6452   13.0811  -16.0537 S   0  0  0  0  0  0  0  0  0  0  0  0
   42.3907   13.2733  -14.4685 C   0  0  0  0  0  0  0  0  0  0  0  0
   43.7658   13.7143  -14.3627 C   0  0  0  0  0  0  0  0  0  0  0  0
   44.7249   13.2114  -14.9464 O   0  0  0  0  0  0  0  0  0  0  0  0
   44.0192   14.8414  -13.4937 N   0  0  0  0  0  0  0  0  0  0  0  0
   43.0250   15.5524  -12.7400 C   0  0  0  0  0  0  0  0  0  0  0  0
   43.7003   16.8733  -12.3537 C   0  0  0  0  0  0  0  0  0  0  0  0
   45.1333   16.4515  -12.1697 C   0  0  0  0  0  0  0  0  0  0  0  0
   45.2959   15.4383  -13.2404 C   0  0  0  0  0  0  0  0  0  0  0  0
   46.3450   15.1173  -13.8548 O   0  0  0  0  0  0  0  0  0  0  0  0
  1  2  1  0  0  0
  2  3  1  0  0  0
  3 11  1  0  0  0
 11 12  1  0  0  0
 12 13  1  0  0  0
 13 14  2  0  0  0
 13 15  1  0  0  0
 15 16  1  0  0  0
 16 17  1  0  0  0
 17 18  1  0  0  0
 18 19  1  0  0  0
 19 20  2  0  0  0
  3  4  2  0  0  0
  4  5  1  0  0  0
  5  6  2  0  0  0
  6  7  1  0  0  0
  7  8  2  0  0  0
  8  9  1  0  0  0
  9 10  2  0  0  0
 10  2  1  0  0  0
 19 15  1  0  0  0
 10  5  1  0  0  0
M  END
> <minimizedAffinity>
-6.58456

> <CNNscore>
0.3355424106

> <CNNaffinity>
5.0539655685

> <CNN_VS>
1.6958197355

> <CNNaffinity_variance>
0.0335334800

$$$$
[H]c1c([H])c([H])c2c(nc(SC([H])([H])C(=O)N3C(=O)C([H])([H])C([H])([H])C3([H])[H])n2C([H])([H])[H])c1[H]


 20 22  0  0  0  0  0  0  0  0999 V2000
   38.6181   11.4935  -17.0269 C   0  0  0  0  0  0  0  0  0  0  0  0
   37.6338   11.9535  -16.0435 N   0  0  0  0  0  0  0  0  0  0  0  0
   37.7675   12.7769  -15.0132 C   0  0  0  0  0  0  0  0  0  0  0  0
   36.5365   12.9175  -14.4402 N   0  0  0  0  0  0  0  0  0  0  0  0
   35.6262   12.1832  -15.1055 C   0  0  0  0  0  0  0  0  0  0  0  0
   34.2688   11.9887  -14.9251 C   0  0  0  0  0  0  0  0  0  0  0  0
   33.5855   11.1623  -15.7802 C   0  0  0  0  0  0  0  0  0  0  0  0
   34.2824   10.5403  -16.8098 C   0  0  0  0  0  0  0  0  0  0  0  0
   35.6256   10.7349  -16.9857 C   0  0  0  0  0  0  0  0  0  0  0  0
   36.3271   11.5731  -16.1215 C   0  0  0  0  0  0  0  0  0  0  0  0
   39.2017   13.5498  -14.3845 S   0  0  0  0  0  0  0  0  0  0  0  0
   40.7095   13.3599  -15.2766 C   0  0  0  0  0  0  0  0  0  0  0  0
   41.9785   13.5306  -14.6004 C   0  0  0  0  0  0  0  0  0  0  0  0
   42.1348   14.0379  -13.4906 O   0  0  0  0  0  0  0  0  0  0  0  0
   43.1532   13.0612  -15.3001 N   0  0  0  0  0  0  0  0  0  0  0  0
   43.1595   12.4421  -16.5957 C   0  0  0  0  0  0  0  0  0  0  0  0
   44.5264   11.7547  -16.6920 C   0  0  0  0  0  0  0  0  0  0  0  0
   45.4063   12.6948  -15.9130 C   0  0  0  0  0  0  0  0  0  0  0  0
   44.5013   13.1312  -14.8222 C   0  0  0  0  0  0  0  0  0  0  0  0
   44.8064   13.5067  -13.6616 O   0  0  0  0  0  0  0  0  0  0  0  0
  1  2  1  0  0  0
  2  3  1  0  0  0
  3 11  1  0  0  0
 11 12  1  0  0  0
 12 13  1  0  0  0
 13 14  2  0  0  0
 13 15  1  0  0  0
 15 16  1  0  0  0
 16 17  1  0  0  0
 17 18  1  0  0  0
 18 19  1  0  0  0
 19 20  2  0  0  0
  3  4  2  0  0  0
  4  5  1  0  0  0
  5  6  2  0  0  0
  6  7  1  0  0  0
  7  8  2  0  0  0
  8  9  1  0  0  0
  9 10  2  0  0  0
 10  2  1  0  0  0
 19 15  1  0  0  0
 10  5  1  0  0  0
M  END
> <minimizedAffinity>
-7.35450

> <CNNscore>
0.2865944803

> <CNNaffinity>
5.2368822098

> <CNN_VS>
1.5008615255

> <CNNaffinity_variance>
0.1604129970

$$$$
[H]c1c(C([H])([H])[H])c([H])c2c(c1C(F)(F)F)C(=O)N1C([H])([H])C([H])([H])N([H])C([H])([H])[C@@]21[H]


 20 22  0  0  0  0  0  0  0  0999 V2000
   37.3726   10.4055  -18.0931 C   0  0  0  0  0  0  0  0  0  0  0  0
   37.4653   11.3172  -16.9219 C   0  0  0  0  0  0  0  0  0  0  0  0
   36.3249   11.4958  -16.1706 C   0  0  0  0  0  0  0  0  0  0  0  0
   36.3469   12.3232  -15.0800 C   0  0  0  0  0  0  0  0  0  0  0  0
   37.5371   12.9793  -14.7449 C   0  0  0  0  0  0  0  0  0  0  0  0
   38.6861   12.8197  -15.4737 C   0  0  0  0  0  0  0  0  0  0  0  0
   38.6338   11.9741  -16.5743 C   0  0  0  0  0  0  0  0  0  0  0  0
   37.2012   13.7891  -13.5733 C   0  0  0  0  0  0  0  0  0  0  0  0
   38.0058   14.5236  -12.9733 O   0  0  0  0  0  0  0  0  0  0  0  0
   35.8552   13.6224  -13.2247 N   0  0  0  0  0  0  0  0  0  0  0  0
   34.9793   14.1939  -12.2331 C   0  0  0  0  0  0  0  0  0  0  0  0
   33.6738   14.6561  -12.8771 C   0  0  0  0  0  0  0  0  0  0  0  0
   33.1352   13.5772  -13.6412 N   0  0  0  0  0  0  0  0  0  0  0  0
   33.9970   13.1231  -14.7202 C   0  0  0  0  0  0  0  0  0  0  0  0
   35.2832   12.6470  -14.1240 C   0  0  0  0  0  0  0  0  0  0  0  0
   32.1924   13.7669  -14.0298 H   0  0  0  0  0  0  0  0  0  0  0  0
   39.9333   13.5174  -15.0929 C   0  0  0  0  0  0  0  0  0  0  0  0
   40.4013   13.2192  -13.8512 F   0  0  0  0  0  0  0  0  0  0  0  0
   39.7833   14.9002  -15.2721 F   0  0  0  0  0  0  0  0  0  0  0  0
   40.9526   13.1669  -15.9912 F   0  0  0  0  0  0  0  0  0  0  0  0
  1  2  1  0  0  0
  2  3  2  0  0  0
  3  4  1  0  0  0
  4  5  2  0  0  0
  5  6  1  0  0  0
  6 17  1  0  0  0
 17 18  1  0  0  0
 17 19  1  0  0  0
 17 20  1  0  0  0
  6  7  2  0  0  0
  5  8  1  0  0  0
  8  9  2  0  0  0
  8 10  1  0  0  0
 10 11  1  0  0  0
 11 12  1  0  0  0
 12 13  1  0  0  0
 13 14  1  0  0  0
 14 15  1  0  0  0
  7  2  1  0  0  0
 15 10  1  0  0  0
 15  4  1  0  0  0
 13 16  1  0  0  0
M  END
> <minimizedAffinity>
-8.31390

> <CNNscore>
0.7039252520

> <CNNaffinity>
5.6378421783

> <CNN_VS>
3.9686195850

> <CNNaffinity_variance>
0.1533789039

$$$$
[H]c1c(C([H])([H])[H])c([H])c2c(c1C(F)(F)F)C(=O)N1C([H])([H])C([H])([H])N([H])C([H])([H])[C@@]21[H]


 20 22  0  0  0  0  0  0  0  0999 V2000
   33.3222   10.6102  -17.2315 C   0  0  0  0  0  0  0  0  0  0  0  0
   34.4000   11.1914  -16.3876 C   0  0  0  0  0  0  0  0  0  0  0  0
   34.0224   11.7834  -15.2027 C   0  0  0  0  0  0  0  0  0  0  0  0
   34.9688   12.3366  -14.3825 C   0  0  0  0  0  0  0  0  0  0  0  0
   36.3145   12.2915  -14.7654 C   0  0  0  0  0  0  0  0  0  0  0  0
   36.7184   11.7086  -15.9375 C   0  0  0  0  0  0  0  0  0  0  0  0
   35.7364   11.1555  -16.7491 C   0  0  0  0  0  0  0  0  0  0  0  0
   37.0314   12.9884  -13.6969 C   0  0  0  0  0  0  0  0  0  0  0  0
   38.2633   13.1575  -13.6721 O   0  0  0  0  0  0  0  0  0  0  0  0
   36.1414   13.4357  -12.7125 N   0  0  0  0  0  0  0  0  0  0  0  0
   36.2626   14.2087  -11.5022 C   0  0  0  0  0  0  0  0  0  0  0  0
   35.2184   15.3229  -11.4738 C   0  0  0  0  0  0  0  0  0  0  0  0
   33.9346   14.7514  -11.7260 N   0  0  0  0  0  0  0  0  0  0  0  0
   33.8169   14.0994  -13.0199 C   0  0  0  0  0  0  0  0  0  0  0  0
   34.8169   12.9891  -13.0781 C   0  0  0  0  0  0  0  0  0  0  0  0
   33.1489   15.4202  -11.6210 H   0  0  0  0  0  0  0  0  0  0  0  0
   38.1479   11.6659  -16.3145 C   0  0  0  0  0  0  0  0  0  0  0  0
   38.9465   10.9735  -15.4585 F   0  0  0  0  0  0  0  0  0  0  0  0
   38.6256   12.9663  -16.5322 F   0  0  0  0  0  0  0  0  0  0  0  0
   38.2785   11.0422  -17.5646 F   0  0  0  0  0  0  0  0  0  0  0  0
  1  2  1  0  0  0
  2  3  2  0  0  0
  3  4  1  0  0  0
  4  5  2  0  0  0
  5  6  1  0  0  0
  6 17  1  0  0  0
 17 18  1  0  0  0
 17 19  1  0  0  0
 17 20  1  0  0  0
  6  7  2  0  0  0
  5  8  1  0  0  0
  8  9  2  0  0  0
  8 10  1  0  0  0
 10 11  1  0  0  0
 11 12  1  0  0  0
 12 13  1  0  0  0
 13 14  1  0  0  0
 14 15  1  0  0  0
  7  2  1  0  0  0
 15 10  1  0  0  0
 15  4  1  0  0  0
 13 16  1  0  0  0
M  END
> <minimizedAffinity>
-8.50419

> <CNNscore>
0.6242668629

> <CNNaffinity>
5.3441224098

> <CNN_VS>
3.3361585140

> <CNNaffinity_variance>
0.1793111265

$$$$
[H]c1c(C([H])([H])[H])c([H])c2c(c1C(F)(F)F)C(=O)N1C([H])([H])C([H])([H])N([H])C([H])([H])[C@@]21[H]


 20 22  0  0  0  0  0  0  0  0999 V2000
   35.5178   13.6437  -12.5725 C   0  0  0  0  0  0  0  0  0  0  0  0
   35.8828   12.8984  -13.8067 C   0  0  0  0  0  0  0  0  0  0  0  0
   37.2103   12.8987  -14.1735 C   0  0  0  0  0  0  0  0  0  0  0  0
   37.6087   12.2305  -15.3001 C   0  0  0  0  0  0  0  0  0  0  0  0
   36.6525   11.5538  -16.0664 C   0  0  0  0  0  0  0  0  0  0  0  0
   35.3260   11.5362  -15.7248 C   0  0  0  0  0  0  0  0  0  0  0  0
   34.9514   12.2223  -14.5769 C   0  0  0  0  0  0  0  0  0  0  0  0
   37.4027   10.9915  -17.1899 C   0  0  0  0  0  0  0  0  0  0  0  0
   36.8983   10.3110  -18.1007 O   0  0  0  0  0  0  0  0  0  0  0  0
   38.7596   11.3250  -17.0966 N   0  0  0  0  0  0  0  0  0  0  0  0
   39.9226   11.1097  -17.9202 C   0  0  0  0  0  0  0  0  0  0  0  0
   40.6874   12.4172  -18.1157 C   0  0  0  0  0  0  0  0  0  0  0  0
   40.9263   13.0017  -16.8353 N   0  0  0  0  0  0  0  0  0  0  0  0
   39.7186   13.3292  -16.0956 C   0  0  0  0  0  0  0  0  0  0  0  0
   38.9493   12.0666  -15.8713 C   0  0  0  0  0  0  0  0  0  0  0  0
   41.5338   13.8419  -16.8636 H   0  0  0  0  0  0  0  0  0  0  0  0
   34.3370   10.8056  -16.5467 C   0  0  0  0  0  0  0  0  0  0  0  0
   34.5243    9.4599  -16.6082 F   0  0  0  0  0  0  0  0  0  0  0  0
   34.2594   11.3773  -17.8249 F   0  0  0  0  0  0  0  0  0  0  0  0
   33.0553   10.9993  -16.0095 F   0  0  0  0  0  0  0  0  0  0  0  0
  1  2  1  0  0  0
  2  3  2  0  0  0
  3  4  1  0  0  0
  4  5  2  0  0  0
  5  6  1  0  0  0
  6 17  1  0  0  0
 17 18  1  0  0  0
 17 19  1  0  0  0
 17 20  1  0  0  0
  6  7  2  0  0  0
  5  8  1  0  0  0
  8  9  2  0  0  0
  8 10  1  0  0  0
 10 11  1  0  0  0
 11 12  1  0  0  0
 12 13  1  0  0  0
 13 14  1  0  0  0
 14 15  1  0  0  0
  7  2  1  0  0  0
 15 10  1  0  0  0
 15  4  1  0  0  0
 13 16  1  0  0  0
M  END
> <minimizedAffinity>
-7.97974

> <CNNscore>
0.5398808122

> <CNNaffinity>
5.7086377144

> <CNN_VS>
3.0819840431

> <CNNaffinity_variance>
0.1183338165

$$$$
[H]c1c(C([H])([H])[H])c([H])c2c(c1C(F)(F)F)C(=O)N1C([H])([H])C([H])([H])N([H])C([H])([H])[C@@]21[H]


 20 22  0  0  0  0  0  0  0  0999 V2000
   41.3367   12.4261  -16.5403 C   0  0  0  0  0  0  0  0  0  0  0  0
   39.8729   12.4006  -16.2787 C   0  0  0  0  0  0  0  0  0  0  0  0
   39.3991   13.2089  -15.2692 C   0  0  0  0  0  0  0  0  0  0  0  0
   38.0610   13.2292  -14.9804 C   0  0  0  0  0  0  0  0  0  0  0  0
   37.1905   12.4211  -15.7211 C   0  0  0  0  0  0  0  0  0  0  0  0
   37.6340   11.6083  -16.7308 C   0  0  0  0  0  0  0  0  0  0  0  0
   38.9962   11.6088  -17.0014 C   0  0  0  0  0  0  0  0  0  0  0  0
   35.8699   12.6603  -15.1378 C   0  0  0  0  0  0  0  0  0  0  0  0
   34.8208   12.1191  -15.5294 O   0  0  0  0  0  0  0  0  0  0  0  0
   35.9526   13.5780  -14.0832 N   0  0  0  0  0  0  0  0  0  0  0  0
   35.0191   14.1266  -13.1321 C   0  0  0  0  0  0  0  0  0  0  0  0
   35.5839   14.0347  -11.7161 C   0  0  0  0  0  0  0  0  0  0  0  0
   36.8927   14.6048  -11.7092 N   0  0  0  0  0  0  0  0  0  0  0  0
   37.8399   13.9318  -12.5828 C   0  0  0  0  0  0  0  0  0  0  0  0
   37.3260   14.0156  -13.9846 C   0  0  0  0  0  0  0  0  0  0  0  0
   37.3128   14.6814  -10.7640 H   0  0  0  0  0  0  0  0  0  0  0  0
   36.6920   10.7710  -17.5046 C   0  0  0  0  0  0  0  0  0  0  0  0
   35.9201    9.9362  -16.7582 F   0  0  0  0  0  0  0  0  0  0  0  0
   37.3808   10.0788  -18.5112 F   0  0  0  0  0  0  0  0  0  0  0  0
   35.8057   11.6007  -18.2082 F   0  0  0  0  0  0  0  0  0  0  0  0
  1  2  1  0  0  0
  2  3  2  0  0  0
  3  4  1  0  0  0
  4  5  2  0  0  0
  5  6  1  0  0  0
  6 17  1  0  0  0
 17 18  1  0  0  0
 17 19  1  0  0  0
 17 20  1  0  0  0
  6  7  2  0  0  0
  5  8  1  0  0  0
  8  9  2  0  0  0
  8 10  1  0  0  0
 10 11  1  0  0  0
 11 12  1  0  0  0
 12 13  1  0  0  0
 13 14  1  0  0  0
 14 15  1  0  0  0
  7  2  1  0  0  0
 15 10  1  0  0  0
 15  4  1  0  0  0
 13 16  1  0  0  0
M  END
> <minimizedAffinity>
-8.34114

> <CNNscore>
0.5100215673

> <CNNaffinity>
5.4789948463

> <CNN_VS>
2.7944054604

> <CNNaffinity_variance>
0.1614393890

$$$$
[H]c1c(C([H])([H])[H])c([H])c2c(c1C(F)(F)F)C(=O)N1C([H])([H])C([H])([H])N([H])C([H])([H])[C@@]21[H]


 20 22  0  0  0  0  0  0  0  0999 V2000
   38.8505   10.9728  -17.5149 C   0  0  0  0  0  0  0  0  0  0  0  0
   37.6975   11.4538  -16.7082 C   0  0  0  0  0  0  0  0  0  0  0  0
   37.9455   12.4420  -15.7813 C   0  0  0  0  0  0  0  0  0  0  0  0
   36.9247   12.9262  -15.0081 C   0  0  0  0  0  0  0  0  0  0  0  0
   35.6365   12.4042  -15.1732 C   0  0  0  0  0  0  0  0  0  0  0  0
   35.3611   11.4219  -16.0875 C   0  0  0  0  0  0  0  0  0  0  0  0
   36.4161   10.9504  -16.8580 C   0  0  0  0  0  0  0  0  0  0  0  0
   34.8175   13.1090  -14.1863 C   0  0  0  0  0  0  0  0  0  0  0  0
   33.5989   12.9217  -14.0226 O   0  0  0  0  0  0  0  0  0  0  0  0
   35.5934   14.0181  -13.4565 N   0  0  0  0  0  0  0  0  0  0  0  0
   35.3502   14.9108  -12.3516 C   0  0  0  0  0  0  0  0  0  0  0  0
   36.4219   14.7352  -11.2777 C   0  0  0  0  0  0  0  0  0  0  0  0
   37.7058   14.8365  -11.8938 N   0  0  0  0  0  0  0  0  0  0  0  0
   37.9604   13.8277  -12.9090 C   0  0  0  0  0  0  0  0  0  0  0  0
   36.9363   13.9797  -13.9881 C   0  0  0  0  0  0  0  0  0  0  0  0
   38.4958   14.8347  -11.2217 H   0  0  0  0  0  0  0  0  0  0  0  0
   33.9891   10.8938  -16.2488 C   0  0  0  0  0  0  0  0  0  0  0  0
   33.1148   11.7429  -16.8527 F   0  0  0  0  0  0  0  0  0  0  0  0
   33.5018   10.4392  -15.0149 F   0  0  0  0  0  0  0  0  0  0  0  0
   34.0281    9.7391  -17.0450 F   0  0  0  0  0  0  0  0  0  0  0  0
  1  2  1  0  0  0
  2  3  2  0  0  0
  3  4  1  0  0  0
  4  5  2  0  0  0
  5  6  1  0  0  0
  6 17  1  0  0  0
 17 18  1  0  0  0
 17 19  1  0  0  0
 17 20  1  0  0  0
  6  7  2  0  0  0
  5  8  1  0  0  0
  8  9  2  0  0  0
  8 10  1  0  0  0
 10 11  1  0  0  0
 11 12  1  0  0  0
 12 13  1  0  0  0
 13 14  1  0  0  0
 14 15  1  0  0  0
  7  2  1  0  0  0
 15 10  1  0  0  0
 15  4  1  0  0  0
 13 16  1  0  0  0
M  END
> <minimizedAffinity>
-8.25612

> <CNNscore>
0.4965473115

> <CNNaffinity>
5.4263067245

> <CNN_VS>
2.6944179535

> <CNNaffinity_variance>
0.1430558860

$$$$
[H]c1c(C([H])([H])[H])c([H])c2c(c1C(F)(F)F)C(=O)N1C([H])([H])C([H])([H])N([H])C([H])([H])[C@@]21[H]


 20 22  0  0  0  0  0  0  0  0999 V2000
   38.3221   10.4781  -19.3524 C   0  0  0  0  0  0  0  0  0  0  0  0
   38.6994   11.1852  -18.0997 C   0  0  0  0  0  0  0  0  0  0  0  0
   37.7006   11.4116  -17.1787 C   0  0  0  0  0  0  0  0  0  0  0  0
   37.9855   12.0581  -16.0059 C   0  0  0  0  0  0  0  0  0  0  0  0
   39.2969   12.4820  -15.7613 C   0  0  0  0  0  0  0  0  0  0  0  0
   40.3097   12.2696  -16.6589 C   0  0  0  0  0  0  0  0  0  0  0  0
   39.9912   11.6111  -17.8395 C   0  0  0  0  0  0  0  0  0  0  0  0
   39.2380   13.1502  -14.4607 C   0  0  0  0  0  0  0  0  0  0  0  0
   40.2159   13.6667  -13.8917 O   0  0  0  0  0  0  0  0  0  0  0  0
   37.9343   13.1270  -13.9500 N   0  0  0  0  0  0  0  0  0  0  0  0
   37.2865   13.6652  -12.7805 C   0  0  0  0  0  0  0  0  0  0  0  0
   36.0043   14.3979  -13.1702 C   0  0  0  0  0  0  0  0  0  0  0  0
   35.2121   13.5305  -13.9816 N   0  0  0  0  0  0  0  0  0  0  0  0
   35.8544   13.1222  -15.2200 C   0  0  0  0  0  0  0  0  0  0  0  0
   37.1097   12.3857  -14.8763 C   0  0  0  0  0  0  0  0  0  0  0  0
   34.2722   13.9073  -14.2062 H   0  0  0  0  0  0  0  0  0  0  0  0
   41.6892   12.7194  -16.3721 C   0  0  0  0  0  0  0  0  0  0  0  0
   42.6393   12.2270  -17.2115 F   0  0  0  0  0  0  0  0  0  0  0  0
   42.0052   12.4709  -15.0286 F   0  0  0  0  0  0  0  0  0  0  0  0
   41.7530   14.1167  -16.4835 F   0  0  0  0  0  0  0  0  0  0  0  0
  1  2  1  0  0  0
  2  3  2  0  0  0
  3  4  1  0  0  0
  4  5  2  0  0  0
  5  6  1  0  0  0
  6 17  1  0  0  0
 17 18  1  0  0  0
 17 19  1  0  0  0
 17 20  1  0  0  0
  6  7  2  0  0  0
  5  8  1  0  0  0
  8  9  2  0  0  0
  8 10  1  0  0  0
 10 11  1  0  0  0
 11 12  1  0  0  0
 12 13  1  0  0  0
 13 14  1  0  0  0
 14 15  1  0  0  0
  7  2  1  0  0  0
 15 10  1  0  0  0
 15  4  1  0  0  0
 13 16  1  0  0  0
M  END
> <minimizedAffinity>
-7.74086

> <CNNscore>
0.4908302724

> <CNNaffinity>
5.5739469528

> <CNN_VS>
2.7358620167

> <CNNaffinity_variance>
0.0619349889

$$$$
[H]c1c(C([H])([H])[H])c([H])c2c(c1C(F)(F)F)C(=O)N1C([H])([H])C([H])([H])N([H])C([H])([H])[C@@]21[H]


 20 22  0  0  0  0  0  0  0  0999 V2000
   41.8790   12.6518  -16.4258 C   0  0  0  0  0  0  0  0  0  0  0  0
   40.4138   12.4002  -16.4650 C   0  0  0  0  0  0  0  0  0  0  0  0
   39.6491   12.9747  -15.4739 C   0  0  0  0  0  0  0  0  0  0  0  0
   38.2941   12.7797  -15.4560 C   0  0  0  0  0  0  0  0  0  0  0  0
   37.7044   11.9929  -16.4522 C   0  0  0  0  0  0  0  0  0  0  0  0
   38.4404   11.4102  -17.4500 C   0  0  0  0  0  0  0  0  0  0  0  0
   39.8124   11.6257  -17.4429 C   0  0  0  0  0  0  0  0  0  0  0  0
   36.2803   11.9687  -16.1164 C   0  0  0  0  0  0  0  0  0  0  0  0
   35.4138   11.3663  -16.7745 O   0  0  0  0  0  0  0  0  0  0  0  0
   36.0316   12.7140  -14.9572 N   0  0  0  0  0  0  0  0  0  0  0  0
   34.8706   12.9848  -14.1474 C   0  0  0  0  0  0  0  0  0  0  0  0
   35.1819   12.7460  -12.6714 C   0  0  0  0  0  0  0  0  0  0  0  0
   36.3648   13.4696  -12.3319 N   0  0  0  0  0  0  0  0  0  0  0  0
   37.5445   13.0666  -13.0796 C   0  0  0  0  0  0  0  0  0  0  0  0
   37.2814   13.3017  -14.5328 C   0  0  0  0  0  0  0  0  0  0  0  0
   36.5932   13.4509  -11.3204 H   0  0  0  0  0  0  0  0  0  0  0  0
   37.7916   10.5908  -18.4965 C   0  0  0  0  0  0  0  0  0  0  0  0
   36.8295   11.2320  -19.2129 F   0  0  0  0  0  0  0  0  0  0  0  0
   37.3142    9.3945  -17.9419 F   0  0  0  0  0  0  0  0  0  0  0  0
   38.7587   10.1735  -19.4235 F   0  0  0  0  0  0  0  0  0  0  0  0
  1  2  1  0  0  0
  2  3  2  0  0  0
  3  4  1  0  0  0
  4  5  2  0  0  0
  5  6  1  0  0  0
  6 17  1  0  0  0
 17 18  1  0  0  0
 17 19  1  0  0  0
 17 20  1  0  0  0
  6  7  2  0  0  0
  5  8  1  0  0  0
  8  9  2  0  0  0
  8 10  1  0  0  0
 10 11  1  0  0  0
 11 12  1  0  0  0
 12 13  1  0  0  0
 13 14  1  0  0  0
 14 15  1  0  0  0
  7  2  1  0  0  0
 15 10  1  0  0  0
 15  4  1  0  0  0
 13 16  1  0  0  0
M  END
> <minimizedAffinity>
-8.05492

> <CNNscore>
0.4790186286

> <CNNaffinity>
5.5871953964

> <CNN_VS>
2.6763706207

> <CNNaffinity_variance>
0.1222346649

$$$$
[H]c1c(C([H])([H])[H])c([H])c2c(c1C(F)(F)F)C(=O)N1C([H])([H])C([H])([H])N([H])C([H])([H])[C@@]21[H]


 20 22  0  0  0  0  0  0  0  0999 V2000
   37.0092   10.3154  -17.9696 C   0  0  0  0  0  0  0  0  0  0  0  0
   37.7236   11.2181  -17.0281 C   0  0  0  0  0  0  0  0  0  0  0  0
   36.9968   11.7382  -15.9800 C   0  0  0  0  0  0  0  0  0  0  0  0
   37.5985   12.5758  -15.0796 C   0  0  0  0  0  0  0  0  0  0  0  0
   38.9524   12.8925  -15.2412 C   0  0  0  0  0  0  0  0  0  0  0  0
   39.6993   12.3893  -16.2734 C   0  0  0  0  0  0  0  0  0  0  0  0
   39.0624   11.5421  -17.1709 C   0  0  0  0  0  0  0  0  0  0  0  0
   39.2542   13.8157  -14.1466 C   0  0  0  0  0  0  0  0  0  0  0  0
   40.3705   14.3260  -13.9460 O   0  0  0  0  0  0  0  0  0  0  0  0
   38.1169   14.0427  -13.3617 N   0  0  0  0  0  0  0  0  0  0  0  0
   37.8091   14.8780  -12.2283 C   0  0  0  0  0  0  0  0  0  0  0  0
   36.5157   15.6529  -12.4720 C   0  0  0  0  0  0  0  0  0  0  0  0
   35.4989   14.7310  -12.8650 N   0  0  0  0  0  0  0  0  0  0  0  0
   35.7922   14.0085  -14.0918 C   0  0  0  0  0  0  0  0  0  0  0  0
   37.0480   13.2234  -13.8847 C   0  0  0  0  0  0  0  0  0  0  0  0
   34.5565   15.1557  -12.9497 H   0  0  0  0  0  0  0  0  0  0  0  0
   41.1309   12.7323  -16.4163 C   0  0  0  0  0  0  0  0  0  0  0  0
   41.8963   12.4662  -15.3240 F   0  0  0  0  0  0  0  0  0  0  0  0
   41.2658   14.0649  -16.8317 F   0  0  0  0  0  0  0  0  0  0  0  0
   41.6817   11.9898  -17.4718 F   0  0  0  0  0  0  0  0  0  0  0  0
  1  2  1  0  0  0
  2  3  2  0  0  0
  3  4  1  0  0  0
  4  5  2  0  0  0
  5  6  1  0  0  0
  6 17  1  0  0  0
 17 18  1  0  0  0
 17 19  1  0  0  0
 17 20  1  0  0  0
  6  7  2  0  0  0
  5  8  1  0  0  0
  8  9  2  0  0  0
  8 10  1  0  0  0
 10 11  1  0  0  0
 11 12  1  0  0  0
 12 13  1  0  0  0
 13 14  1  0  0  0
 14 15  1  0  0  0
  7  2  1  0  0  0
 15 10  1  0  0  0
 15  4  1  0  0  0
 13 16  1  0  0  0
M  END
> <minimizedAffinity>
-8.59802

> <CNNscore>
0.4381111860

> <CNNaffinity>
5.2586293221

> <CNN_VS>
2.3038642406

> <CNNaffinity_variance>
0.1159307733

$$$$
[H]c1c(C([H])([H])[H])c([H])c2c(c1C(F)(F)F)C(=O)N1C([H])([H])C([H])([H])N([H])C([H])([H])[C@@]21[H]


 20 22  0  0  0  0  0  0  0  0999 V2000
   35.0908   10.9825  -16.4987 C   0  0  0  0  0  0  0  0  0  0  0  0
   36.5149   11.4080  -16.4504 C   0  0  0  0  0  0  0  0  0  0  0  0
   36.9401   12.0579  -15.3129 C   0  0  0  0  0  0  0  0  0  0  0  0
   38.2401   12.4745  -15.2087 C   0  0  0  0  0  0  0  0  0  0  0  0
   39.1217   12.2319  -16.2686 C   0  0  0  0  0  0  0  0  0  0  0  0
   38.7263   11.5873  -17.4109 C   0  0  0  0  0  0  0  0  0  0  0  0
   37.4020   11.1760  -17.4882 C   0  0  0  0  0  0  0  0  0  0  0  0
   40.3899   12.8260  -15.8443 C   0  0  0  0  0  0  0  0  0  0  0  0
   41.4323   12.8149  -16.5227 O   0  0  0  0  0  0  0  0  0  0  0  0
   40.2661   13.4053  -14.5754 N   0  0  0  0  0  0  0  0  0  0  0  0
   41.1349   14.1621  -13.7098 C   0  0  0  0  0  0  0  0  0  0  0  0
   40.4244   15.4161  -13.2045 C   0  0  0  0  0  0  0  0  0  0  0  0
   39.1653   15.0347  -12.6499 N   0  0  0  0  0  0  0  0  0  0  0  0
   38.2663   14.3965  -13.5973 C   0  0  0  0  0  0  0  0  0  0  0  0
   38.9243   13.1525  -14.1030 C   0  0  0  0  0  0  0  0  0  0  0  0
   38.6581   15.8111  -12.1856 H   0  0  0  0  0  0  0  0  0  0  0  0
   39.6801   11.3350  -18.5127 C   0  0  0  0  0  0  0  0  0  0  0  0
   40.7196   10.5172  -18.1956 F   0  0  0  0  0  0  0  0  0  0  0  0
   40.1232   12.5514  -19.0517 F   0  0  0  0  0  0  0  0  0  0  0  0
   39.0054   10.7175  -19.5768 F   0  0  0  0  0  0  0  0  0  0  0  0
  1  2  1  0  0  0
  2  3  2  0  0  0
  3  4  1  0  0  0
  4  5  2  0  0  0
  5  6  1  0  0  0
  6 17  1  0  0  0
 17 18  1  0  0  0
 17 19  1  0  0  0
 17 20  1  0  0  0
  6  7  2  0  0  0
  5  8  1  0  0  0
  8  9  2  0  0  0
  8 10  1  0  0  0
 10 11  1  0  0  0
 11 12  1  0  0  0
 12 13  1  0  0  0
 13 14  1  0  0  0
 14 15  1  0  0  0
  7  2  1  0  0  0
 15 10  1  0  0  0
 15  4  1  0  0  0
 13 16  1  0  0  0
M  END
> <minimizedAffinity>
-8.70859

> <CNNscore>
0.4296202958

> <CNNaffinity>
5.3189878464

> <CNN_VS>
2.2851450443

> <CNNaffinity_variance>
0.0413659364

$$$$
[H]N=C1c2c([H])nc([H])nc2C([H])([H])[C@](c2c([H])c(-c3c([H])nc([H])c(Cl)c3[H])c([H])c([H])c2F)(C([H])([H])[H])N1[H]


 28 31  0  0  0  0  0  0  0  0999 V2000
   35.4951   12.2330  -12.5371 C   0  0  0  0  0  0  0  0  0  0  0  0
   35.4558   13.1141  -13.7486 C   0  0  0  0  0  0  0  0  0  0  0  0
   34.0238   13.5407  -13.9601 C   0  0  0  0  0  0  0  0  0  0  0  0
   33.5225   14.3025  -12.8002 C   0  0  0  0  0  0  0  0  0  0  0  0
   32.2118   14.2567  -12.4874 N   0  0  0  0  0  0  0  0  0  0  0  0
   31.6984   14.9410  -11.4503 C   0  0  0  0  0  0  0  0  0  0  0  0
   32.5474   15.6855  -10.7219 N   0  0  0  0  0  0  0  0  0  0  0  0
   33.8749   15.7622  -10.9985 C   0  0  0  0  0  0  0  0  0  0  0  0
   34.3887   15.0631  -12.0547 C   0  0  0  0  0  0  0  0  0  0  0  0
   35.8311   15.1100  -12.3762 C   0  0  0  0  0  0  0  0  0  0  0  0
   36.6493   15.8081  -11.7088 N   0  0  0  0  0  0  0  0  0  0  0  0
   36.2300   14.3214  -13.4886 N   0  0  0  0  0  0  0  0  0  0  0  0
   36.4977   16.4130  -10.9032 H   0  0  0  0  0  0  0  0  0  0  0  0
   37.0434   14.6324  -14.0605 H   0  0  0  0  0  0  0  0  0  0  0  0
   35.9389   12.4190  -14.9695 C   0  0  0  0  0  0  0  0  0  0  0  0
   37.2534   12.4655  -15.3780 C   0  0  0  0  0  0  0  0  0  0  0  0
   37.6825   11.8092  -16.5288 C   0  0  0  0  0  0  0  0  0  0  0  0
   36.7464   11.1023  -17.2587 C   0  0  0  0  0  0  0  0  0  0  0  0
   35.4061   11.0326  -16.8757 C   0  0  0  0  0  0  0  0  0  0  0  0
   35.0376   11.7028  -15.7261 C   0  0  0  0  0  0  0  0  0  0  0  0
   33.7368   11.6619  -15.3132 F   0  0  0  0  0  0  0  0  0  0  0  0
   39.0664   11.8444  -16.9824 C   0  0  0  0  0  0  0  0  0  0  0  0
   39.4026   11.2895  -18.1968 C   0  0  0  0  0  0  0  0  0  0  0  0
   40.6837   11.3035  -18.6465 N   0  0  0  0  0  0  0  0  0  0  0  0
   41.6903   11.8558  -17.9383 C   0  0  0  0  0  0  0  0  0  0  0  0
   41.3912   12.4182  -16.7233 C   0  0  0  0  0  0  0  0  0  0  0  0
   42.6810   13.1364  -15.7937 Cl  0  0  0  0  0  0  0  0  0  0  0  0
   40.0800   12.4149  -16.2412 C   0  0  0  0  0  0  0  0  0  0  0  0
  2  1  1  0  0  0
  2 15  1  0  0  0
 15 16  2  0  0  0
 16 17  1  0  0  0
 17 22  1  0  0  0
 22 23  2  0  0  0
 23 24  1  0  0  0
 24 25  2  0  0  0
 25 26  1  0  0  0
 26 27  1  0  0  0
 26 28  2  0  0  0
 17 18  2  0  0  0
 18 19  1  0  0  0
 19 20  2  0  0  0
 20 21  1  0  0  0
  2  3  1  0  0  0
  3  4  1  0  0  0
  4  5  2  0  0  0
  5  6  1  0  0  0
  6  7  2  0  0  0
  7  8  1  0  0  0
  8  9  2  0  0  0
  9 10  1  0  0  0
 10 11  2  0  0  0
 10 12  1  0  0  0
 12  2  1  0  0  0
 20 15  1  0  0  0
  9  4  1  0  0  0
 28 22  1  0  0  0
 11 13  1  0  0  0
 12 14  1  0  0  0
M  END
> <minimizedAffinity>
-10.13048

> <CNNscore>
0.6376085877

> <CNNaffinity>
7.2441987991

> <CNN_VS>
4.6189632416

> <CNNaffinity_variance>
0.1003149375

$$$$
[H]N=C1c2c([H])nc([H])nc2C([H])([H])[C@](c2c([H])c(-c3c([H])nc([H])c(Cl)c3[H])c([H])c([H])c2F)(C([H])([H])[H])N1[H]


 28 31  0  0  0  0  0  0  0  0999 V2000
   45.0995   12.9258  -16.0511 C   0  0  0  0  0  0  0  0  0  0  0  0
   44.4787   13.5300  -14.8283 C   0  0  0  0  0  0  0  0  0  0  0  0
   44.9600   12.7446  -13.6329 C   0  0  0  0  0  0  0  0  0  0  0  0
   46.4284   12.8188  -13.5083 C   0  0  0  0  0  0  0  0  0  0  0  0
   47.1044   11.7903  -12.9577 N   0  0  0  0  0  0  0  0  0  0  0  0
   48.4402   11.8096  -12.8070 C   0  0  0  0  0  0  0  0  0  0  0  0
   49.0925   12.9057  -13.2299 N   0  0  0  0  0  0  0  0  0  0  0  0
   48.4547   13.9655  -13.7907 C   0  0  0  0  0  0  0  0  0  0  0  0
   47.0964   13.9375  -13.9404 C   0  0  0  0  0  0  0  0  0  0  0  0
   46.3700   15.0660  -14.5608 C   0  0  0  0  0  0  0  0  0  0  0  0
   46.9614   16.1110  -14.9615 N   0  0  0  0  0  0  0  0  0  0  0  0
   44.9638   14.8953  -14.6692 N   0  0  0  0  0  0  0  0  0  0  0  0
   47.9490   16.3600  -14.9406 H   0  0  0  0  0  0  0  0  0  0  0  0
   44.3500   15.7362  -14.6318 H   0  0  0  0  0  0  0  0  0  0  0  0
   42.9942   13.4888  -14.8683 C   0  0  0  0  0  0  0  0  0  0  0  0
   42.2972   12.8291  -15.8563 C   0  0  0  0  0  0  0  0  0  0  0  0
   40.9050   12.8075  -15.8756 C   0  0  0  0  0  0  0  0  0  0  0  0
   40.2327   13.4716  -14.8678 C   0  0  0  0  0  0  0  0  0  0  0  0
   40.9049   14.1505  -13.8503 C   0  0  0  0  0  0  0  0  0  0  0  0
   42.2853   14.1384  -13.8819 C   0  0  0  0  0  0  0  0  0  0  0  0
   42.9846   14.7892  -12.9063 F   0  0  0  0  0  0  0  0  0  0  0  0
   40.1452   12.1184  -16.9099 C   0  0  0  0  0  0  0  0  0  0  0  0
   40.7229   11.8750  -18.1357 C   0  0  0  0  0  0  0  0  0  0  0  0
   40.0404   11.2377  -19.1214 N   0  0  0  0  0  0  0  0  0  0  0  0
   38.7712   10.8104  -18.9594 C   0  0  0  0  0  0  0  0  0  0  0  0
   38.1642   11.0361  -17.7501 C   0  0  0  0  0  0  0  0  0  0  0  0
   36.5226   10.4908  -17.5232 Cl  0  0  0  0  0  0  0  0  0  0  0  0
   38.8477   11.6900  -16.7219 C   0  0  0  0  0  0  0  0  0  0  0  0
  2  1  1  0  0  0
  2 15  1  0  0  0
 15 16  2  0  0  0
 16 17  1  0  0  0
 17 22  1  0  0  0
 22 23  2  0  0  0
 23 24  1  0  0  0
 24 25  2  0  0  0
 25 26  1  0  0  0
 26 27  1  0  0  0
 26 28  2  0  0  0
 17 18  2  0  0  0
 18 19  1  0  0  0
 19 20  2  0  0  0
 20 21  1  0  0  0
  2  3  1  0  0  0
  3  4  1  0  0  0
  4  5  2  0  0  0
  5  6  1  0  0  0
  6  7  2  0  0  0
  7  8  1  0  0  0
  8  9  2  0  0  0
  9 10  1  0  0  0
 10 11  2  0  0  0
 10 12  1  0  0  0
 12  2  1  0  0  0
 20 15  1  0  0  0
  9  4  1  0  0  0
 28 22  1  0  0  0
 11 13  1  0  0  0
 12 14  1  0  0  0
M  END
> <minimizedAffinity>
-8.63468

> <CNNscore>
0.5879964828

> <CNNaffinity>
6.5465698242

> <CNN_VS>
3.8493599892

> <CNNaffinity_variance>
0.1702495515

$$$$
[H]N=C1c2c([H])nc([H])nc2C([H])([H])[C@](c2c([H])c(-c3c([H])nc([H])c(Cl)c3[H])c([H])c([H])c2F)(C([H])([H])[H])N1[H]


 28 31  0  0  0  0  0  0  0  0999 V2000
   36.9492   12.1854  -13.1255 C   0  0  0  0  0  0  0  0  0  0  0  0
   37.3071   13.1935  -14.1750 C   0  0  0  0  0  0  0  0  0  0  0  0
   37.2897   12.4918  -15.5109 C   0  0  0  0  0  0  0  0  0  0  0  0
   35.9489   11.9515  -15.8066 C   0  0  0  0  0  0  0  0  0  0  0  0
   35.8283   10.8420  -16.5632 N   0  0  0  0  0  0  0  0  0  0  0  0
   34.6318   10.3140  -16.8749 C   0  0  0  0  0  0  0  0  0  0  0  0
   33.5402   10.9376  -16.4006 N   0  0  0  0  0  0  0  0  0  0  0  0
   33.6122   12.0570  -15.6348 C   0  0  0  0  0  0  0  0  0  0  0  0
   34.8327   12.5871  -15.3223 C   0  0  0  0  0  0  0  0  0  0  0  0
   34.9505   13.7952  -14.4781 C   0  0  0  0  0  0  0  0  0  0  0  0
   33.9371   14.4034  -14.0245 N   0  0  0  0  0  0  0  0  0  0  0  0
   36.2791   14.2260  -14.2183 N   0  0  0  0  0  0  0  0  0  0  0  0
   32.9439   14.2062  -14.1361 H   0  0  0  0  0  0  0  0  0  0  0  0
   36.4597   15.2415  -14.0721 H   0  0  0  0  0  0  0  0  0  0  0  0
   38.6526   13.7843  -13.9564 C   0  0  0  0  0  0  0  0  0  0  0  0
   39.7835   13.3030  -14.5780 C   0  0  0  0  0  0  0  0  0  0  0  0
   41.0354   13.8705  -14.3545 C   0  0  0  0  0  0  0  0  0  0  0  0
   41.1157   14.9403  -13.4840 C   0  0  0  0  0  0  0  0  0  0  0  0
   39.9917   15.4551  -12.8362 C   0  0  0  0  0  0  0  0  0  0  0  0
   38.7766   14.8527  -13.0957 C   0  0  0  0  0  0  0  0  0  0  0  0
   37.6501   15.3235  -12.4844 F   0  0  0  0  0  0  0  0  0  0  0  0
   42.2460   13.3789  -14.9984 C   0  0  0  0  0  0  0  0  0  0  0  0
   42.1518   12.6152  -16.1402 C   0  0  0  0  0  0  0  0  0  0  0  0
   43.2610   12.1397  -16.7624 N   0  0  0  0  0  0  0  0  0  0  0  0
   44.5058   12.3850  -16.3040 C   0  0  0  0  0  0  0  0  0  0  0  0
   44.6371   13.1430  -15.1682 C   0  0  0  0  0  0  0  0  0  0  0  0
   46.2396   13.4695  -14.5608 Cl  0  0  0  0  0  0  0  0  0  0  0  0
   43.5094   13.6423  -14.5118 C   0  0  0  0  0  0  0  0  0  0  0  0
  2  1  1  0  0  0
  2 15  1  0  0  0
 15 16  2  0  0  0
 16 17  1  0  0  0
 17 22  1  0  0  0
 22 23  2  0  0  0
 23 24  1  0  0  0
 24 25  2  0  0  0
 25 26  1  0  0  0
 26 27  1  0  0  0
 26 28  2  0  0  0
 17 18  2  0  0  0
 18 19  1  0  0  0
 19 20  2  0  0  0
 20 21  1  0  0  0
  2  3  1  0  0  0
  3  4  1  0  0  0
  4  5  2  0  0  0
  5  6  1  0  0  0
  6  7  2  0  0  0
  7  8  1  0  0  0
  8  9  2  0  0  0
  9 10  1  0  0  0
 10 11  2  0  0  0
 10 12  1  0  0  0
 12  2  1  0  0  0
 20 15  1  0  0  0
  9  4  1  0  0  0
 28 22  1  0  0  0
 11 13  1  0  0  0
 12 14  1  0  0  0
M  END
> <minimizedAffinity>
-9.75303

> <CNNscore>
0.5531908870

> <CNNaffinity>
7.1809158325

> <CNN_VS>
3.9724171162

> <CNNaffinity_variance>
0.1636027843

$$$$
[H]N=C1c2c([H])nc([H])nc2C([H])([H])[C@](c2c([H])c(-c3c([H])nc([H])c(Cl)c3[H])c([H])c([H])c2F)(C([H])([H])[H])N1[H]


 28 31  0  0  0  0  0  0  0  0999 V2000
   36.3762   15.3267  -13.6649 C   0  0  0  0  0  0  0  0  0  0  0  0
   35.7122   13.9921  -13.5114 C   0  0  0  0  0  0  0  0  0  0  0  0
   36.1485   13.4113  -12.1886 C   0  0  0  0  0  0  0  0  0  0  0  0
   35.7374   14.2798  -11.0689 C   0  0  0  0  0  0  0  0  0  0  0  0
   36.4800   14.3152   -9.9441 N   0  0  0  0  0  0  0  0  0  0  0  0
   36.1455   15.0775   -8.8884 C   0  0  0  0  0  0  0  0  0  0  0  0
   35.0278   15.8165   -8.9909 N   0  0  0  0  0  0  0  0  0  0  0  0
   34.2487   15.8135  -10.1033 C   0  0  0  0  0  0  0  0  0  0  0  0
   34.5961   15.0358  -11.1723 C   0  0  0  0  0  0  0  0  0  0  0  0
   33.7809   15.0192  -12.4056 C   0  0  0  0  0  0  0  0  0  0  0  0
   32.7215   15.7018  -12.5239 N   0  0  0  0  0  0  0  0  0  0  0  0
   34.2684   14.1800  -13.4431 N   0  0  0  0  0  0  0  0  0  0  0  0
   32.2650   16.3320  -11.8663 H   0  0  0  0  0  0  0  0  0  0  0  0
   33.5873   13.7429  -14.0992 H   0  0  0  0  0  0  0  0  0  0  0  0
   36.0801   13.0488  -14.5987 C   0  0  0  0  0  0  0  0  0  0  0  0
   37.3508   12.9848  -15.1262 C   0  0  0  0  0  0  0  0  0  0  0  0
   37.6715   12.0951  -16.1484 C   0  0  0  0  0  0  0  0  0  0  0  0
   36.6722   11.2690  -16.6254 C   0  0  0  0  0  0  0  0  0  0  0  0
   35.3735   11.3054  -16.1155 C   0  0  0  0  0  0  0  0  0  0  0  0
   35.1130   12.2074  -15.1030 C   0  0  0  0  0  0  0  0  0  0  0  0
   33.8563   12.2775  -14.5736 F   0  0  0  0  0  0  0  0  0  0  0  0
   39.0070   12.0094  -16.7237 C   0  0  0  0  0  0  0  0  0  0  0  0
   39.1946   11.3611  -17.9238 C   0  0  0  0  0  0  0  0  0  0  0  0
   40.4270   11.2615  -18.4849 N   0  0  0  0  0  0  0  0  0  0  0  0
   41.5270   11.7859  -17.9063 C   0  0  0  0  0  0  0  0  0  0  0  0
   41.3769   12.4392  -16.7094 C   0  0  0  0  0  0  0  0  0  0  0  0
   42.7890   13.1231  -15.9466 Cl  0  0  0  0  0  0  0  0  0  0  0  0
   40.1182   12.5535  -16.1142 C   0  0  0  0  0  0  0  0  0  0  0  0
  2  1  1  0  0  0
  2 15  1  0  0  0
 15 16  2  0  0  0
 16 17  1  0  0  0
 17 22  1  0  0  0
 22 23  2  0  0  0
 23 24  1  0  0  0
 24 25  2  0  0  0
 25 26  1  0  0  0
 26 27  1  0  0  0
 26 28  2  0  0  0
 17 18  2  0  0  0
 18 19  1  0  0  0
 19 20  2  0  0  0
 20 21  1  0  0  0
  2  3  1  0  0  0
  3  4  1  0  0  0
  4  5  2  0  0  0
  5  6  1  0  0  0
  6  7  2  0  0  0
  7  8  1  0  0  0
  8  9  2  0  0  0
  9 10  1  0  0  0
 10 11  2  0  0  0
 10 12  1  0  0  0
 12  2  1  0  0  0
 20 15  1  0  0  0
  9  4  1  0  0  0
 28 22  1  0  0  0
 11 13  1  0  0  0
 12 14  1  0  0  0
M  END
> <minimizedAffinity>
-9.56207

> <CNNscore>
0.5201116204

> <CNNaffinity>
7.0409288406

> <CNN_VS>
3.6620688438

> <CNNaffinity_variance>
0.0861228555

$$$$
[H]N=C1c2c([H])nc([H])nc2C([H])([H])[C@](c2c([H])c(-c3c([H])nc([H])c(Cl)c3[H])c([H])c([H])c2F)(C([H])([H])[H])N1[H]


 28 31  0  0  0  0  0  0  0  0999 V2000
   44.3789   13.3075  -12.5199 C   0  0  0  0  0  0  0  0  0  0  0  0
   44.0732   13.9505  -13.8385 C   0  0  0  0  0  0  0  0  0  0  0  0
   44.5010   15.3953  -13.7552 C   0  0  0  0  0  0  0  0  0  0  0  0
   45.9497   15.5034  -13.4967 C   0  0  0  0  0  0  0  0  0  0  0  0
   46.4285   16.5620  -12.8127 N   0  0  0  0  0  0  0  0  0  0  0  0
   47.7398   16.7182  -12.5602 C   0  0  0  0  0  0  0  0  0  0  0  0
   48.5734   15.7694  -13.0190 N   0  0  0  0  0  0  0  0  0  0  0  0
   48.1374   14.6859  -13.7122 C   0  0  0  0  0  0  0  0  0  0  0  0
   46.8026   14.5346  -13.9644 C   0  0  0  0  0  0  0  0  0  0  0  0
   46.2899   13.3602  -14.7019 C   0  0  0  0  0  0  0  0  0  0  0  0
   47.0555   12.4566  -15.1489 N   0  0  0  0  0  0  0  0  0  0  0  0
   44.8806   13.3223  -14.8768 N   0  0  0  0  0  0  0  0  0  0  0  0
   48.0688   12.3645  -15.0972 H   0  0  0  0  0  0  0  0  0  0  0  0
   44.4905   12.8559  -15.7228 H   0  0  0  0  0  0  0  0  0  0  0  0
   42.6271   13.8928  -14.1743 C   0  0  0  0  0  0  0  0  0  0  0  0
   42.1417   13.1668  -15.2392 C   0  0  0  0  0  0  0  0  0  0  0  0
   40.7819   13.1308  -15.5374 C   0  0  0  0  0  0  0  0  0  0  0  0
   39.9223   13.8496  -14.7293 C   0  0  0  0  0  0  0  0  0  0  0  0
   40.3775   14.5964  -13.6416 C   0  0  0  0  0  0  0  0  0  0  0  0
   41.7358   14.5955  -13.3936 C   0  0  0  0  0  0  0  0  0  0  0  0
   42.2260   15.3119  -12.3396 F   0  0  0  0  0  0  0  0  0  0  0  0
   40.2442   12.3720  -16.6586 C   0  0  0  0  0  0  0  0  0  0  0  0
   41.0167   12.1679  -17.7799 C   0  0  0  0  0  0  0  0  0  0  0  0
   40.5437   11.4675  -18.8426 N   0  0  0  0  0  0  0  0  0  0  0  0
   39.3037   10.9365  -18.8618 C   0  0  0  0  0  0  0  0  0  0  0  0
   38.5063   11.1204  -17.7607 C   0  0  0  0  0  0  0  0  0  0  0  0
   36.8994   10.4410  -17.7686 Cl  0  0  0  0  0  0  0  0  0  0  0  0
   38.9727   11.8377  -16.6563 C   0  0  0  0  0  0  0  0  0  0  0  0
  2  1  1  0  0  0
  2 15  1  0  0  0
 15 16  2  0  0  0
 16 17  1  0  0  0
 17 22  1  0  0  0
 22 23  2  0  0  0
 23 24  1  0  0  0
 24 25  2  0  0  0
 25 26  1  0  0  0
 26 27  1  0  0  0
 26 28  2  0  0  0
 17 18  2  0  0  0
 18 19  1  0  0  0
 19 20  2  0  0  0
 20 21  1  0  0  0
  2  3  1  0  0  0
  3  4  1  0  0  0
  4  5  2  0  0  0
  5  6  1  0  0  0
  6  7  2  0  0  0
  7  8  1  0  0  0
  8  9  2  0  0  0
  9 10  1  0  0  0
 10 11  2  0  0  0
 10 12  1  0  0  0
 12  2  1  0  0  0
 20 15  1  0  0  0
  9  4  1  0  0  0
 28 22  1  0  0  0
 11 13  1  0  0  0
 12 14  1  0  0  0
M  END
> <minimizedAffinity>
-8.39986

> <CNNscore>
0.3974637091

> <CNNaffinity>
6.4106140137

> <CNN_VS>
2.5479865074

> <CNNaffinity_variance>
0.2367943227

$$$$
[H]N=C1c2c([H])nc([H])nc2C([H])([H])[C@](c2c([H])c(-c3c([H])nc([H])c(Cl)c3[H])c([H])c([H])c2F)(C([H])([H])[H])N1[H]


 28 31  0  0  0  0  0  0  0  0999 V2000
   40.2285   13.8831  -17.1700 C   0  0  0  0  0  0  0  0  0  0  0  0
   40.8121   12.6687  -16.5140 C   0  0  0  0  0  0  0  0  0  0  0  0
   39.7737   12.1123  -15.5709 C   0  0  0  0  0  0  0  0  0  0  0  0
   38.5531   11.7195  -16.3009 C   0  0  0  0  0  0  0  0  0  0  0  0
   37.3565   11.7813  -15.6826 N   0  0  0  0  0  0  0  0  0  0  0  0
   36.2143   11.4232  -16.2949 C   0  0  0  0  0  0  0  0  0  0  0  0
   36.3040   10.9941  -17.5651 N   0  0  0  0  0  0  0  0  0  0  0  0
   37.4864   10.9152  -18.2286 C   0  0  0  0  0  0  0  0  0  0  0  0
   38.6429   11.2814  -17.5988 C   0  0  0  0  0  0  0  0  0  0  0  0
   39.9462   11.2238  -18.2946 C   0  0  0  0  0  0  0  0  0  0  0  0
   40.0569   10.8179  -19.4885 N   0  0  0  0  0  0  0  0  0  0  0  0
   41.0626   11.6505  -17.5266 N   0  0  0  0  0  0  0  0  0  0  0  0
   39.3490   10.4851  -20.1411 H   0  0  0  0  0  0  0  0  0  0  0  0
   41.9954   11.2268  -17.7156 H   0  0  0  0  0  0  0  0  0  0  0  0
   42.0461   12.9780  -15.7468 C   0  0  0  0  0  0  0  0  0  0  0  0
   42.0267   13.6861  -14.5656 C   0  0  0  0  0  0  0  0  0  0  0  0
   43.1971   13.9679  -13.8656 C   0  0  0  0  0  0  0  0  0  0  0  0
   44.3915   13.5144  -14.3913 C   0  0  0  0  0  0  0  0  0  0  0  0
   44.4502   12.7940  -15.5853 C   0  0  0  0  0  0  0  0  0  0  0  0
   43.2584   12.5441  -16.2363 C   0  0  0  0  0  0  0  0  0  0  0  0
   43.2679   11.8425  -17.4076 F   0  0  0  0  0  0  0  0  0  0  0  0
   43.2030   14.7158  -12.6156 C   0  0  0  0  0  0  0  0  0  0  0  0
   44.3941   14.9576  -11.9686 C   0  0  0  0  0  0  0  0  0  0  0  0
   44.4330   15.6489  -10.8006 N   0  0  0  0  0  0  0  0  0  0  0  0
   43.3200   16.1341  -10.2127 C   0  0  0  0  0  0  0  0  0  0  0  0
   42.1153   15.9118  -10.8300 C   0  0  0  0  0  0  0  0  0  0  0  0
   40.6655   16.5315  -10.0833 Cl  0  0  0  0  0  0  0  0  0  0  0  0
   42.0520   15.2029  -12.0322 C   0  0  0  0  0  0  0  0  0  0  0  0
  2  1  1  0  0  0
  2 15  1  0  0  0
 15 16  2  0  0  0
 16 17  1  0  0  0
 17 22  1  0  0  0
 22 23  2  0  0  0
 23 24  1  0  0  0
 24 25  2  0  0  0
 25 26  1  0  0  0
 26 27  1  0  0  0
 26 28  2  0  0  0
 17 18  2  0  0  0
 18 19  1  0  0  0
 19 20  2  0  0  0
 20 21  1  0  0  0
  2  3  1  0  0  0
  3  4  1  0  0  0
  4  5  2  0  0  0
  5  6  1  0  0  0
  6  7  2  0  0  0
  7  8  1  0  0  0
  8  9  2  0  0  0
  9 10  1  0  0  0
 10 11  2  0  0  0
 10 12  1  0  0  0
 12  2  1  0  0  0
 20 15  1  0  0  0
  9  4  1  0  0  0
 28 22  1  0  0  0
 11 13  1  0  0  0
 12 14  1  0  0  0
M  END
> <minimizedAffinity>
-8.79375

> <CNNscore>
0.3795498908

> <CNNaffinity>
6.6897163391

> <CNN_VS>
2.5390810966

> <CNNaffinity_variance>
0.1832626760

$$$$
[H]N=C1c2c([H])nc([H])nc2C([H])([H])[C@](c2c([H])c(-c3c([H])nc([H])c(Cl)c3[H])c([H])c([H])c2F)(C([H])([H])[H])N1[H]


 28 31  0  0  0  0  0  0  0  0999 V2000
   44.1616   15.2949  -13.1843 C   0  0  0  0  0  0  0  0  0  0  0  0
   43.4867   13.9571  -13.1638 C   0  0  0  0  0  0  0  0  0  0  0  0
   44.3480   12.9960  -13.9460 C   0  0  0  0  0  0  0  0  0  0  0  0
   45.6840   12.8652  -13.3336 C   0  0  0  0  0  0  0  0  0  0  0  0
   46.7507   12.5900  -14.1110 N   0  0  0  0  0  0  0  0  0  0  0  0
   47.9881   12.4469  -13.6052 C   0  0  0  0  0  0  0  0  0  0  0  0
   48.1314   12.5891  -12.2767 N   0  0  0  0  0  0  0  0  0  0  0  0
   47.0869   12.8665  -11.4541 C   0  0  0  0  0  0  0  0  0  0  0  0
   45.8322   13.0107  -11.9766 C   0  0  0  0  0  0  0  0  0  0  0  0
   44.6742   13.3284  -11.1139 C   0  0  0  0  0  0  0  0  0  0  0  0
   44.7829   13.4614   -9.8598 N   0  0  0  0  0  0  0  0  0  0  0  0
   43.4335   13.4678  -11.7918 N   0  0  0  0  0  0  0  0  0  0  0  0
   45.5999   13.3851   -9.2560 H   0  0  0  0  0  0  0  0  0  0  0  0
   42.5549   13.2200  -11.2900 H   0  0  0  0  0  0  0  0  0  0  0  0
   42.1319   13.9976  -13.7723 C   0  0  0  0  0  0  0  0  0  0  0  0
   41.7838   13.2259  -14.8587 C   0  0  0  0  0  0  0  0  0  0  0  0
   40.5085   13.2837  -15.4149 C   0  0  0  0  0  0  0  0  0  0  0  0
   39.5908   14.1440  -14.8435 C   0  0  0  0  0  0  0  0  0  0  0  0
   39.9074   14.9410  -13.7423 C   0  0  0  0  0  0  0  0  0  0  0  0
   41.1869   14.8423  -13.2328 C   0  0  0  0  0  0  0  0  0  0  0  0
   41.5408   15.6031  -12.1556 F   0  0  0  0  0  0  0  0  0  0  0  0
   40.1165   12.4790  -16.5642 C   0  0  0  0  0  0  0  0  0  0  0  0
   40.9864   12.3250  -17.6203 C   0  0  0  0  0  0  0  0  0  0  0  0
   40.6499   11.5839  -18.7071 N   0  0  0  0  0  0  0  0  0  0  0  0
   39.4575   10.9621  -18.8145 C   0  0  0  0  0  0  0  0  0  0  0  0
   38.5659   11.0940  -17.7804 C   0  0  0  0  0  0  0  0  0  0  0  0
   37.0188   10.2972  -17.9028 Cl  0  0  0  0  0  0  0  0  0  0  0  0
   38.8913   11.8518  -16.6527 C   0  0  0  0  0  0  0  0  0  0  0  0
  2  1  1  0  0  0
  2 15  1  0  0  0
 15 16  2  0  0  0
 16 17  1  0  0  0
 17 22  1  0  0  0
 22 23  2  0  0  0
 23 24  1  0  0  0
 24 25  2  0  0  0
 25 26  1  0  0  0
 26 27  1  0  0  0
 26 28  2  0  0  0
 17 18  2  0  0  0
 18 19  1  0  0  0
 19 20  2  0  0  0
 20 21  1  0  0  0
  2  3  1  0  0  0
  3  4  1  0  0  0
  4  5  2  0  0  0
  5  6  1  0  0  0
  6  7  2  0  0  0
  7  8  1  0  0  0
  8  9  2  0  0  0
  9 10  1  0  0  0
 10 11  2  0  0  0
 10 12  1  0  0  0
 12  2  1  0  0  0
 20 15  1  0  0  0
  9  4  1  0  0  0
 28 22  1  0  0  0
 11 13  1  0  0  0
 12 14  1  0  0  0
M  END
> <minimizedAffinity>
-8.39366

> <CNNscore>
0.3585685194

> <CNNaffinity>
6.2685399055

> <CNN_VS>
2.2477011681

> <CNNaffinity_variance>
0.0551376715

$$$$
[H]N=C1c2c([H])nc([H])nc2C([H])([H])[C@](c2c([H])c(-c3c([H])nc([H])c(Cl)c3[H])c([H])c([H])c2F)(C([H])([H])[H])N1[H]


 28 31  0  0  0  0  0  0  0  0999 V2000
   36.2205   12.3218  -12.5849 C   0  0  0  0  0  0  0  0  0  0  0  0
   36.3351   13.6453  -13.2784 C   0  0  0  0  0  0  0  0  0  0  0  0
   36.8757   13.3923  -14.6644 C   0  0  0  0  0  0  0  0  0  0  0  0
   35.9644   12.5266  -15.4372 C   0  0  0  0  0  0  0  0  0  0  0  0
   36.4645   11.7087  -16.3853 N   0  0  0  0  0  0  0  0  0  0  0  0
   35.6797   10.9089  -17.1282 C   0  0  0  0  0  0  0  0  0  0  0  0
   34.3575   10.9507  -16.8923 N   0  0  0  0  0  0  0  0  0  0  0  0
   33.8083   11.7578  -15.9481 C   0  0  0  0  0  0  0  0  0  0  0  0
   34.6134   12.5677  -15.1971 C   0  0  0  0  0  0  0  0  0  0  0  0
   34.0526   13.4478  -14.1497 C   0  0  0  0  0  0  0  0  0  0  0  0
   32.8106   13.5089  -13.9128 N   0  0  0  0  0  0  0  0  0  0  0  0
   35.0053   14.2216  -13.4342 N   0  0  0  0  0  0  0  0  0  0  0  0
   32.0306   13.0185  -14.3475 H   0  0  0  0  0  0  0  0  0  0  0  0
   34.7195   15.1500  -13.0577 H   0  0  0  0  0  0  0  0  0  0  0  0
   37.2453   14.5796  -12.5672 C   0  0  0  0  0  0  0  0  0  0  0  0
   36.8092   15.4253  -11.5714 C   0  0  0  0  0  0  0  0  0  0  0  0
   37.6803   16.2958  -10.9214 C   0  0  0  0  0  0  0  0  0  0  0  0
   39.0076   16.2900  -11.3044 C   0  0  0  0  0  0  0  0  0  0  0  0
   39.4858   15.4473  -12.3090 C   0  0  0  0  0  0  0  0  0  0  0  0
   38.5769   14.6055  -12.9188 C   0  0  0  0  0  0  0  0  0  0  0  0
   39.0003   13.7633  -13.9066 F   0  0  0  0  0  0  0  0  0  0  0  0
   37.2434   17.2005   -9.8665 C   0  0  0  0  0  0  0  0  0  0  0  0
   36.1459   16.8784   -9.1000 C   0  0  0  0  0  0  0  0  0  0  0  0
   35.7119   17.7016   -8.1113 N   0  0  0  0  0  0  0  0  0  0  0  0
   36.3234   18.8696   -7.8252 C   0  0  0  0  0  0  0  0  0  0  0  0
   37.4205   19.2223   -8.5693 C   0  0  0  0  0  0  0  0  0  0  0  0
   38.2234   20.7297   -8.2135 Cl  0  0  0  0  0  0  0  0  0  0  0  0
   37.8843   18.3904   -9.5914 C   0  0  0  0  0  0  0  0  0  0  0  0
  2  1  1  0  0  0
  2 15  1  0  0  0
 15 16  2  0  0  0
 16 17  1  0  0  0
 17 22  1  0  0  0
 22 23  2  0  0  0
 23 24  1  0  0  0
 24 25  2  0  0  0
 25 26  1  0  0  0
 26 27  1  0  0  0
 26 28  2  0  0  0
 17 18  2  0  0  0
 18 19  1  0  0  0
 19 20  2  0  0  0
 20 21  1  0  0  0
  2  3  1  0  0  0
  3  4  1  0  0  0
  4  5  2  0  0  0
  5  6  1  0  0  0
  6  7  2  0  0  0
  7  8  1  0  0  0
  8  9  2  0  0  0
  9 10  1  0  0  0
 10 11  2  0  0  0
 10 12  1  0  0  0
 12  2  1  0  0  0
 20 15  1  0  0  0
  9  4  1  0  0  0
 28 22  1  0  0  0
 11 13  1  0  0  0
 12 14  1  0  0  0
M  END
> <minimizedAffinity>
-8.90499

> <CNNscore>
0.3049379885

> <CNNaffinity>
6.4100217819

> <CNN_VS>
1.9546591043

> <CNNaffinity_variance>
0.1746886671

$$$$
[H]N=C1c2c([H])nc([H])nc2C([H])([H])[C@](c2c([H])c(-c3c([H])nc([H])c(Cl)c3[H])c([H])c([H])c2F)(C([H])([H])[H])N1[H]


 28 31  0  0  0  0  0  0  0  0999 V2000
   36.3736   12.2081  -12.7088 C   0  0  0  0  0  0  0  0  0  0  0  0
   36.6092   13.4352  -13.5361 C   0  0  0  0  0  0  0  0  0  0  0  0
   37.0290   12.9863  -14.9144 C   0  0  0  0  0  0  0  0  0  0  0  0
   35.9720   12.1777  -15.5516 C   0  0  0  0  0  0  0  0  0  0  0  0
   36.3081   11.2172  -16.4360 N   0  0  0  0  0  0  0  0  0  0  0  0
   35.3864   10.4599  -17.0562 C   0  0  0  0  0  0  0  0  0  0  0  0
   34.0964   10.6943  -16.7619 N   0  0  0  0  0  0  0  0  0  0  0  0
   33.7101   11.6502  -15.8778 C   0  0  0  0  0  0  0  0  0  0  0  0
   34.6536   12.4155  -15.2515 C   0  0  0  0  0  0  0  0  0  0  0  0
   34.2712   13.4545  -14.2716 C   0  0  0  0  0  0  0  0  0  0  0  0
   33.0631   13.6977  -13.9822 N   0  0  0  0  0  0  0  0  0  0  0  0
   35.3543   14.1617  -13.6842 N   0  0  0  0  0  0  0  0  0  0  0  0
   32.2032   13.2740  -14.3272 H   0  0  0  0  0  0  0  0  0  0  0  0
   35.2094   15.1503  -13.3893 H   0  0  0  0  0  0  0  0  0  0  0  0
   37.6699   14.3060  -12.9671 C   0  0  0  0  0  0  0  0  0  0  0  0
   37.5143   14.9831  -11.7778 C   0  0  0  0  0  0  0  0  0  0  0  0
   38.5213   15.7974  -11.2658 C   0  0  0  0  0  0  0  0  0  0  0  0
   39.6934   15.9103  -11.9883 C   0  0  0  0  0  0  0  0  0  0  0  0
   39.8870   15.2393  -13.1967 C   0  0  0  0  0  0  0  0  0  0  0  0
   38.8544   14.4461  -13.6562 C   0  0  0  0  0  0  0  0  0  0  0  0
   38.9999   13.7706  -14.8339 F   0  0  0  0  0  0  0  0  0  0  0  0
   38.3805   16.5247  -10.0115 C   0  0  0  0  0  0  0  0  0  0  0  0
   37.4667   17.5501   -9.9141 C   0  0  0  0  0  0  0  0  0  0  0  0
   37.3135   18.2490   -8.7602 N   0  0  0  0  0  0  0  0  0  0  0  0
   38.0389   17.9829   -7.6544 C   0  0  0  0  0  0  0  0  0  0  0  0
   38.9590   16.9673   -7.7157 C   0  0  0  0  0  0  0  0  0  0  0  0
   39.9064   16.6098   -6.2950 Cl  0  0  0  0  0  0  0  0  0  0  0  0
   39.1332   16.2352   -8.8927 C   0  0  0  0  0  0  0  0  0  0  0  0
  2  1  1  0  0  0
  2 15  1  0  0  0
 15 16  2  0  0  0
 16 17  1  0  0  0
 17 22  1  0  0  0
 22 23  2  0  0  0
 23 24  1  0  0  0
 24 25  2  0  0  0
 25 26  1  0  0  0
 26 27  1  0  0  0
 26 28  2  0  0  0
 17 18  2  0  0  0
 18 19  1  0  0  0
 19 20  2  0  0  0
 20 21  1  0  0  0
  2  3  1  0  0  0
  3  4  1  0  0  0
  4  5  2  0  0  0
  5  6  1  0  0  0
  6  7  2  0  0  0
  7  8  1  0  0  0
  8  9  2  0  0  0
  9 10  1  0  0  0
 10 11  2  0  0  0
 10 12  1  0  0  0
 12  2  1  0  0  0
 20 15  1  0  0  0
  9  4  1  0  0  0
 28 22  1  0  0  0
 11 13  1  0  0  0
 12 14  1  0  0  0
M  END
> <minimizedAffinity>
-8.78454

> <CNNscore>
0.2684851587

> <CNNaffinity>
6.3945832253

> <CNN_VS>
1.7168506384

> <CNNaffinity_variance>
0.1875492483

$$$$
[H]/C(C(=O)/C([H])=C(\[H])c1c([H])c([H])c(F)c([H])c1[H])=C(/[H])c1c([H])c([H])c(F)c([H])c1[H]


 20 21  0  0  0  0  0  0  0  0999 V2000
   40.6336   11.5309  -19.1525 O   0  0  0  0  0  0  0  0  0  0  0  0
   40.4008   11.7012  -17.8589 C   0  0  0  0  0  0  0  0  0  0  0  0
   41.5717   11.9983  -17.1296 C   0  0  0  0  0  0  0  0  0  0  0  0
   41.8598   12.8922  -16.2343 C   0  0  0  0  0  0  0  0  0  0  0  0
   43.1857   13.0164  -15.5936 C   0  0  0  0  0  0  0  0  0  0  0  0
   44.3005   12.5876  -16.3264 C   0  0  0  0  0  0  0  0  0  0  0  0
   45.5765   12.6568  -15.8299 C   0  0  0  0  0  0  0  0  0  0  0  0
   45.7732   13.1603  -14.5783 C   0  0  0  0  0  0  0  0  0  0  0  0
   47.0427   13.2325  -14.0764 F   0  0  0  0  0  0  0  0  0  0  0  0
   44.6822   13.5856  -13.8478 C   0  0  0  0  0  0  0  0  0  0  0  0
   43.3891   13.5121  -14.3590 C   0  0  0  0  0  0  0  0  0  0  0  0
   39.0486   11.5475  -17.5132 C   0  0  0  0  0  0  0  0  0  0  0  0
   38.4037   11.9426  -16.4608 C   0  0  0  0  0  0  0  0  0  0  0  0
   36.9671   11.6713  -16.2982 C   0  0  0  0  0  0  0  0  0  0  0  0
   36.2182   10.8858  -17.1040 C   0  0  0  0  0  0  0  0  0  0  0  0
   34.8497   10.6588  -16.9056 C   0  0  0  0  0  0  0  0  0  0  0  0
   34.2185   11.2547  -15.8451 C   0  0  0  0  0  0  0  0  0  0  0  0
   32.9000   11.0810  -15.5917 F   0  0  0  0  0  0  0  0  0  0  0  0
   34.9756   12.0659  -15.0067 C   0  0  0  0  0  0  0  0  0  0  0  0
   36.3075   12.2762  -15.2147 C   0  0  0  0  0  0  0  0  0  0  0  0
  1  2  2  0  0  0
  2  3  1  0  0  0
  3  4  2  0  0  0
  4  5  1  0  0  0
  5  6  2  0  0  0
  6  7  1  0  0  0
  7  8  2  0  0  0
  8  9  1  0  0  0
  8 10  1  0  0  0
 10 11  2  0  0  0
  2 12  1  0  0  0
 12 13  2  0  0  0
 13 14  1  0  0  0
 14 15  2  0  0  0
 15 16  1  0  0  0
 16 17  2  0  0  0
 17 18  1  0  0  0
 17 19  1  0  0  0
 19 20  2  0  0  0
 11  5  1  0  0  0
 20 14  1  0  0  0
M  END
> <minimizedAffinity>
-8.23944

> <CNNscore>
0.6840084195

> <CNNaffinity>
5.8720731735

> <CNN_VS>
4.0165476799

> <CNNaffinity_variance>
0.0319318436

$$$$
[H]/C(C(=O)/C([H])=C(\[H])c1c([H])c([H])c(F)c([H])c1[H])=C(/[H])c1c([H])c([H])c(F)c([H])c1[H]


 20 21  0  0  0  0  0  0  0  0999 V2000
   40.5187   11.3933  -19.1728 O   0  0  0  0  0  0  0  0  0  0  0  0
   40.3808   11.6583  -17.8816 C   0  0  0  0  0  0  0  0  0  0  0  0
   39.0408   11.5709  -17.4480 C   0  0  0  0  0  0  0  0  0  0  0  0
   38.3889   12.1013  -16.4594 C   0  0  0  0  0  0  0  0  0  0  0  0
   36.9549   11.8595  -16.1965 C   0  0  0  0  0  0  0  0  0  0  0  0
   36.2711   11.0081  -17.0748 C   0  0  0  0  0  0  0  0  0  0  0  0
   34.9405   10.7142  -16.9256 C   0  0  0  0  0  0  0  0  0  0  0  0
   34.2530   11.2678  -15.8865 C   0  0  0  0  0  0  0  0  0  0  0  0
   32.9257   10.9794  -15.7312 F   0  0  0  0  0  0  0  0  0  0  0  0
   34.9166   12.1077  -15.0154 C   0  0  0  0  0  0  0  0  0  0  0  0
   36.2685   12.4015  -15.1736 C   0  0  0  0  0  0  0  0  0  0  0  0
   41.5945   11.9638  -17.2448 C   0  0  0  0  0  0  0  0  0  0  0  0
   41.8440   12.7711  -16.2621 C   0  0  0  0  0  0  0  0  0  0  0  0
   43.2092   12.9430  -15.7422 C   0  0  0  0  0  0  0  0  0  0  0  0
   43.5373   13.5338  -14.5715 C   0  0  0  0  0  0  0  0  0  0  0  0
   44.8565   13.6731  -14.1203 C   0  0  0  0  0  0  0  0  0  0  0  0
   45.8825   13.1922  -14.8910 C   0  0  0  0  0  0  0  0  0  0  0  0
   47.1806   13.2914  -14.5191 F   0  0  0  0  0  0  0  0  0  0  0  0
   45.5613   12.5815  -16.0985 C   0  0  0  0  0  0  0  0  0  0  0  0
   44.2708   12.4543  -16.5228 C   0  0  0  0  0  0  0  0  0  0  0  0
  1  2  2  0  0  0
  2  3  1  0  0  0
  3  4  2  0  0  0
  4  5  1  0  0  0
  5  6  2  0  0  0
  6  7  1  0  0  0
  7  8  2  0  0  0
  8  9  1  0  0  0
  8 10  1  0  0  0
 10 11  2  0  0  0
  2 12  1  0  0  0
 12 13  2  0  0  0
 13 14  1  0  0  0
 14 15  2  0  0  0
 15 16  1  0  0  0
 16 17  2  0  0  0
 17 18  1  0  0  0
 17 19  1  0  0  0
 19 20  2  0  0  0
 11  5  1  0  0  0
 20 14  1  0  0  0
M  END
> <minimizedAffinity>
-8.26457

> <CNNscore>
0.6836398244

> <CNNaffinity>
5.8828682899

> <CNN_VS>
4.0217628479

> <CNNaffinity_variance>
0.0332707688

$$$$
[H]/C(C(=O)/C([H])=C(\[H])c1c([H])c([H])c(F)c([H])c1[H])=C(/[H])c1c([H])c([H])c(F)c([H])c1[H]


 20 21  0  0  0  0  0  0  0  0999 V2000
   40.6277   11.4959  -19.1552 O   0  0  0  0  0  0  0  0  0  0  0  0
   40.4261   11.6603  -17.8557 C   0  0  0  0  0  0  0  0  0  0  0  0
   39.0708   11.5116  -17.4920 C   0  0  0  0  0  0  0  0  0  0  0  0
   38.3511   11.9912  -16.5248 C   0  0  0  0  0  0  0  0  0  0  0  0
   36.9163   11.6893  -16.3399 C   0  0  0  0  0  0  0  0  0  0  0  0
   36.2670   12.2795  -15.2473 C   0  0  0  0  0  0  0  0  0  0  0  0
   34.9388   12.0687  -14.9810 C   0  0  0  0  0  0  0  0  0  0  0  0
   34.2192   11.2563  -15.8060 C   0  0  0  0  0  0  0  0  0  0  0  0
   32.8943   11.0413  -15.5468 F   0  0  0  0  0  0  0  0  0  0  0  0
   34.8488   10.6698  -16.8851 C   0  0  0  0  0  0  0  0  0  0  0  0
   36.1983   10.8887  -17.1492 C   0  0  0  0  0  0  0  0  0  0  0  0
   41.6022   11.9433  -17.1427 C   0  0  0  0  0  0  0  0  0  0  0  0
   41.8569   12.8833  -16.2876 C   0  0  0  0  0  0  0  0  0  0  0  0
   43.1770   12.9983  -15.6490 C   0  0  0  0  0  0  0  0  0  0  0  0
   43.4136   13.4937  -14.4139 C   0  0  0  0  0  0  0  0  0  0  0  0
   44.6932   13.5820  -13.8497 C   0  0  0  0  0  0  0  0  0  0  0  0
   45.7749   13.1489  -14.5711 C   0  0  0  0  0  0  0  0  0  0  0  0
   47.0395   13.2036  -14.0906 F   0  0  0  0  0  0  0  0  0  0  0  0
   45.5479   12.6365  -15.8439 C   0  0  0  0  0  0  0  0  0  0  0  0
   44.2949   12.5578  -16.3781 C   0  0  0  0  0  0  0  0  0  0  0  0
  1  2  2  0  0  0
  2  3  1  0  0  0
  3  4  2  0  0  0
  4  5  1  0  0  0
  5  6  2  0  0  0
  6  7  1  0  0  0
  7  8  2  0  0  0
  8  9  1  0  0  0
  8 10  1  0  0  0
 10 11  2  0  0  0
  2 12  1  0  0  0
 12 13  2  0  0  0
 13 14  1  0  0  0
 14 15  2  0  0  0
 15 16  1  0  0  0
 16 17  2  0  0  0
 17 18  1  0  0  0
 17 19  1  0  0  0
 19 20  2  0  0  0
 11  5  1  0  0  0
 20 14  1  0  0  0
M  END
> <minimizedAffinity>
-8.21814

> <CNNscore>
0.6784105301

> <CNNaffinity>
5.8622293472

> <CNN_VS>
3.9769980907

> <CNNaffinity_variance>
0.0310978480

$$$$
[H]/C(C(=O)/C([H])=C(\[H])c1c([H])c([H])c(F)c([H])c1[H])=C(/[H])c1c([H])c([H])c(F)c([H])c1[H]


 20 21  0  0  0  0  0  0  0  0999 V2000
   40.4768   11.3096  -19.1577 O   0  0  0  0  0  0  0  0  0  0  0  0
   40.2971   11.5897  -17.8748 C   0  0  0  0  0  0  0  0  0  0  0  0
   41.5001   11.9223  -17.2165 C   0  0  0  0  0  0  0  0  0  0  0  0
   41.7953   12.7619  -16.2724 C   0  0  0  0  0  0  0  0  0  0  0  0
   43.1578   12.9426  -15.7293 C   0  0  0  0  0  0  0  0  0  0  0  0
   44.2273   12.4509  -16.4898 C   0  0  0  0  0  0  0  0  0  0  0  0
   45.5313   12.5640  -16.0821 C   0  0  0  0  0  0  0  0  0  0  0  0
   45.8027   13.1762  -14.8946 C   0  0  0  0  0  0  0  0  0  0  0  0
   47.1006   13.2928  -14.4815 F   0  0  0  0  0  0  0  0  0  0  0  0
   44.7569   13.6642  -14.1377 C   0  0  0  0  0  0  0  0  0  0  0  0
   43.4349   13.5455  -14.5584 C   0  0  0  0  0  0  0  0  0  0  0  0
   38.9569   11.4916  -17.4675 C   0  0  0  0  0  0  0  0  0  0  0  0
   38.3379   12.0614  -16.4817 C   0  0  0  0  0  0  0  0  0  0  0  0
   36.9094   11.8148  -16.2315 C   0  0  0  0  0  0  0  0  0  0  0  0
   36.1891   12.3283  -15.2095 C   0  0  0  0  0  0  0  0  0  0  0  0
   34.8272   12.0620  -15.0148 C   0  0  0  0  0  0  0  0  0  0  0  0
   34.1725   11.2407  -15.8950 C   0  0  0  0  0  0  0  0  0  0  0  0
   32.8586   10.9392  -15.7697 F   0  0  0  0  0  0  0  0  0  0  0  0
   34.9000   10.7045  -16.9521 C   0  0  0  0  0  0  0  0  0  0  0  0
   36.2260   10.9742  -17.1268 C   0  0  0  0  0  0  0  0  0  0  0  0
  1  2  2  0  0  0
  2  3  1  0  0  0
  3  4  2  0  0  0
  4  5  1  0  0  0
  5  6  2  0  0  0
  6  7  1  0  0  0
  7  8  2  0  0  0
  8  9  1  0  0  0
  8 10  1  0  0  0
 10 11  2  0  0  0
  2 12  1  0  0  0
 12 13  2  0  0  0
 13 14  1  0  0  0
 14 15  2  0  0  0
 15 16  1  0  0  0
 16 17  2  0  0  0
 17 18  1  0  0  0
 17 19  1  0  0  0
 19 20  2  0  0  0
 11  5  1  0  0  0
 20 14  1  0  0  0
M  END
> <minimizedAffinity>
-8.26515

> <CNNscore>
0.6770236492

> <CNNaffinity>
5.8773002625

> <CNN_VS>
3.9790713787

> <CNNaffinity_variance>
0.0304186381

$$$$
[H]/C(C(=O)/C([H])=C(\[H])c1c([H])c([H])c(F)c([H])c1[H])=C(/[H])c1c([H])c([H])c(F)c([H])c1[H]


 20 21  0  0  0  0  0  0  0  0999 V2000
   40.4338   11.4057  -19.3301 O   0  0  0  0  0  0  0  0  0  0  0  0
   40.2781   11.6060  -18.0293 C   0  0  0  0  0  0  0  0  0  0  0  0
   38.9361   11.4713  -17.6145 C   0  0  0  0  0  0  0  0  0  0  0  0
   38.2865   11.8625  -16.5617 C   0  0  0  0  0  0  0  0  0  0  0  0
   36.8495   11.6002  -16.3379 C   0  0  0  0  0  0  0  0  0  0  0  0
   36.2391   12.2327  -15.2465 C   0  0  0  0  0  0  0  0  0  0  0  0
   34.9127   12.0609  -14.9459 C   0  0  0  0  0  0  0  0  0  0  0  0
   34.1555   11.2461  -15.7343 C   0  0  0  0  0  0  0  0  0  0  0  0
   32.8321   11.0698  -15.4408 F   0  0  0  0  0  0  0  0  0  0  0  0
   34.7465   10.6182  -16.8119 C   0  0  0  0  0  0  0  0  0  0  0  0
   36.0946   10.7976  -17.1109 C   0  0  0  0  0  0  0  0  0  0  0  0
   41.4791   11.9049  -17.3659 C   0  0  0  0  0  0  0  0  0  0  0  0
   41.7063   12.6875  -16.3582 C   0  0  0  0  0  0  0  0  0  0  0  0
   43.0618   12.8574  -15.8129 C   0  0  0  0  0  0  0  0  0  0  0  0
   44.2031   12.4195  -16.3898 C   0  0  0  0  0  0  0  0  0  0  0  0
   45.4731   12.6070  -15.8283 C   0  0  0  0  0  0  0  0  0  0  0  0
   45.5862   13.2664  -14.6323 C   0  0  0  0  0  0  0  0  0  0  0  0
   46.7795   13.4839  -14.0310 F   0  0  0  0  0  0  0  0  0  0  0  0
   44.4209   13.7232  -14.0260 C   0  0  0  0  0  0  0  0  0  0  0  0
   43.1919   13.5319  -14.5869 C   0  0  0  0  0  0  0  0  0  0  0  0
  1  2  2  0  0  0
  2  3  1  0  0  0
  3  4  2  0  0  0
  4  5  1  0  0  0
  5  6  2  0  0  0
  6  7  1  0  0  0
  7  8  2  0  0  0
  8  9  1  0  0  0
  8 10  1  0  0  0
 10 11  2  0  0  0
  2 12  1  0  0  0
 12 13  2  0  0  0
 13 14  1  0  0  0
 14 15  2  0  0  0
 15 16  1  0  0  0
 16 17  2  0  0  0
 17 18  1  0  0  0
 17 19  1  0  0  0
 19 20  2  0  0  0
 11  5  1  0  0  0
 20 14  1  0  0  0
M  END
> <minimizedAffinity>
-8.25511

> <CNNscore>
0.6628872752

> <CNNaffinity>
5.8266081810

> <CNN_VS>
3.8623843193

> <CNNaffinity_variance>
0.0390021466

$$$$
[H]/C(C(=O)/C([H])=C(\[H])c1c([H])c([H])c(F)c([H])c1[H])=C(/[H])c1c([H])c([H])c(F)c([H])c1[H]


 20 21  0  0  0  0  0  0  0  0999 V2000
   40.5738   11.5576  -19.1806 O   0  0  0  0  0  0  0  0  0  0  0  0
   40.3490   11.7006  -17.8824 C   0  0  0  0  0  0  0  0  0  0  0  0
   41.5277   11.9596  -17.1511 C   0  0  0  0  0  0  0  0  0  0  0  0
   41.8689   12.8895  -16.3130 C   0  0  0  0  0  0  0  0  0  0  0  0
   43.1904   12.9588  -15.6552 C   0  0  0  0  0  0  0  0  0  0  0  0
   43.2347   13.4497  -14.3434 C   0  0  0  0  0  0  0  0  0  0  0  0
   44.4057   13.5572  -13.6387 C   0  0  0  0  0  0  0  0  0  0  0  0
   45.5721   13.1739  -14.2311 C   0  0  0  0  0  0  0  0  0  0  0  0
   46.7439   13.2781  -13.5347 F   0  0  0  0  0  0  0  0  0  0  0  0
   45.5400   12.6888  -15.5228 C   0  0  0  0  0  0  0  0  0  0  0  0
   44.3466   12.5827  -16.2323 C   0  0  0  0  0  0  0  0  0  0  0  0
   38.9956   11.5621  -17.5346 C   0  0  0  0  0  0  0  0  0  0  0  0
   38.3973   11.7648  -16.4030 C   0  0  0  0  0  0  0  0  0  0  0  0
   36.9487   11.5556  -16.2564 C   0  0  0  0  0  0  0  0  0  0  0  0
   36.1815   10.7757  -17.0502 C   0  0  0  0  0  0  0  0  0  0  0  0
   34.8022   10.6093  -16.8680 C   0  0  0  0  0  0  0  0  0  0  0  0
   34.1789   11.2624  -15.8370 C   0  0  0  0  0  0  0  0  0  0  0  0
   32.8507   11.1490  -15.6005 F   0  0  0  0  0  0  0  0  0  0  0  0
   34.9547   12.0688  -15.0112 C   0  0  0  0  0  0  0  0  0  0  0  0
   36.2971   12.2197  -15.2030 C   0  0  0  0  0  0  0  0  0  0  0  0
  1  2  2  0  0  0
  2  3  1  0  0  0
  3  4  2  0  0  0
  4  5  1  0  0  0
  5  6  2  0  0  0
  6  7  1  0  0  0
  7  8  2  0  0  0
  8  9  1  0  0  0
  8 10  1  0  0  0
 10 11  2  0  0  0
  2 12  1  0  0  0
 12 13  2  0  0  0
 13 14  1  0  0  0
 14 15  2  0  0  0
 15 16  1  0  0  0
 16 17  2  0  0  0
 17 18  1  0  0  0
 17 19  1  0  0  0
 19 20  2  0  0  0
 11  5  1  0  0  0
 20 14  1  0  0  0
M  END
> <minimizedAffinity>
-8.10828

> <CNNscore>
0.6612405777

> <CNNaffinity>
5.8392882347

> <CNN_VS>
3.8611743450

> <CNNaffinity_variance>
0.0353317298

$$$$
[H]/C(C(=O)/C([H])=C(\[H])c1c([H])c([H])c(F)c([H])c1[H])=C(/[H])c1c([H])c([H])c(F)c([H])c1[H]


 20 21  0  0  0  0  0  0  0  0999 V2000
   37.0544   17.5150   -6.5846 O   0  0  0  0  0  0  0  0  0  0  0  0
   36.9004   16.2799   -7.0400 C   0  0  0  0  0  0  0  0  0  0  0  0
   38.0723   15.5037   -6.9155 C   0  0  0  0  0  0  0  0  0  0  0  0
   38.4642   14.6156   -6.0547 C   0  0  0  0  0  0  0  0  0  0  0  0
   39.7644   13.9170   -6.1284 C   0  0  0  0  0  0  0  0  0  0  0  0
   39.8422   12.7802   -6.9442 C   0  0  0  0  0  0  0  0  0  0  0  0
   40.9975   12.0561   -7.0864 C   0  0  0  0  0  0  0  0  0  0  0  0
   42.1141   12.4522   -6.4118 C   0  0  0  0  0  0  0  0  0  0  0  0
   43.2699   11.7351   -6.5486 F   0  0  0  0  0  0  0  0  0  0  0  0
   42.0487   13.5705   -5.6057 C   0  0  0  0  0  0  0  0  0  0  0  0
   40.8714   14.3009   -5.4662 C   0  0  0  0  0  0  0  0  0  0  0  0
   35.6123   16.0289   -7.5395 C   0  0  0  0  0  0  0  0  0  0  0  0
   34.5570   15.5725   -6.9414 C   0  0  0  0  0  0  0  0  0  0  0  0
   33.2903   15.3835   -7.6649 C   0  0  0  0  0  0  0  0  0  0  0  0
   32.9464   15.9913   -8.8222 C   0  0  0  0  0  0  0  0  0  0  0  0
   31.7243   15.7767   -9.4733 C   0  0  0  0  0  0  0  0  0  0  0  0
   30.8162   14.9091   -8.9249 C   0  0  0  0  0  0  0  0  0  0  0  0
   29.6165   14.6530   -9.4976 F   0  0  0  0  0  0  0  0  0  0  0  0
   31.1553   14.2758   -7.7340 C   0  0  0  0  0  0  0  0  0  0  0  0
   32.3501   14.4964   -7.1133 C   0  0  0  0  0  0  0  0  0  0  0  0
  1  2  2  0  0  0
  2  3  1  0  0  0
  3  4  2  0  0  0
  4  5  1  0  0  0
  5  6  2  0  0  0
  6  7  1  0  0  0
  7  8  2  0  0  0
  8  9  1  0  0  0
  8 10  1  0  0  0
 10 11  2  0  0  0
  2 12  1  0  0  0
 12 13  2  0  0  0
 13 14  1  0  0  0
 14 15  2  0  0  0
 15 16  1  0  0  0
 16 17  2  0  0  0
 17 18  1  0  0  0
 17 19  1  0  0  0
 19 20  2  0  0  0
 11  5  1  0  0  0
 20 14  1  0  0  0
M  END
> <minimizedAffinity>
-4.17429

> <CNNscore>
0.5362651944

> <CNNaffinity>
4.4050006866

> <CNN_VS>
2.3622486591

> <CNNaffinity_variance>
0.8065541387

$$$$
[H]/C(C(=O)/C([H])=C(\[H])c1c([H])c([H])c(F)c([H])c1[H])=C(/[H])c1c([H])c([H])c(F)c([H])c1[H]


 20 21  0  0  0  0  0  0  0  0999 V2000
   45.2307   12.0391  -16.0051 O   0  0  0  0  0  0  0  0  0  0  0  0
   44.2472   12.9187  -15.8805 C   0  0  0  0  0  0  0  0  0  0  0  0
   44.6740   14.1348  -15.3059 C   0  0  0  0  0  0  0  0  0  0  0  0
   44.6205   14.6179  -14.1029 C   0  0  0  0  0  0  0  0  0  0  0  0
   45.1448   15.9474  -13.7269 C   0  0  0  0  0  0  0  0  0  0  0  0
   46.4775   16.2328  -14.0532 C   0  0  0  0  0  0  0  0  0  0  0  0
   47.0662   17.4336  -13.7521 C   0  0  0  0  0  0  0  0  0  0  0  0
   46.3329   18.3882  -13.1121 C   0  0  0  0  0  0  0  0  0  0  0  0
   46.9131   19.5882  -12.8084 F   0  0  0  0  0  0  0  0  0  0  0  0
   45.0193   18.1177  -12.7861 C   0  0  0  0  0  0  0  0  0  0  0  0
   44.4283   16.8954  -13.0952 C   0  0  0  0  0  0  0  0  0  0  0  0
   43.0121   12.4403  -16.3467 C   0  0  0  0  0  0  0  0  0  0  0  0
   41.8160   12.9117  -16.1825 C   0  0  0  0  0  0  0  0  0  0  0  0
   40.6439   12.2422  -16.7670 C   0  0  0  0  0  0  0  0  0  0  0  0
   39.4525   12.0633  -16.1542 C   0  0  0  0  0  0  0  0  0  0  0  0
   38.3643   11.4172  -16.7558 C   0  0  0  0  0  0  0  0  0  0  0  0
   38.4938   10.9340  -18.0316 C   0  0  0  0  0  0  0  0  0  0  0  0
   37.4859   10.2995  -18.6755 F   0  0  0  0  0  0  0  0  0  0  0  0
   39.7137   11.1102  -18.6758 C   0  0  0  0  0  0  0  0  0  0  0  0
   40.7632   11.7419  -18.0749 C   0  0  0  0  0  0  0  0  0  0  0  0
  1  2  2  0  0  0
  2  3  1  0  0  0
  3  4  2  0  0  0
  4  5  1  0  0  0
  5  6  2  0  0  0
  6  7  1  0  0  0
  7  8  2  0  0  0
  8  9  1  0  0  0
  8 10  1  0  0  0
 10 11  2  0  0  0
  2 12  1  0  0  0
 12 13  2  0  0  0
 13 14  1  0  0  0
 14 15  2  0  0  0
 15 16  1  0  0  0
 16 17  2  0  0  0
 17 18  1  0  0  0
 17 19  1  0  0  0
 19 20  2  0  0  0
 11  5  1  0  0  0
 20 14  1  0  0  0
M  END
> <minimizedAffinity>
-7.04675

> <CNNscore>
0.4369202554

> <CNNaffinity>
4.8984160423

> <CNN_VS>
2.1402173042

> <CNNaffinity_variance>
0.1591767222

$$$$
[H]/C(C(=O)/C([H])=C(\[H])c1c([H])c([H])c(F)c([H])c1[H])=C(/[H])c1c([H])c([H])c(F)c([H])c1[H]


 20 21  0  0  0  0  0  0  0  0999 V2000
   39.0118   14.6215  -13.5317 O   0  0  0  0  0  0  0  0  0  0  0  0
   39.2701   13.6582  -14.4044 C   0  0  0  0  0  0  0  0  0  0  0  0
   38.0995   13.0604  -14.9178 C   0  0  0  0  0  0  0  0  0  0  0  0
   36.9259   12.8271  -14.4162 C   0  0  0  0  0  0  0  0  0  0  0  0
   35.8294   12.1724  -15.1599 C   0  0  0  0  0  0  0  0  0  0  0  0
   36.1239   11.6659  -16.4329 C   0  0  0  0  0  0  0  0  0  0  0  0
   35.1836   11.0400  -17.2097 C   0  0  0  0  0  0  0  0  0  0  0  0
   33.9145   10.9029  -16.7310 C   0  0  0  0  0  0  0  0  0  0  0  0
   32.9713   10.2800  -17.4999 F   0  0  0  0  0  0  0  0  0  0  0  0
   33.6135   11.3981  -15.4785 C   0  0  0  0  0  0  0  0  0  0  0  0
   34.5740   12.0328  -14.6952 C   0  0  0  0  0  0  0  0  0  0  0  0
   40.6432   13.4547  -14.6166 C   0  0  0  0  0  0  0  0  0  0  0  0
   41.2835   13.1224  -15.6933 C   0  0  0  0  0  0  0  0  0  0  0  0
   42.7455   12.9605  -15.6936 C   0  0  0  0  0  0  0  0  0  0  0  0
   43.4580   12.2441  -16.5915 C   0  0  0  0  0  0  0  0  0  0  0  0
   44.8531   12.1207  -16.5479 C   0  0  0  0  0  0  0  0  0  0  0  0
   45.5508   12.7514  -15.5512 C   0  0  0  0  0  0  0  0  0  0  0  0
   46.8985   12.6767  -15.4464 F   0  0  0  0  0  0  0  0  0  0  0  0
   44.8319   13.4926  -14.6195 C   0  0  0  0  0  0  0  0  0  0  0  0
   43.4731   13.6021  -14.6768 C   0  0  0  0  0  0  0  0  0  0  0  0
  1  2  2  0  0  0
  2  3  1  0  0  0
  3  4  2  0  0  0
  4  5  1  0  0  0
  5  6  2  0  0  0
  6  7  1  0  0  0
  7  8  2  0  0  0
  8  9  1  0  0  0
  8 10  1  0  0  0
 10 11  2  0  0  0
  2 12  1  0  0  0
 12 13  2  0  0  0
 13 14  1  0  0  0
 14 15  2  0  0  0
 15 16  1  0  0  0
 16 17  2  0  0  0
 17 18  1  0  0  0
 17 19  1  0  0  0
 19 20  2  0  0  0
 11  5  1  0  0  0
 20 14  1  0  0  0
M  END
> <minimizedAffinity>
-7.94049

> <CNNscore>
0.4273476899

> <CNNaffinity>
5.6102747917

> <CNN_VS>
2.3975379467

> <CNNaffinity_variance>
0.0599118061

$$$$
[H]Oc1c([H])c([H])c(N([H])c2nc([H])c(F)c(N([H])c3c([H])c([H])c(C(=O)N([H])[H])c([H])c3[H])n2)c([H])c1[H]


 30 32  0  0  0  0  0  0  0  0999 V2000
   38.5338   11.3779  -17.2119 C   0  0  0  0  0  0  0  0  0  0  0  0
   39.6648   11.9246  -16.7978 N   0  0  0  0  0  0  0  0  0  0  0  0
   40.7531   12.0405  -17.6128 C   0  0  0  0  0  0  0  0  0  0  0  0
   40.6383   11.5755  -18.8658 N   0  0  0  0  0  0  0  0  0  0  0  0
   39.5353   11.0157  -19.3484 C   0  0  0  0  0  0  0  0  0  0  0  0
   38.4337   10.8960  -18.5310 C   0  0  0  0  0  0  0  0  0  0  0  0
   37.2889   10.3387  -18.9635 F   0  0  0  0  0  0  0  0  0  0  0  0
   37.3897   11.2195  -16.3885 N   0  0  0  0  0  0  0  0  0  0  0  0
   36.7674   10.3802  -16.5873 H   0  0  0  0  0  0  0  0  0  0  0  0
   36.2749   13.6718  -13.1470 C   0  0  0  0  0  0  0  0  0  0  0  0
   35.6684   13.7833  -14.3543 C   0  0  0  0  0  0  0  0  0  0  0  0
   36.0051   12.9816  -15.4507 C   0  0  0  0  0  0  0  0  0  0  0  0
   36.9718   12.0492  -15.3309 C   0  0  0  0  0  0  0  0  0  0  0  0
   37.6183   11.9129  -14.0842 C   0  0  0  0  0  0  0  0  0  0  0  0
   37.2718   12.7072  -13.0282 C   0  0  0  0  0  0  0  0  0  0  0  0
   35.4216   15.7999  -12.1975 N   0  0  0  0  0  0  0  0  0  0  0  0
   35.9283   14.5045  -12.0012 C   0  0  0  0  0  0  0  0  0  0  0  0
   36.0839   14.0610  -10.8467 O   0  0  0  0  0  0  0  0  0  0  0  0
   36.0649   16.6132  -12.1628 H   0  0  0  0  0  0  0  0  0  0  0  0
   34.4165   15.9724  -12.3775 H   0  0  0  0  0  0  0  0  0  0  0  0
   41.9242   12.6088  -17.0822 N   0  0  0  0  0  0  0  0  0  0  0  0
   42.7712   12.6686  -17.7211 H   0  0  0  0  0  0  0  0  0  0  0  0
   42.0577   13.0997  -15.7818 C   0  0  0  0  0  0  0  0  0  0  0  0
   41.0457   13.6518  -15.0536 C   0  0  0  0  0  0  0  0  0  0  0  0
   41.2345   14.1618  -13.7504 C   0  0  0  0  0  0  0  0  0  0  0  0
   42.4833   14.1044  -13.1811 C   0  0  0  0  0  0  0  0  0  0  0  0
   42.6792   14.6052  -11.8957 O   0  0  0  0  0  0  0  0  0  0  0  0
   43.5379   13.5517  -13.8836 C   0  0  0  0  0  0  0  0  0  0  0  0
   43.3194   13.0676  -15.1446 C   0  0  0  0  0  0  0  0  0  0  0  0
   42.9385   15.5819  -11.8245 H   0  0  0  0  0  0  0  0  0  0  0  0
 16 17  1  0  0  0
 17 18  2  0  0  0
 17 10  1  0  0  0
 10 11  2  0  0  0
 11 12  1  0  0  0
 12 13  2  0  0  0
 13  8  1  0  0  0
  8  1  1  0  0  0
  1  2  2  0  0  0
  2  3  1  0  0  0
  3 21  1  0  0  0
 21 23  1  0  0  0
 23 24  2  0  0  0
 24 25  1  0  0  0
 25 26  2  0  0  0
 26 27  1  0  0  0
 26 28  1  0  0  0
 28 29  2  0  0  0
  3  4  2  0  0  0
  4  5  1  0  0  0
  5  6  2  0  0  0
  6  7  1  0  0  0
 13 14  1  0  0  0
 14 15  2  0  0  0
 15 10  1  0  0  0
  6  1  1  0  0  0
 29 23  1  0  0  0
 16 19  1  0  0  0
 16 20  1  0  0  0
  8  9  1  0  0  0
 21 22  1  0  0  0
 27 30  1  0  0  0
M  END
> <minimizedAffinity>
-8.83832

> <CNNscore>
0.9611595273

> <CNNaffinity>
7.2938857079

> <CNN_VS>
7.0105876923

> <CNNaffinity_variance>
0.0200178716

$$$$
[H]Oc1c([H])c([H])c(N([H])c2nc([H])c(F)c(N([H])c3c([H])c([H])c(C(=O)N([H])[H])c([H])c3[H])n2)c([H])c1[H]


 30 32  0  0  0  0  0  0  0  0999 V2000
   38.6312   11.5828  -16.5531 C   0  0  0  0  0  0  0  0  0  0  0  0
   39.5936   12.4263  -16.2182 N   0  0  0  0  0  0  0  0  0  0  0  0
   40.6414   12.6953  -17.0498 C   0  0  0  0  0  0  0  0  0  0  0  0
   40.6654   12.0681  -18.2354 N   0  0  0  0  0  0  0  0  0  0  0  0
   39.7349   11.2104  -18.6369 C   0  0  0  0  0  0  0  0  0  0  0  0
   38.6750   10.9348  -17.8023 C   0  0  0  0  0  0  0  0  0  0  0  0
   37.7021   10.0756  -18.1540 F   0  0  0  0  0  0  0  0  0  0  0  0
   37.5389   11.2607  -15.7075 N   0  0  0  0  0  0  0  0  0  0  0  0
   37.1889   10.2567  -15.7364 H   0  0  0  0  0  0  0  0  0  0  0  0
   35.3772   13.8572  -13.1878 C   0  0  0  0  0  0  0  0  0  0  0  0
   36.2613   12.9621  -12.6831 C   0  0  0  0  0  0  0  0  0  0  0  0
   37.0032   12.0903  -13.4879 C   0  0  0  0  0  0  0  0  0  0  0  0
   36.8524   12.1186  -14.8275 C   0  0  0  0  0  0  0  0  0  0  0  0
   35.9383   13.0418  -15.3780 C   0  0  0  0  0  0  0  0  0  0  0  0
   35.2256   13.8831  -14.5715 C   0  0  0  0  0  0  0  0  0  0  0  0
   33.3154   15.1682  -12.7529 N   0  0  0  0  0  0  0  0  0  0  0  0
   34.6015   14.7679  -12.3540 C   0  0  0  0  0  0  0  0  0  0  0  0
   35.0853   15.1894  -11.2853 O   0  0  0  0  0  0  0  0  0  0  0  0
   33.1910   16.0664  -13.2573 H   0  0  0  0  0  0  0  0  0  0  0  0
   32.4781   14.5908  -12.5586 H   0  0  0  0  0  0  0  0  0  0  0  0
   41.6351   13.5831  -16.6022 N   0  0  0  0  0  0  0  0  0  0  0  0
   41.4177   14.6223  -16.6460 H   0  0  0  0  0  0  0  0  0  0  0  0
   42.8835   13.2029  -16.1055 C   0  0  0  0  0  0  0  0  0  0  0  0
   43.7483   12.3625  -16.7422 C   0  0  0  0  0  0  0  0  0  0  0  0
   44.9901   11.9831  -16.1873 C   0  0  0  0  0  0  0  0  0  0  0  0
   45.3542   12.4741  -14.9572 C   0  0  0  0  0  0  0  0  0  0  0  0
   46.5776   12.1051  -14.4016 O   0  0  0  0  0  0  0  0  0  0  0  0
   44.5080   13.3300  -14.2771 C   0  0  0  0  0  0  0  0  0  0  0  0
   43.3119   13.6764  -14.8441 C   0  0  0  0  0  0  0  0  0  0  0  0
   46.5795   11.2755  -13.8203 H   0  0  0  0  0  0  0  0  0  0  0  0
 16 17  1  0  0  0
 17 18  2  0  0  0
 17 10  1  0  0  0
 10 11  2  0  0  0
 11 12  1  0  0  0
 12 13  2  0  0  0
 13  8  1  0  0  0
  8  1  1  0  0  0
  1  2  2  0  0  0
  2  3  1  0  0  0
  3 21  1  0  0  0
 21 23  1  0  0  0
 23 24  2  0  0  0
 24 25  1  0  0  0
 25 26  2  0  0  0
 26 27  1  0  0  0
 26 28  1  0  0  0
 28 29  2  0  0  0
  3  4  2  0  0  0
  4  5  1  0  0  0
  5  6  2  0  0  0
  6  7  1  0  0  0
 13 14  1  0  0  0
 14 15  2  0  0  0
 15 10  1  0  0  0
  6  1  1  0  0  0
 29 23  1  0  0  0
 16 19  1  0  0  0
 16 20  1  0  0  0
  8  9  1  0  0  0
 21 22  1  0  0  0
 27 30  1  0  0  0
M  END
> <minimizedAffinity>
-8.51416

> <CNNscore>
0.9474100471

> <CNNaffinity>
7.2979288101

> <CNN_VS>
6.9141311646

> <CNNaffinity_variance>
0.1371972263

$$$$
[H]Oc1c([H])c([H])c(N([H])c2nc([H])c(F)c(N([H])c3c([H])c([H])c(C(=O)N([H])[H])c([H])c3[H])n2)c([H])c1[H]


 30 32  0  0  0  0  0  0  0  0999 V2000
   35.8902   11.7728  -16.1976 C   0  0  0  0  0  0  0  0  0  0  0  0
   35.9424   12.8396  -15.4172 N   0  0  0  0  0  0  0  0  0  0  0  0
   34.8711   13.2475  -14.6771 C   0  0  0  0  0  0  0  0  0  0  0  0
   33.7464   12.5219  -14.7671 N   0  0  0  0  0  0  0  0  0  0  0  0
   33.6227   11.4415  -15.5287 C   0  0  0  0  0  0  0  0  0  0  0  0
   34.7002   11.0248  -16.2779 C   0  0  0  0  0  0  0  0  0  0  0  0
   34.6353    9.9381  -17.0674 F   0  0  0  0  0  0  0  0  0  0  0  0
   36.9744   11.3310  -16.9983 N   0  0  0  0  0  0  0  0  0  0  0  0
   36.7447   10.6564  -17.7879 H   0  0  0  0  0  0  0  0  0  0  0  0
   41.0172   12.3951  -16.4629 C   0  0  0  0  0  0  0  0  0  0  0  0
   40.6111   11.7028  -17.5553 C   0  0  0  0  0  0  0  0  0  0  0  0
   39.2773   11.3393  -17.7719 C   0  0  0  0  0  0  0  0  0  0  0  0
   38.3327   11.6782  -16.8714 C   0  0  0  0  0  0  0  0  0  0  0  0
   38.7297   12.3996  -15.7255 C   0  0  0  0  0  0  0  0  0  0  0  0
   40.0382   12.7434  -15.5364 C   0  0  0  0  0  0  0  0  0  0  0  0
   43.4176   12.3097  -17.0872 N   0  0  0  0  0  0  0  0  0  0  0  0
   42.4057   12.7765  -16.2320 C   0  0  0  0  0  0  0  0  0  0  0  0
   42.6901   13.5187  -15.2719 O   0  0  0  0  0  0  0  0  0  0  0  0
   43.9616   11.4658  -16.8257 H   0  0  0  0  0  0  0  0  0  0  0  0
   43.6414   12.7846  -17.9798 H   0  0  0  0  0  0  0  0  0  0  0  0
   35.0050   14.4090  -13.8966 N   0  0  0  0  0  0  0  0  0  0  0  0
   34.2892   15.1808  -14.0422 H   0  0  0  0  0  0  0  0  0  0  0  0
   36.0055   14.6241  -12.9466 C   0  0  0  0  0  0  0  0  0  0  0  0
   37.3033   14.9214  -13.2409 C   0  0  0  0  0  0  0  0  0  0  0  0
   38.2883   15.1028  -12.2456 C   0  0  0  0  0  0  0  0  0  0  0  0
   37.9379   14.9785  -10.9232 C   0  0  0  0  0  0  0  0  0  0  0  0
   38.9032   15.1556   -9.9340 O   0  0  0  0  0  0  0  0  0  0  0  0
   36.6328   14.6788  -10.5798 C   0  0  0  0  0  0  0  0  0  0  0  0
   35.7040   14.5091  -11.5701 C   0  0  0  0  0  0  0  0  0  0  0  0
   39.4117   14.3289   -9.6439 H   0  0  0  0  0  0  0  0  0  0  0  0
 16 17  1  0  0  0
 17 18  2  0  0  0
 17 10  1  0  0  0
 10 11  2  0  0  0
 11 12  1  0  0  0
 12 13  2  0  0  0
 13  8  1  0  0  0
  8  1  1  0  0  0
  1  2  2  0  0  0
  2  3  1  0  0  0
  3 21  1  0  0  0
 21 23  1  0  0  0
 23 24  2  0  0  0
 24 25  1  0  0  0
 25 26  2  0  0  0
 26 27  1  0  0  0
 26 28  1  0  0  0
 28 29  2  0  0  0
  3  4  2  0  0  0
  4  5  1  0  0  0
  5  6  2  0  0  0
  6  7  1  0  0  0
 13 14  1  0  0  0
 14 15  2  0  0  0
 15 10  1  0  0  0
  6  1  1  0  0  0
 29 23  1  0  0  0
 16 19  1  0  0  0
 16 20  1  0  0  0
  8  9  1  0  0  0
 21 22  1  0  0  0
 27 30  1  0  0  0
M  END
> <minimizedAffinity>
-8.86032

> <CNNscore>
0.4097947180

> <CNNaffinity>
6.7682938576

> <CNN_VS>
2.7736110687

> <CNNaffinity_variance>
0.0723199844

$$$$
[H]Oc1c([H])c([H])c(N([H])c2nc([H])c(F)c(N([H])c3c([H])c([H])c(C(=O)N([H])[H])c([H])c3[H])n2)c([H])c1[H]


 30 32  0  0  0  0  0  0  0  0999 V2000
   35.2454   13.3039  -15.1601 C   0  0  0  0  0  0  0  0  0  0  0  0
   35.9416   12.5815  -16.0222 N   0  0  0  0  0  0  0  0  0  0  0  0
   35.5268   11.3484  -16.4337 C   0  0  0  0  0  0  0  0  0  0  0  0
   34.3736   10.8847  -15.9289 N   0  0  0  0  0  0  0  0  0  0  0  0
   33.6244   11.5543  -15.0611 C   0  0  0  0  0  0  0  0  0  0  0  0
   34.0375   12.7991  -14.6420 C   0  0  0  0  0  0  0  0  0  0  0  0
   33.3209   13.5245  -13.7654 F   0  0  0  0  0  0  0  0  0  0  0  0
   35.6548   14.5786  -14.6917 N   0  0  0  0  0  0  0  0  0  0  0  0
   35.1853   15.4255  -15.1318 H   0  0  0  0  0  0  0  0  0  0  0  0
   38.4292   15.4221  -11.6331 C   0  0  0  0  0  0  0  0  0  0  0  0
   38.8338   14.9600  -12.8416 C   0  0  0  0  0  0  0  0  0  0  0  0
   37.9437   14.6771  -13.8837 C   0  0  0  0  0  0  0  0  0  0  0  0
   36.6199   14.8620  -13.7068 C   0  0  0  0  0  0  0  0  0  0  0  0
   36.1730   15.3426  -12.4577 C   0  0  0  0  0  0  0  0  0  0  0  0
   37.0615   15.6120  -11.4555 C   0  0  0  0  0  0  0  0  0  0  0  0
   39.3553   14.9239   -9.3852 N   0  0  0  0  0  0  0  0  0  0  0  0
   39.3521   15.7184  -10.5437 C   0  0  0  0  0  0  0  0  0  0  0  0
   40.1382   16.6804  -10.6455 O   0  0  0  0  0  0  0  0  0  0  0  0
   38.8125   15.2261   -8.5542 H   0  0  0  0  0  0  0  0  0  0  0  0
   39.8870   14.0369   -9.3320 H   0  0  0  0  0  0  0  0  0  0  0  0
   36.3426   10.6370  -17.3306 N   0  0  0  0  0  0  0  0  0  0  0  0
   35.9160    9.7928  -17.8149 H   0  0  0  0  0  0  0  0  0  0  0  0
   37.6681   10.9558  -17.6325 C   0  0  0  0  0  0  0  0  0  0  0  0
   38.2527   10.7688  -18.8500 C   0  0  0  0  0  0  0  0  0  0  0  0
   39.6070   11.0802  -19.1013 C   0  0  0  0  0  0  0  0  0  0  0  0
   40.3774   11.5940  -18.0868 C   0  0  0  0  0  0  0  0  0  0  0  0
   41.7147   11.9042  -18.3253 O   0  0  0  0  0  0  0  0  0  0  0  0
   39.8247   11.8007  -16.8366 C   0  0  0  0  0  0  0  0  0  0  0  0
   38.5093   11.4873  -16.6280 C   0  0  0  0  0  0  0  0  0  0  0  0
   42.3879   11.1657  -18.1587 H   0  0  0  0  0  0  0  0  0  0  0  0
 16 17  1  0  0  0
 17 18  2  0  0  0
 17 10  1  0  0  0
 10 11  2  0  0  0
 11 12  1  0  0  0
 12 13  2  0  0  0
 13  8  1  0  0  0
  8  1  1  0  0  0
  1  2  2  0  0  0
  2  3  1  0  0  0
  3 21  1  0  0  0
 21 23  1  0  0  0
 23 24  2  0  0  0
 24 25  1  0  0  0
 25 26  2  0  0  0
 26 27  1  0  0  0
 26 28  1  0  0  0
 28 29  2  0  0  0
  3  4  2  0  0  0
  4  5  1  0  0  0
  5  6  2  0  0  0
  6  7  1  0  0  0
 13 14  1  0  0  0
 14 15  2  0  0  0
 15 10  1  0  0  0
  6  1  1  0  0  0
 29 23  1  0  0  0
 16 19  1  0  0  0
 16 20  1  0  0  0
  8  9  1  0  0  0
 21 22  1  0  0  0
 27 30  1  0  0  0
M  END
> <minimizedAffinity>
-8.88110

> <CNNscore>
0.3190445900

> <CNNaffinity>
6.5035338402

> <CNN_VS>
2.0749173164

> <CNNaffinity_variance>
0.0392336324

$$$$
[H]Oc1c([H])c([H])c(N([H])c2nc([H])c(F)c(N([H])c3c([H])c([H])c(C(=O)N([H])[H])c([H])c3[H])n2)c([H])c1[H]


 30 32  0  0  0  0  0  0  0  0999 V2000
   35.2544   13.3883  -15.0726 C   0  0  0  0  0  0  0  0  0  0  0  0
   35.9573   12.6821  -15.9425 N   0  0  0  0  0  0  0  0  0  0  0  0
   35.5468   11.4561  -16.3788 C   0  0  0  0  0  0  0  0  0  0  0  0
   34.3907   10.9824  -15.8903 N   0  0  0  0  0  0  0  0  0  0  0  0
   33.6348   11.6356  -15.0159 C   0  0  0  0  0  0  0  0  0  0  0  0
   34.0436   12.8732  -14.5719 C   0  0  0  0  0  0  0  0  0  0  0  0
   33.3201   13.5822  -13.6874 F   0  0  0  0  0  0  0  0  0  0  0  0
   35.6591   14.6550  -14.5788 N   0  0  0  0  0  0  0  0  0  0  0  0
   35.2392   15.5108  -15.0504 H   0  0  0  0  0  0  0  0  0  0  0  0
   38.4777   15.4557  -11.5493 C   0  0  0  0  0  0  0  0  0  0  0  0
   37.1497   15.6265  -11.3371 C   0  0  0  0  0  0  0  0  0  0  0  0
   36.1840   15.3631  -12.3150 C   0  0  0  0  0  0  0  0  0  0  0  0
   36.5614   14.9196  -13.5311 C   0  0  0  0  0  0  0  0  0  0  0  0
   37.9382   14.7332  -13.7771 C   0  0  0  0  0  0  0  0  0  0  0  0
   38.8623   14.9970  -12.8062 C   0  0  0  0  0  0  0  0  0  0  0  0
   39.4667   15.0360   -9.3122 N   0  0  0  0  0  0  0  0  0  0  0  0
   39.4883   15.7287  -10.5341 C   0  0  0  0  0  0  0  0  0  0  0  0
   40.3715   16.5799  -10.7560 O   0  0  0  0  0  0  0  0  0  0  0  0
   39.0095   15.4666   -8.4863 H   0  0  0  0  0  0  0  0  0  0  0  0
   39.8964   14.0998   -9.2067 H   0  0  0  0  0  0  0  0  0  0  0  0
   36.3695   10.7617  -17.2826 N   0  0  0  0  0  0  0  0  0  0  0  0
   35.9267    9.9721  -17.8391 H   0  0  0  0  0  0  0  0  0  0  0  0
   37.7217   11.0309  -17.5036 C   0  0  0  0  0  0  0  0  0  0  0  0
   38.5751   11.5354  -16.5674 C   0  0  0  0  0  0  0  0  0  0  0  0
   39.9302   11.8190  -16.8451 C   0  0  0  0  0  0  0  0  0  0  0  0
   40.4217   11.5804  -18.1055 C   0  0  0  0  0  0  0  0  0  0  0  0
   41.7576   11.8571  -18.3889 O   0  0  0  0  0  0  0  0  0  0  0  0
   39.5915   11.0682  -19.0850 C   0  0  0  0  0  0  0  0  0  0  0  0
   38.2834   10.8056  -18.7814 C   0  0  0  0  0  0  0  0  0  0  0  0
   41.9652   12.7886  -18.7288 H   0  0  0  0  0  0  0  0  0  0  0  0
 16 17  1  0  0  0
 17 18  2  0  0  0
 17 10  1  0  0  0
 10 11  2  0  0  0
 11 12  1  0  0  0
 12 13  2  0  0  0
 13  8  1  0  0  0
  8  1  1  0  0  0
  1  2  2  0  0  0
  2  3  1  0  0  0
  3 21  1  0  0  0
 21 23  1  0  0  0
 23 24  2  0  0  0
 24 25  1  0  0  0
 25 26  2  0  0  0
 26 27  1  0  0  0
 26 28  1  0  0  0
 28 29  2  0  0  0
  3  4  2  0  0  0
  4  5  1  0  0  0
  5  6  2  0  0  0
  6  7  1  0  0  0
 13 14  1  0  0  0
 14 15  2  0  0  0
 15 10  1  0  0  0
  6  1  1  0  0  0
 29 23  1  0  0  0
 16 19  1  0  0  0
 16 20  1  0  0  0
  8  9  1  0  0  0
 21 22  1  0  0  0
 27 30  1  0  0  0
M  END
> <minimizedAffinity>
-8.79138

> <CNNscore>
0.2968853712

> <CNNaffinity>
6.4643049240

> <CNN_VS>
1.9191576242

> <CNNaffinity_variance>
0.0434753597

$$$$
[H]Oc1c([H])c([H])c(N([H])c2nc([H])c(F)c(N([H])c3c([H])c([H])c(C(=O)N([H])[H])c([H])c3[H])n2)c([H])c1[H]


 30 32  0  0  0  0  0  0  0  0999 V2000
   35.3993   12.7756  -13.9294 C   0  0  0  0  0  0  0  0  0  0  0  0
   36.2699   13.2021  -13.0296 N   0  0  0  0  0  0  0  0  0  0  0  0
   35.9636   14.1880  -12.1373 C   0  0  0  0  0  0  0  0  0  0  0  0
   34.7336   14.7192  -12.2024 N   0  0  0  0  0  0  0  0  0  0  0  0
   33.8103   14.3406  -13.0782 C   0  0  0  0  0  0  0  0  0  0  0  0
   34.1132   13.3462  -13.9812 C   0  0  0  0  0  0  0  0  0  0  0  0
   33.2194   12.9204  -14.8913 F   0  0  0  0  0  0  0  0  0  0  0  0
   35.6877   11.7698  -14.8871 N   0  0  0  0  0  0  0  0  0  0  0  0
   34.9923   10.9690  -14.9669 H   0  0  0  0  0  0  0  0  0  0  0  0
   39.1017   11.5959  -17.3525 C   0  0  0  0  0  0  0  0  0  0  0  0
   37.9291   11.0331  -17.7345 C   0  0  0  0  0  0  0  0  0  0  0  0
   36.7729   11.0777  -16.9475 C   0  0  0  0  0  0  0  0  0  0  0  0
   36.7964   11.7004  -15.7517 C   0  0  0  0  0  0  0  0  0  0  0  0
   38.0051   12.2948  -15.3312 C   0  0  0  0  0  0  0  0  0  0  0  0
   39.1208   12.2382  -16.1174 C   0  0  0  0  0  0  0  0  0  0  0  0
   41.5253   12.0346  -17.6560 N   0  0  0  0  0  0  0  0  0  0  0  0
   40.3095   11.5523  -18.1684 C   0  0  0  0  0  0  0  0  0  0  0  0
   40.2577   11.0849  -19.3227 O   0  0  0  0  0  0  0  0  0  0  0  0
   41.8240   13.0047  -17.8711 H   0  0  0  0  0  0  0  0  0  0  0  0
   42.1404   11.4482  -17.0644 H   0  0  0  0  0  0  0  0  0  0  0  0
   36.9585   14.6002  -11.2337 N   0  0  0  0  0  0  0  0  0  0  0  0
   36.7437   14.5120  -10.1968 H   0  0  0  0  0  0  0  0  0  0  0  0
   38.2048   15.1154  -11.5956 C   0  0  0  0  0  0  0  0  0  0  0  0
   38.7894   14.9459  -12.8158 C   0  0  0  0  0  0  0  0  0  0  0  0
   40.0662   15.4621  -13.1276 C   0  0  0  0  0  0  0  0  0  0  0  0
   40.7577   16.1664  -12.1722 C   0  0  0  0  0  0  0  0  0  0  0  0
   42.0183   16.6795  -12.4708 O   0  0  0  0  0  0  0  0  0  0  0  0
   40.2018   16.3629  -10.9218 C   0  0  0  0  0  0  0  0  0  0  0  0
   38.9627   15.8483  -10.6536 C   0  0  0  0  0  0  0  0  0  0  0  0
   42.8099   16.0777  -12.2774 H   0  0  0  0  0  0  0  0  0  0  0  0
 16 17  1  0  0  0
 17 18  2  0  0  0
 17 10  1  0  0  0
 10 11  2  0  0  0
 11 12  1  0  0  0
 12 13  2  0  0  0
 13  8  1  0  0  0
  8  1  1  0  0  0
  1  2  2  0  0  0
  2  3  1  0  0  0
  3 21  1  0  0  0
 21 23  1  0  0  0
 23 24  2  0  0  0
 24 25  1  0  0  0
 25 26  2  0  0  0
 26 27  1  0  0  0
 26 28  1  0  0  0
 28 29  2  0  0  0
  3  4  2  0  0  0
  4  5  1  0  0  0
  5  6  2  0  0  0
  6  7  1  0  0  0
 13 14  1  0  0  0
 14 15  2  0  0  0
 15 10  1  0  0  0
  6  1  1  0  0  0
 29 23  1  0  0  0
 16 19  1  0  0  0
 16 20  1  0  0  0
  8  9  1  0  0  0
 21 22  1  0  0  0
 27 30  1  0  0  0
M  END
> <minimizedAffinity>
-8.90596

> <CNNscore>
0.1894238740

> <CNNaffinity>
6.1190905571

> <CNN_VS>
1.1591018438

> <CNNaffinity_variance>
0.0685885176

$$$$
[H]Oc1c([H])c([H])c(N([H])c2nc([H])c(F)c(N([H])c3c([H])c([H])c(C(=O)N([H])[H])c([H])c3[H])n2)c([H])c1[H]


 30 32  0  0  0  0  0  0  0  0999 V2000
   39.7763   14.3669  -13.2436 C   0  0  0  0  0  0  0  0  0  0  0  0
   39.4422   13.5082  -14.1926 N   0  0  0  0  0  0  0  0  0  0  0  0
   40.3234   13.1194  -15.1592 C   0  0  0  0  0  0  0  0  0  0  0  0
   41.5576   13.6432  -15.1163 N   0  0  0  0  0  0  0  0  0  0  0  0
   41.9615   14.5090  -14.1943 C   0  0  0  0  0  0  0  0  0  0  0  0
   41.0770   14.9052  -13.2162 C   0  0  0  0  0  0  0  0  0  0  0  0
   41.4284   15.7786  -12.2559 F   0  0  0  0  0  0  0  0  0  0  0  0
   38.8825   14.8120  -12.2361 N   0  0  0  0  0  0  0  0  0  0  0  0
   39.3157   15.2495  -11.3689 H   0  0  0  0  0  0  0  0  0  0  0  0
   34.6682   14.7584  -12.2595 C   0  0  0  0  0  0  0  0  0  0  0  0
   35.3873   13.6655  -12.6147 C   0  0  0  0  0  0  0  0  0  0  0  0
   36.7864   13.6425  -12.6112 C   0  0  0  0  0  0  0  0  0  0  0  0
   37.4766   14.7410  -12.2436 C   0  0  0  0  0  0  0  0  0  0  0  0
   36.7513   15.8918  -11.8688 C   0  0  0  0  0  0  0  0  0  0  0  0
   35.3853   15.8898  -11.8801 C   0  0  0  0  0  0  0  0  0  0  0  0
   32.4895   14.0098  -13.1823 N   0  0  0  0  0  0  0  0  0  0  0  0
   33.2103   14.7881  -12.2614 C   0  0  0  0  0  0  0  0  0  0  0  0
   32.6068   15.5076  -11.4418 O   0  0  0  0  0  0  0  0  0  0  0  0
   32.1606   14.4371  -14.0687 H   0  0  0  0  0  0  0  0  0  0  0  0
   32.2730   13.0129  -13.0044 H   0  0  0  0  0  0  0  0  0  0  0  0
   39.8758   12.2245  -16.1465 N   0  0  0  0  0  0  0  0  0  0  0  0
   40.6143   11.7332  -16.7318 H   0  0  0  0  0  0  0  0  0  0  0  0
   38.5369   11.9331  -16.4152 C   0  0  0  0  0  0  0  0  0  0  0  0
   37.4773   12.4642  -15.7411 C   0  0  0  0  0  0  0  0  0  0  0  0
   36.1391   12.1177  -16.0295 C   0  0  0  0  0  0  0  0  0  0  0  0
   35.8805   11.2106  -17.0282 C   0  0  0  0  0  0  0  0  0  0  0  0
   34.5632   10.8625  -17.3199 O   0  0  0  0  0  0  0  0  0  0  0  0
   36.9251   10.6483  -17.7380 C   0  0  0  0  0  0  0  0  0  0  0  0
   38.2096   11.0064  -17.4316 C   0  0  0  0  0  0  0  0  0  0  0  0
   34.1801   10.0736  -16.8129 H   0  0  0  0  0  0  0  0  0  0  0  0
 16 17  1  0  0  0
 17 18  2  0  0  0
 17 10  1  0  0  0
 10 11  2  0  0  0
 11 12  1  0  0  0
 12 13  2  0  0  0
 13  8  1  0  0  0
  8  1  1  0  0  0
  1  2  2  0  0  0
  2  3  1  0  0  0
  3 21  1  0  0  0
 21 23  1  0  0  0
 23 24  2  0  0  0
 24 25  1  0  0  0
 25 26  2  0  0  0
 26 27  1  0  0  0
 26 28  1  0  0  0
 28 29  2  0  0  0
  3  4  2  0  0  0
  4  5  1  0  0  0
  5  6  2  0  0  0
  6  7  1  0  0  0
 13 14  1  0  0  0
 14 15  2  0  0  0
 15 10  1  0  0  0
  6  1  1  0  0  0
 29 23  1  0  0  0
 16 19  1  0  0  0
 16 20  1  0  0  0
  8  9  1  0  0  0
 21 22  1  0  0  0
 27 30  1  0  0  0
M  END
> <minimizedAffinity>
-7.74664

> <CNNscore>
0.1843524128

> <CNNaffinity>
6.2546339035

> <CNN_VS>
1.1530568600

> <CNNaffinity_variance>
0.0299285240

$$$$
[H]Oc1c([H])c([H])c(N([H])c2nc([H])c(F)c(N([H])c3c([H])c([H])c(C(=O)N([H])[H])c([H])c3[H])n2)c([H])c1[H]


 30 32  0  0  0  0  0  0  0  0999 V2000
   36.1677   13.0965  -13.2357 C   0  0  0  0  0  0  0  0  0  0  0  0
   36.5568   14.2681  -12.7606 N   0  0  0  0  0  0  0  0  0  0  0  0
   35.6644   15.2394  -12.4112 C   0  0  0  0  0  0  0  0  0  0  0  0
   34.3606   14.9648  -12.5670 N   0  0  0  0  0  0  0  0  0  0  0  0
   33.8990   13.8122  -13.0373 C   0  0  0  0  0  0  0  0  0  0  0  0
   34.7945   12.8280  -13.3915 C   0  0  0  0  0  0  0  0  0  0  0  0
   34.3869   11.6404  -13.8730 F   0  0  0  0  0  0  0  0  0  0  0  0
   37.0650   12.0713  -13.6305 N   0  0  0  0  0  0  0  0  0  0  0  0
   37.3123   11.3411  -12.8979 H   0  0  0  0  0  0  0  0  0  0  0  0
   39.0390   11.5820  -17.3221 C   0  0  0  0  0  0  0  0  0  0  0  0
   37.7480   11.2019  -17.1592 C   0  0  0  0  0  0  0  0  0  0  0  0
   37.0570   11.3561  -15.9522 C   0  0  0  0  0  0  0  0  0  0  0  0
   37.6770   11.9032  -14.8871 C   0  0  0  0  0  0  0  0  0  0  0  0
   39.0211   12.3077  -15.0309 C   0  0  0  0  0  0  0  0  0  0  0  0
   39.6745   12.1470  -16.2197 C   0  0  0  0  0  0  0  0  0  0  0  0
   39.0956   10.9689  -19.7261 N   0  0  0  0  0  0  0  0  0  0  0  0
   39.7640   11.4236  -18.5773 C   0  0  0  0  0  0  0  0  0  0  0  0
   40.9799   11.6936  -18.6258 O   0  0  0  0  0  0  0  0  0  0  0  0
   39.1279    9.9619  -19.9738 H   0  0  0  0  0  0  0  0  0  0  0  0
   38.5657   11.6120  -20.3410 H   0  0  0  0  0  0  0  0  0  0  0  0
   36.1657   16.4658  -11.9415 N   0  0  0  0  0  0  0  0  0  0  0  0
   35.9453   17.3347  -12.5123 H   0  0  0  0  0  0  0  0  0  0  0  0
   36.9297   16.6278  -10.7840 C   0  0  0  0  0  0  0  0  0  0  0  0
   36.4327   17.0149   -9.5747 C   0  0  0  0  0  0  0  0  0  0  0  0
   37.2494   17.1933   -8.4366 C   0  0  0  0  0  0  0  0  0  0  0  0
   38.6010   16.9701   -8.5382 C   0  0  0  0  0  0  0  0  0  0  0  0
   39.4148   17.1437   -7.4206 O   0  0  0  0  0  0  0  0  0  0  0  0
   39.1470   16.5753   -9.7452 C   0  0  0  0  0  0  0  0  0  0  0  0
   38.3264   16.4125  -10.8279 C   0  0  0  0  0  0  0  0  0  0  0  0
   39.8059   18.0682   -7.2839 H   0  0  0  0  0  0  0  0  0  0  0  0
 16 17  1  0  0  0
 17 18  2  0  0  0
 17 10  1  0  0  0
 10 11  2  0  0  0
 11 12  1  0  0  0
 12 13  2  0  0  0
 13  8  1  0  0  0
  8  1  1  0  0  0
  1  2  2  0  0  0
  2  3  1  0  0  0
  3 21  1  0  0  0
 21 23  1  0  0  0
 23 24  2  0  0  0
 24 25  1  0  0  0
 25 26  2  0  0  0
 26 27  1  0  0  0
 26 28  1  0  0  0
 28 29  2  0  0  0
  3  4  2  0  0  0
  4  5  1  0  0  0
  5  6  2  0  0  0
  6  7  1  0  0  0
 13 14  1  0  0  0
 14 15  2  0  0  0
 15 10  1  0  0  0
  6  1  1  0  0  0
 29 23  1  0  0  0
 16 19  1  0  0  0
 16 20  1  0  0  0
  8  9  1  0  0  0
 21 22  1  0  0  0
 27 30  1  0  0  0
M  END
> <minimizedAffinity>
-8.36628

> <CNNscore>
0.1582686305

> <CNNaffinity>
6.0568752289

> <CNN_VS>
0.9586133361

> <CNNaffinity_variance>
0.1807274967

$$$$
[H]Oc1c([H])c([H])c(N([H])c2nc([H])c(F)c(N([H])c3c([H])c([H])c(C(=O)N([H])[H])c([H])c3[H])n2)c([H])c1[H]


 30 32  0  0  0  0  0  0  0  0999 V2000
   39.1976   14.2787  -13.1869 C   0  0  0  0  0  0  0  0  0  0  0  0
   38.6649   13.2590  -13.8397 N   0  0  0  0  0  0  0  0  0  0  0  0
   37.3231   13.0116  -13.8239 C   0  0  0  0  0  0  0  0  0  0  0  0
   36.5496   13.8473  -13.1149 N   0  0  0  0  0  0  0  0  0  0  0  0
   37.0153   14.8893  -12.4365 C   0  0  0  0  0  0  0  0  0  0  0  0
   38.3683   15.1443  -12.4486 C   0  0  0  0  0  0  0  0  0  0  0  0
   38.8984   16.1846  -11.7814 F   0  0  0  0  0  0  0  0  0  0  0  0
   40.5887   14.5550  -13.1610 N   0  0  0  0  0  0  0  0  0  0  0  0
   40.9265   15.2516  -12.4318 H   0  0  0  0  0  0  0  0  0  0  0  0
   43.6686   12.9207  -15.5289 C   0  0  0  0  0  0  0  0  0  0  0  0
   42.3925   12.9854  -15.9818 C   0  0  0  0  0  0  0  0  0  0  0  0
   41.3456   13.5284  -15.2286 C   0  0  0  0  0  0  0  0  0  0  0  0
   41.5866   14.0157  -13.9947 C   0  0  0  0  0  0  0  0  0  0  0  0
   42.9070   13.9604  -13.5003 C   0  0  0  0  0  0  0  0  0  0  0  0
   43.9125   13.4257  -14.2547 C   0  0  0  0  0  0  0  0  0  0  0  0
   44.5593   11.9904  -17.6502 N   0  0  0  0  0  0  0  0  0  0  0  0
   44.7633   12.3559  -16.3093 C   0  0  0  0  0  0  0  0  0  0  0  0
   45.8811   12.1990  -15.7805 O   0  0  0  0  0  0  0  0  0  0  0  0
   44.3348   11.0051  -17.8850 H   0  0  0  0  0  0  0  0  0  0  0  0
   44.6262   12.6789  -18.4209 H   0  0  0  0  0  0  0  0  0  0  0  0
   36.8452   11.8891  -14.5223 N   0  0  0  0  0  0  0  0  0  0  0  0
   36.1725   11.2451  -14.0105 H   0  0  0  0  0  0  0  0  0  0  0  0
   37.1871   11.5578  -15.8350 C   0  0  0  0  0  0  0  0  0  0  0  0
   36.2903   11.2658  -16.8197 C   0  0  0  0  0  0  0  0  0  0  0  0
   36.6841   10.9077  -18.1277 C   0  0  0  0  0  0  0  0  0  0  0  0
   38.0219   10.8483  -18.4338 C   0  0  0  0  0  0  0  0  0  0  0  0
   38.4200   10.4958  -19.7217 O   0  0  0  0  0  0  0  0  0  0  0  0
   38.9654   11.1376  -17.4657 C   0  0  0  0  0  0  0  0  0  0  0  0
   38.5485   11.4805  -16.2084 C   0  0  0  0  0  0  0  0  0  0  0  0
   38.5666    9.5088  -19.8965 H   0  0  0  0  0  0  0  0  0  0  0  0
 16 17  1  0  0  0
 17 18  2  0  0  0
 17 10  1  0  0  0
 10 11  2  0  0  0
 11 12  1  0  0  0
 12 13  2  0  0  0
 13  8  1  0  0  0
  8  1  1  0  0  0
  1  2  2  0  0  0
  2  3  1  0  0  0
  3 21  1  0  0  0
 21 23  1  0  0  0
 23 24  2  0  0  0
 24 25  1  0  0  0
 25 26  2  0  0  0
 26 27  1  0  0  0
 26 28  1  0  0  0
 28 29  2  0  0  0
  3  4  2  0  0  0
  4  5  1  0  0  0
  5  6  2  0  0  0
  6  7  1  0  0  0
 13 14  1  0  0  0
 14 15  2  0  0  0
 15 10  1  0  0  0
  6  1  1  0  0  0
 29 23  1  0  0  0
 16 19  1  0  0  0
 16 20  1  0  0  0
  8  9  1  0  0  0
 21 22  1  0  0  0
 27 30  1  0  0  0
M  END
> <minimizedAffinity>
-8.57910

> <CNNscore>
0.1544638723

> <CNNaffinity>
6.3413796425

> <CNN_VS>
0.9795140624

> <CNNaffinity_variance>
0.0654045194

$$$$
[H]OC(=O)[C@@]1([H])N(C(=O)[C@@]([H])(N([H])[C@]([H])(C(=O)O[H])C([H])([H])C([H])([H])c2c([H])c([H])c([H])c([H])c2[H])C([H])([H])[H])C([H])([H])c2c([H])c([H])c([H])c([H])c2C1([H])[H]


 33 35  0  0  0  0  0  0  0  0999 V2000
   38.5998   14.1434  -14.0714 C   0  0  0  0  0  0  0  0  0  0  0  0
   38.4688   14.7627  -12.6709 C   0  0  0  0  0  0  0  0  0  0  0  0
   39.7181   15.4858  -12.4173 C   0  0  0  0  0  0  0  0  0  0  0  0
   40.4107   15.7935  -13.4491 O   0  0  0  0  0  0  0  0  0  0  0  0
   40.2354   15.8764  -11.1639 N   0  0  0  0  0  0  0  0  0  0  0  0
   41.5480   16.5632  -11.1505 C   0  0  0  0  0  0  0  0  0  0  0  0
   42.4655   15.7030  -10.3148 C   0  0  0  0  0  0  0  0  0  0  0  0
   43.7203   15.3236  -10.7089 C   0  0  0  0  0  0  0  0  0  0  0  0
   44.4846   14.4929   -9.8734 C   0  0  0  0  0  0  0  0  0  0  0  0
   43.9357   14.0871   -8.6758 C   0  0  0  0  0  0  0  0  0  0  0  0
   42.6484   14.4934   -8.3008 C   0  0  0  0  0  0  0  0  0  0  0  0
   41.8923   15.3079   -9.1126 C   0  0  0  0  0  0  0  0  0  0  0  0
   40.5601   15.7969   -8.7621 C   0  0  0  0  0  0  0  0  0  0  0  0
   39.5938   15.6718   -9.8961 C   0  0  0  0  0  0  0  0  0  0  0  0
   38.4362   16.5958   -9.7166 C   0  0  0  0  0  0  0  0  0  0  0  0
   38.2528   17.5116  -10.5344 O   0  0  0  0  0  0  0  0  0  0  0  0
   37.5968   16.4181   -8.6551 O   0  0  0  0  0  0  0  0  0  0  0  0
   37.0502   15.5591   -8.6276 H   0  0  0  0  0  0  0  0  0  0  0  0
   37.3241   15.6606  -12.7773 N   0  0  0  0  0  0  0  0  0  0  0  0
   37.4570   16.3889  -12.0302 H   0  0  0  0  0  0  0  0  0  0  0  0
   36.1260   14.9274  -12.4398 C   0  0  0  0  0  0  0  0  0  0  0  0
   35.7721   15.0995  -11.0003 C   0  0  0  0  0  0  0  0  0  0  0  0
   35.9863   14.2013  -10.1485 O   0  0  0  0  0  0  0  0  0  0  0  0
   35.1863   16.2671  -10.5311 O   0  0  0  0  0  0  0  0  0  0  0  0
   34.4464   16.7592  -11.0105 H   0  0  0  0  0  0  0  0  0  0  0  0
   36.2315   13.4697  -12.8094 C   0  0  0  0  0  0  0  0  0  0  0  0
   34.8861   12.8728  -13.1489 C   0  0  0  0  0  0  0  0  0  0  0  0
   34.8957   12.2118  -14.4775 C   0  0  0  0  0  0  0  0  0  0  0  0
   36.0502   12.1259  -15.2455 C   0  0  0  0  0  0  0  0  0  0  0  0
   36.0920   11.5222  -16.4828 C   0  0  0  0  0  0  0  0  0  0  0  0
   34.9407   10.9673  -17.0066 C   0  0  0  0  0  0  0  0  0  0  0  0
   33.7656   11.0365  -16.2616 C   0  0  0  0  0  0  0  0  0  0  0  0
   33.7604   11.6472  -15.0292 C   0  0  0  0  0  0  0  0  0  0  0  0
  1  2  1  0  0  0
  2 19  1  0  0  0
 19 21  1  0  0  0
 21 26  1  0  0  0
 26 27  1  0  0  0
 27 28  1  0  0  0
 28 29  2  0  0  0
 29 30  1  0  0  0
 30 31  2  0  0  0
 31 32  1  0  0  0
 32 33  2  0  0  0
 21 22  1  0  0  0
 22 23  2  0  0  0
 22 24  1  0  0  0
  2  3  1  0  0  0
  3  4  2  0  0  0
  3  5  1  0  0  0
  5  6  1  0  0  0
  6  7  1  0  0  0
  7  8  2  0  0  0
  8  9  1  0  0  0
  9 10  2  0  0  0
 10 11  1  0  0  0
 11 12  2  0  0  0
 12 13  1  0  0  0
 13 14  1  0  0  0
 14 15  1  0  0  0
 15 16  2  0  0  0
 15 17  1  0  0  0
 33 28  1  0  0  0
 14  5  1  0  0  0
 12  7  1  0  0  0
 19 20  1  0  0  0
 24 25  1  0  0  0
 17 18  1  0  0  0
M  END
> <minimizedAffinity>
-7.30460

> <CNNscore>
0.2108636349

> <CNNaffinity>
5.5337176323

> <CNN_VS>
1.1668598652

> <CNNaffinity_variance>
0.0874676555

$$$$
[H]OC(=O)[C@@]1([H])N(C(=O)[C@@]([H])(N([H])[C@]([H])(C(=O)O[H])C([H])([H])C([H])([H])c2c([H])c([H])c([H])c([H])c2[H])C([H])([H])[H])C([H])([H])c2c([H])c([H])c([H])c([H])c2C1([H])[H]


 33 35  0  0  0  0  0  0  0  0999 V2000
   45.4872   10.7300  -10.9947 C   0  0  0  0  0  0  0  0  0  0  0  0
   45.4658   11.9669  -10.0826 C   0  0  0  0  0  0  0  0  0  0  0  0
   44.5104   12.9057  -10.6773 C   0  0  0  0  0  0  0  0  0  0  0  0
   43.4201   13.0856  -10.0309 O   0  0  0  0  0  0  0  0  0  0  0  0
   44.6640   13.6281  -11.8797 N   0  0  0  0  0  0  0  0  0  0  0  0
   43.5376   14.4901  -12.3076 C   0  0  0  0  0  0  0  0  0  0  0  0
   43.1024   13.9753  -13.6588 C   0  0  0  0  0  0  0  0  0  0  0  0
   41.8002   13.7122  -13.9890 C   0  0  0  0  0  0  0  0  0  0  0  0
   41.5005   13.2030  -15.2630 C   0  0  0  0  0  0  0  0  0  0  0  0
   42.5404   12.9853  -16.1414 C   0  0  0  0  0  0  0  0  0  0  0  0
   43.8628   13.2655  -15.7733 C   0  0  0  0  0  0  0  0  0  0  0  0
   44.1661   13.7654  -14.5272 C   0  0  0  0  0  0  0  0  0  0  0  0
   45.5189   14.1134  -14.0965 C   0  0  0  0  0  0  0  0  0  0  0  0
   45.8249   13.6059  -12.7238 C   0  0  0  0  0  0  0  0  0  0  0  0
   46.9562   14.3634  -12.1135 C   0  0  0  0  0  0  0  0  0  0  0  0
   47.0092   15.5963  -12.2484 O   0  0  0  0  0  0  0  0  0  0  0  0
   47.9147   13.6873  -11.4157 O   0  0  0  0  0  0  0  0  0  0  0  0
   47.6280   13.2184  -10.5580 H   0  0  0  0  0  0  0  0  0  0  0  0
   45.0095   11.4586   -8.7936 N   0  0  0  0  0  0  0  0  0  0  0  0
   44.0047   11.7566   -8.7043 H   0  0  0  0  0  0  0  0  0  0  0  0
   45.7409   12.1304   -7.7445 C   0  0  0  0  0  0  0  0  0  0  0  0
   47.2141   12.0363   -7.9643 C   0  0  0  0  0  0  0  0  0  0  0  0
   47.8495   10.9685   -7.7791 O   0  0  0  0  0  0  0  0  0  0  0  0
   47.9566   13.1304   -8.3865 O   0  0  0  0  0  0  0  0  0  0  0  0
   47.8368   14.0662   -8.0270 H   0  0  0  0  0  0  0  0  0  0  0  0
   45.3563   11.6292   -6.3758 C   0  0  0  0  0  0  0  0  0  0  0  0
   44.7630   10.2410   -6.4272 C   0  0  0  0  0  0  0  0  0  0  0  0
   43.7112   10.0526   -5.3973 C   0  0  0  0  0  0  0  0  0  0  0  0
   42.7371   11.0142   -5.1595 C   0  0  0  0  0  0  0  0  0  0  0  0
   41.7497   10.8714   -4.2099 C   0  0  0  0  0  0  0  0  0  0  0  0
   41.7058    9.7230   -3.4436 C   0  0  0  0  0  0  0  0  0  0  0  0
   42.6684    8.7389   -3.6571 C   0  0  0  0  0  0  0  0  0  0  0  0
   43.6403    8.9151   -4.6144 C   0  0  0  0  0  0  0  0  0  0  0  0
  1  2  1  0  0  0
  2 19  1  0  0  0
 19 21  1  0  0  0
 21 26  1  0  0  0
 26 27  1  0  0  0
 27 28  1  0  0  0
 28 29  2  0  0  0
 29 30  1  0  0  0
 30 31  2  0  0  0
 31 32  1  0  0  0
 32 33  2  0  0  0
 21 22  1  0  0  0
 22 23  2  0  0  0
 22 24  1  0  0  0
  2  3  1  0  0  0
  3  4  2  0  0  0
  3  5  1  0  0  0
  5  6  1  0  0  0
  6  7  1  0  0  0
  7  8  2  0  0  0
  8  9  1  0  0  0
  9 10  2  0  0  0
 10 11  1  0  0  0
 11 12  2  0  0  0
 12 13  1  0  0  0
 13 14  1  0  0  0
 14 15  1  0  0  0
 15 16  2  0  0  0
 15 17  1  0  0  0
 33 28  1  0  0  0
 14  5  1  0  0  0
 12  7  1  0  0  0
 19 20  1  0  0  0
 24 25  1  0  0  0
 17 18  1  0  0  0
M  END
> <minimizedAffinity>
-5.91344

> <CNNscore>
0.2095479071

> <CNNaffinity>
4.3763237000

> <CNN_VS>
0.9170494676

> <CNNaffinity_variance>
0.3216300309

$$$$
[H]OC(=O)[C@@]1([H])N(C(=O)[C@@]([H])(N([H])[C@]([H])(C(=O)O[H])C([H])([H])C([H])([H])c2c([H])c([H])c([H])c([H])c2[H])C([H])([H])[H])C([H])([H])c2c([H])c([H])c([H])c([H])c2C1([H])[H]


 33 35  0  0  0  0  0  0  0  0999 V2000
   39.3639   16.2949  -10.0891 C   0  0  0  0  0  0  0  0  0  0  0  0
   38.0964   15.6141  -10.6294 C   0  0  0  0  0  0  0  0  0  0  0  0
   36.9586   16.3275  -10.0424 C   0  0  0  0  0  0  0  0  0  0  0  0
   36.1903   16.9372  -10.8652 O   0  0  0  0  0  0  0  0  0  0  0  0
   36.6223   16.4130   -8.6746 N   0  0  0  0  0  0  0  0  0  0  0  0
   35.4436   17.2335   -8.3109 C   0  0  0  0  0  0  0  0  0  0  0  0
   35.9512   18.3142   -7.3865 C   0  0  0  0  0  0  0  0  0  0  0  0
   35.6579   19.6429   -7.5367 C   0  0  0  0  0  0  0  0  0  0  0  0
   36.2071   20.5764   -6.6426 C   0  0  0  0  0  0  0  0  0  0  0  0
   37.0293   20.1136   -5.6375 C   0  0  0  0  0  0  0  0  0  0  0  0
   37.3097   18.7469   -5.5102 C   0  0  0  0  0  0  0  0  0  0  0  0
   36.7755   17.8246   -6.3812 C   0  0  0  0  0  0  0  0  0  0  0  0
   36.9985   16.3836   -6.2792 C   0  0  0  0  0  0  0  0  0  0  0  0
   37.3218   15.7650   -7.6015 C   0  0  0  0  0  0  0  0  0  0  0  0
   37.0538   14.2974   -7.5850 C   0  0  0  0  0  0  0  0  0  0  0  0
   35.9410   13.8755   -7.9377 O   0  0  0  0  0  0  0  0  0  0  0  0
   38.0384   13.4422   -7.1823 O   0  0  0  0  0  0  0  0  0  0  0  0
   38.8778   13.3888   -7.7569 H   0  0  0  0  0  0  0  0  0  0  0  0
   38.1751   15.7966  -12.0746 N   0  0  0  0  0  0  0  0  0  0  0  0
   37.2026   16.0462  -12.3882 H   0  0  0  0  0  0  0  0  0  0  0  0
   38.5001   14.5285  -12.6855 C   0  0  0  0  0  0  0  0  0  0  0  0
   39.6912   14.6453  -13.5772 C   0  0  0  0  0  0  0  0  0  0  0  0
   39.6163   15.1414  -14.7290 O   0  0  0  0  0  0  0  0  0  0  0  0
   40.9457   14.2093  -13.1739 O   0  0  0  0  0  0  0  0  0  0  0  0
   41.1107   13.3434  -12.6817 H   0  0  0  0  0  0  0  0  0  0  0  0
   37.3231   13.9336  -13.4158 C   0  0  0  0  0  0  0  0  0  0  0  0
   37.4108   12.4280  -13.4999 C   0  0  0  0  0  0  0  0  0  0  0  0
   37.4908   11.9582  -14.9053 C   0  0  0  0  0  0  0  0  0  0  0  0
   38.7085   11.7407  -15.5376 C   0  0  0  0  0  0  0  0  0  0  0  0
   38.8171   11.3079  -16.8407 C   0  0  0  0  0  0  0  0  0  0  0  0
   37.6715   11.0717  -17.5753 C   0  0  0  0  0  0  0  0  0  0  0  0
   36.4340   11.2802  -16.9705 C   0  0  0  0  0  0  0  0  0  0  0  0
   36.3630   11.7129  -15.6668 C   0  0  0  0  0  0  0  0  0  0  0  0
  1  2  1  0  0  0
  2 19  1  0  0  0
 19 21  1  0  0  0
 21 26  1  0  0  0
 26 27  1  0  0  0
 27 28  1  0  0  0
 28 29  2  0  0  0
 29 30  1  0  0  0
 30 31  2  0  0  0
 31 32  1  0  0  0
 32 33  2  0  0  0
 21 22  1  0  0  0
 22 23  2  0  0  0
 22 24  1  0  0  0
  2  3  1  0  0  0
  3  4  2  0  0  0
  3  5  1  0  0  0
  5  6  1  0  0  0
  6  7  1  0  0  0
  7  8  2  0  0  0
  8  9  1  0  0  0
  9 10  2  0  0  0
 10 11  1  0  0  0
 11 12  2  0  0  0
 12 13  1  0  0  0
 13 14  1  0  0  0
 14 15  1  0  0  0
 15 16  2  0  0  0
 15 17  1  0  0  0
 33 28  1  0  0  0
 14  5  1  0  0  0
 12  7  1  0  0  0
 19 20  1  0  0  0
 24 25  1  0  0  0
 17 18  1  0  0  0
M  END
> <minimizedAffinity>
-7.60913

> <CNNscore>
0.1957440823

> <CNNaffinity>
5.3514022827

> <CNN_VS>
1.0475053787

> <CNNaffinity_variance>
0.2022810876

$$$$
[H]OC(=O)[C@@]1([H])N(C(=O)[C@@]([H])(N([H])[C@]([H])(C(=O)O[H])C([H])([H])C([H])([H])c2c([H])c([H])c([H])c([H])c2[H])C([H])([H])[H])C([H])([H])c2c([H])c([H])c([H])c([H])c2C1([H])[H]


 33 35  0  0  0  0  0  0  0  0999 V2000
   38.1635   14.7301   -8.5537 C   0  0  0  0  0  0  0  0  0  0  0  0
   38.5690   14.6659   -7.0726 C   0  0  0  0  0  0  0  0  0  0  0  0
   37.4749   13.9891   -6.3707 C   0  0  0  0  0  0  0  0  0  0  0  0
   37.2239   12.7897   -6.7414 O   0  0  0  0  0  0  0  0  0  0  0  0
   36.6734   14.5163   -5.3359 N   0  0  0  0  0  0  0  0  0  0  0  0
   35.5900   13.6563   -4.8052 C   0  0  0  0  0  0  0  0  0  0  0  0
   34.3017   14.4083   -5.0398 C   0  0  0  0  0  0  0  0  0  0  0  0
   33.1893   13.8512   -5.6109 C   0  0  0  0  0  0  0  0  0  0  0  0
   32.0489   14.6443   -5.8177 C   0  0  0  0  0  0  0  0  0  0  0  0
   32.0942   15.9675   -5.4336 C   0  0  0  0  0  0  0  0  0  0  0  0
   33.2482   16.5076   -4.8510 C   0  0  0  0  0  0  0  0  0  0  0  0
   34.3703   15.7380   -4.6438 C   0  0  0  0  0  0  0  0  0  0  0  0
   35.5901   16.2314   -4.0072 C   0  0  0  0  0  0  0  0  0  0  0  0
   36.8224   15.8161   -4.7451 C   0  0  0  0  0  0  0  0  0  0  0  0
   38.0219   15.8773   -3.8598 C   0  0  0  0  0  0  0  0  0  0  0  0
   38.4676   14.8313   -3.3617 O   0  0  0  0  0  0  0  0  0  0  0  0
   38.6100   17.0840   -3.6127 O   0  0  0  0  0  0  0  0  0  0  0  0
   39.0367   17.5684   -4.4006 H   0  0  0  0  0  0  0  0  0  0  0  0
   39.7975   13.8791   -7.0671 N   0  0  0  0  0  0  0  0  0  0  0  0
   39.5159   12.9048   -6.7879 H   0  0  0  0  0  0  0  0  0  0  0  0
   40.6646   14.3796   -6.0258 C   0  0  0  0  0  0  0  0  0  0  0  0
   41.0616   15.7949   -6.2841 C   0  0  0  0  0  0  0  0  0  0  0  0
   41.0002   16.6784   -5.3930 O   0  0  0  0  0  0  0  0  0  0  0  0
   41.5205   16.2048   -7.5282 O   0  0  0  0  0  0  0  0  0  0  0  0
   41.1085   15.9179   -8.4042 H   0  0  0  0  0  0  0  0  0  0  0  0
   41.8710   13.4990   -5.8217 C   0  0  0  0  0  0  0  0  0  0  0  0
   41.4856   12.0614   -5.5636 C   0  0  0  0  0  0  0  0  0  0  0  0
   42.6150   11.2806   -5.0002 C   0  0  0  0  0  0  0  0  0  0  0  0
   43.7494   11.8974   -4.4877 C   0  0  0  0  0  0  0  0  0  0  0  0
   44.8152   11.2022   -3.9608 C   0  0  0  0  0  0  0  0  0  0  0  0
   44.7767    9.8218   -3.9298 C   0  0  0  0  0  0  0  0  0  0  0  0
   43.6531    9.1723   -4.4360 C   0  0  0  0  0  0  0  0  0  0  0  0
   42.6067    9.8987   -4.9549 C   0  0  0  0  0  0  0  0  0  0  0  0
  1  2  1  0  0  0
  2 19  1  0  0  0
 19 21  1  0  0  0
 21 26  1  0  0  0
 26 27  1  0  0  0
 27 28  1  0  0  0
 28 29  2  0  0  0
 29 30  1  0  0  0
 30 31  2  0  0  0
 31 32  1  0  0  0
 32 33  2  0  0  0
 21 22  1  0  0  0
 22 23  2  0  0  0
 22 24  1  0  0  0
  2  3  1  0  0  0
  3  4  2  0  0  0
  3  5  1  0  0  0
  5  6  1  0  0  0
  6  7  1  0  0  0
  7  8  2  0  0  0
  8  9  1  0  0  0
  9 10  2  0  0  0
 10 11  1  0  0  0
 11 12  2  0  0  0
 12 13  1  0  0  0
 13 14  1  0  0  0
 14 15  1  0  0  0
 15 16  2  0  0  0
 15 17  1  0  0  0
 33 28  1  0  0  0
 14  5  1  0  0  0
 12  7  1  0  0  0
 19 20  1  0  0  0
 24 25  1  0  0  0
 17 18  1  0  0  0
M  END
> <minimizedAffinity>
-5.66418

> <CNNscore>
0.1902573556

> <CNNaffinity>
4.1336154938

> <CNN_VS>
0.7864507437

> <CNNaffinity_variance>
0.5348283052

$$$$
[H]OC(=O)[C@@]1([H])N(C(=O)[C@@]([H])(N([H])[C@]([H])(C(=O)O[H])C([H])([H])C([H])([H])c2c([H])c([H])c([H])c([H])c2[H])C([H])([H])[H])C([H])([H])c2c([H])c([H])c([H])c([H])c2C1([H])[H]


 33 35  0  0  0  0  0  0  0  0999 V2000
   34.3870   15.0044  -12.1088 C   0  0  0  0  0  0  0  0  0  0  0  0
   35.4884   15.9148  -11.5426 C   0  0  0  0  0  0  0  0  0  0  0  0
   36.1236   15.1702  -10.4518 C   0  0  0  0  0  0  0  0  0  0  0  0
   36.1436   13.8961  -10.5757 O   0  0  0  0  0  0  0  0  0  0  0  0
   36.7119   15.7056   -9.2863 N   0  0  0  0  0  0  0  0  0  0  0  0
   37.2562   14.7491   -8.2944 C   0  0  0  0  0  0  0  0  0  0  0  0
   36.5018   14.9982   -7.0104 C   0  0  0  0  0  0  0  0  0  0  0  0
   35.9295   14.0065   -6.2600 C   0  0  0  0  0  0  0  0  0  0  0  0
   35.2185   14.3440   -5.0969 C   0  0  0  0  0  0  0  0  0  0  0  0
   35.1233   15.6753   -4.7520 C   0  0  0  0  0  0  0  0  0  0  0  0
   35.7210   16.6668   -5.5410 C   0  0  0  0  0  0  0  0  0  0  0  0
   36.4203   16.3455   -6.6822 C   0  0  0  0  0  0  0  0  0  0  0  0
   37.0977   17.3282   -7.5260 C   0  0  0  0  0  0  0  0  0  0  0  0
   36.8361   17.1027   -8.9807 C   0  0  0  0  0  0  0  0  0  0  0  0
   37.8851   17.7522   -9.8196 C   0  0  0  0  0  0  0  0  0  0  0  0
   39.0079   17.2301   -9.9065 O   0  0  0  0  0  0  0  0  0  0  0  0
   37.5918   18.9108  -10.4789 O   0  0  0  0  0  0  0  0  0  0  0  0
   36.8842   18.8686  -11.2103 H   0  0  0  0  0  0  0  0  0  0  0  0
   36.3949   16.1280  -12.6655 N   0  0  0  0  0  0  0  0  0  0  0  0
   35.7835   16.3353  -13.4959 H   0  0  0  0  0  0  0  0  0  0  0  0
   37.0816   14.8891  -12.9493 C   0  0  0  0  0  0  0  0  0  0  0  0
   38.5627   15.0705  -12.9190 C   0  0  0  0  0  0  0  0  0  0  0  0
   39.2358   15.2395  -13.9662 O   0  0  0  0  0  0  0  0  0  0  0  0
   39.2710   15.0614  -11.7253 O   0  0  0  0  0  0  0  0  0  0  0  0
   39.1039   14.4068  -10.9751 H   0  0  0  0  0  0  0  0  0  0  0  0
   36.6295   14.2765  -14.2504 C   0  0  0  0  0  0  0  0  0  0  0  0
   36.5215   12.7725  -14.1609 C   0  0  0  0  0  0  0  0  0  0  0  0
   37.0762   12.1073  -15.3659 C   0  0  0  0  0  0  0  0  0  0  0  0
   38.4439   12.0327  -15.5983 C   0  0  0  0  0  0  0  0  0  0  0  0
   38.9903   11.4254  -16.7072 C   0  0  0  0  0  0  0  0  0  0  0  0
   38.1564   10.8551  -17.6490 C   0  0  0  0  0  0  0  0  0  0  0  0
   36.7794   10.9127  -17.4459 C   0  0  0  0  0  0  0  0  0  0  0  0
   36.2683   11.5273  -16.3266 C   0  0  0  0  0  0  0  0  0  0  0  0
  1  2  1  0  0  0
  2 19  1  0  0  0
 19 21  1  0  0  0
 21 26  1  0  0  0
 26 27  1  0  0  0
 27 28  1  0  0  0
 28 29  2  0  0  0
 29 30  1  0  0  0
 30 31  2  0  0  0
 31 32  1  0  0  0
 32 33  2  0  0  0
 21 22  1  0  0  0
 22 23  2  0  0  0
 22 24  1  0  0  0
  2  3  1  0  0  0
  3  4  2  0  0  0
  3  5  1  0  0  0
  5  6  1  0  0  0
  6  7  1  0  0  0
  7  8  2  0  0  0
  8  9  1  0  0  0
  9 10  2  0  0  0
 10 11  1  0  0  0
 11 12  2  0  0  0
 12 13  1  0  0  0
 13 14  1  0  0  0
 14 15  1  0  0  0
 15 16  2  0  0  0
 15 17  1  0  0  0
 33 28  1  0  0  0
 14  5  1  0  0  0
 12  7  1  0  0  0
 19 20  1  0  0  0
 24 25  1  0  0  0
 17 18  1  0  0  0
M  END
> <minimizedAffinity>
-8.61950

> <CNNscore>
0.1813965887

> <CNNaffinity>
5.1849236488

> <CNN_VS>
0.9405274391

> <CNNaffinity_variance>
0.3074838817

$$$$
[H]OC(=O)[C@@]1([H])N(C(=O)[C@@]([H])(N([H])[C@]([H])(C(=O)O[H])C([H])([H])C([H])([H])c2c([H])c([H])c([H])c([H])c2[H])C([H])([H])[H])C([H])([H])c2c([H])c([H])c([H])c([H])c2C1([H])[H]


 33 35  0  0  0  0  0  0  0  0999 V2000
   36.0622   14.1752  -11.2222 C   0  0  0  0  0  0  0  0  0  0  0  0
   35.8706   15.6818  -11.4575 C   0  0  0  0  0  0  0  0  0  0  0  0
   36.5812   16.3659  -10.3735 C   0  0  0  0  0  0  0  0  0  0  0  0
   37.4979   17.1856  -10.7295 O   0  0  0  0  0  0  0  0  0  0  0  0
   36.3634   16.2176   -8.9872 N   0  0  0  0  0  0  0  0  0  0  0  0
   37.2403   16.9845   -8.0719 C   0  0  0  0  0  0  0  0  0  0  0  0
   37.9496   15.9642   -7.2141 C   0  0  0  0  0  0  0  0  0  0  0  0
   39.3012   15.9608   -6.9971 C   0  0  0  0  0  0  0  0  0  0  0  0
   39.8713   14.9476   -6.2094 C   0  0  0  0  0  0  0  0  0  0  0  0
   39.0389   13.9849   -5.6795 C   0  0  0  0  0  0  0  0  0  0  0  0
   37.6590   14.0166   -5.9197 C   0  0  0  0  0  0  0  0  0  0  0  0
   37.0912   15.0060   -6.6898 C   0  0  0  0  0  0  0  0  0  0  0  0
   35.6563   15.1162   -6.9458 C   0  0  0  0  0  0  0  0  0  0  0  0
   35.3566   15.3904   -8.3847 C   0  0  0  0  0  0  0  0  0  0  0  0
   33.9973   15.9843   -8.5441 C   0  0  0  0  0  0  0  0  0  0  0  0
   33.6709   16.9590   -7.8481 O   0  0  0  0  0  0  0  0  0  0  0  0
   33.1344   15.4455   -9.4541 O   0  0  0  0  0  0  0  0  0  0  0  0
   33.3912   15.5066  -10.4379 H   0  0  0  0  0  0  0  0  0  0  0  0
   36.4836   15.9261  -12.7586 N   0  0  0  0  0  0  0  0  0  0  0  0
   35.6876   16.0429  -13.4362 H   0  0  0  0  0  0  0  0  0  0  0  0
   37.2064   14.7419  -13.1608 C   0  0  0  0  0  0  0  0  0  0  0  0
   38.6764   14.9945  -13.2114 C   0  0  0  0  0  0  0  0  0  0  0  0
   39.2999   15.0907  -14.2977 O   0  0  0  0  0  0  0  0  0  0  0  0
   39.4290   15.1363  -12.0537 O   0  0  0  0  0  0  0  0  0  0  0  0
   39.3239   14.5518  -11.2373 H   0  0  0  0  0  0  0  0  0  0  0  0
   36.6992   14.1853  -14.4668 C   0  0  0  0  0  0  0  0  0  0  0  0
   36.5122   12.6875  -14.4097 C   0  0  0  0  0  0  0  0  0  0  0  0
   37.0903   12.0141  -15.5990 C   0  0  0  0  0  0  0  0  0  0  0  0
   38.4612   11.9613  -15.8178 C   0  0  0  0  0  0  0  0  0  0  0  0
   39.0291   11.3471  -16.9121 C   0  0  0  0  0  0  0  0  0  0  0  0
   38.2146   10.7467  -17.8523 C   0  0  0  0  0  0  0  0  0  0  0  0
   36.8350   10.7819  -17.6625 C   0  0  0  0  0  0  0  0  0  0  0  0
   36.3022   11.4043  -16.5577 C   0  0  0  0  0  0  0  0  0  0  0  0
  1  2  1  0  0  0
  2 19  1  0  0  0
 19 21  1  0  0  0
 21 26  1  0  0  0
 26 27  1  0  0  0
 27 28  1  0  0  0
 28 29  2  0  0  0
 29 30  1  0  0  0
 30 31  2  0  0  0
 31 32  1  0  0  0
 32 33  2  0  0  0
 21 22  1  0  0  0
 22 23  2  0  0  0
 22 24  1  0  0  0
  2  3  1  0  0  0
  3  4  2  0  0  0
  3  5  1  0  0  0
  5  6  1  0  0  0
  6  7  1  0  0  0
  7  8  2  0  0  0
  8  9  1  0  0  0
  9 10  2  0  0  0
 10 11  1  0  0  0
 11 12  2  0  0  0
 12 13  1  0  0  0
 13 14  1  0  0  0
 14 15  1  0  0  0
 15 16  2  0  0  0
 15 17  1  0  0  0
 33 28  1  0  0  0
 14  5  1  0  0  0
 12  7  1  0  0  0
 19 20  1  0  0  0
 24 25  1  0  0  0
 17 18  1  0  0  0
M  END
> <minimizedAffinity>
-8.04097

> <CNNscore>
0.1686620861

> <CNNaffinity>
5.1919736862

> <CNN_VS>
0.8756890893

> <CNNaffinity_variance>
0.3719989657

$$$$
[H]OC(=O)[C@@]1([H])N(C(=O)[C@@]([H])(N([H])[C@]([H])(C(=O)O[H])C([H])([H])C([H])([H])c2c([H])c([H])c([H])c([H])c2[H])C([H])([H])[H])C([H])([H])c2c([H])c([H])c([H])c([H])c2C1([H])[H]


 33 35  0  0  0  0  0  0  0  0999 V2000
   35.8569   16.0737  -11.6758 C   0  0  0  0  0  0  0  0  0  0  0  0
   36.5858   14.8693  -11.0593 C   0  0  0  0  0  0  0  0  0  0  0  0
   36.6014   15.0895   -9.6104 C   0  0  0  0  0  0  0  0  0  0  0  0
   36.0790   14.1658   -8.8942 O   0  0  0  0  0  0  0  0  0  0  0  0
   37.1279   16.2050   -8.9253 N   0  0  0  0  0  0  0  0  0  0  0  0
   36.9892   16.2290   -7.4505 C   0  0  0  0  0  0  0  0  0  0  0  0
   36.1904   17.4676   -7.1222 C   0  0  0  0  0  0  0  0  0  0  0  0
   35.1052   17.4736   -6.2878 C   0  0  0  0  0  0  0  0  0  0  0  0
   34.4070   18.6728   -6.0720 C   0  0  0  0  0  0  0  0  0  0  0  0
   34.8461   19.8100   -6.7158 C   0  0  0  0  0  0  0  0  0  0  0  0
   35.9609   19.7710   -7.5634 C   0  0  0  0  0  0  0  0  0  0  0  0
   36.6519   18.6006   -7.7804 C   0  0  0  0  0  0  0  0  0  0  0  0
   37.8433   18.5021   -8.6215 C   0  0  0  0  0  0  0  0  0  0  0  0
   37.7959   17.3197   -9.5354 C   0  0  0  0  0  0  0  0  0  0  0  0
   39.1641   16.9470   -9.9989 C   0  0  0  0  0  0  0  0  0  0  0  0
   39.3855   16.8255  -11.2143 O   0  0  0  0  0  0  0  0  0  0  0  0
   40.1510   16.7462   -9.0776 O   0  0  0  0  0  0  0  0  0  0  0  0
   40.4437   17.5476   -8.5211 H   0  0  0  0  0  0  0  0  0  0  0  0
   35.7682   13.7205  -11.4334 N   0  0  0  0  0  0  0  0  0  0  0  0
   36.2187   12.8848  -10.9806 H   0  0  0  0  0  0  0  0  0  0  0  0
   35.8655   13.5269  -12.8616 C   0  0  0  0  0  0  0  0  0  0  0  0
   34.5196   13.3280  -13.4751 C   0  0  0  0  0  0  0  0  0  0  0  0
   34.0124   12.1873  -13.6158 O   0  0  0  0  0  0  0  0  0  0  0  0
   33.7596   14.4002  -13.9218 O   0  0  0  0  0  0  0  0  0  0  0  0
   34.1354   15.1812  -14.4396 H   0  0  0  0  0  0  0  0  0  0  0  0
   36.8036   12.4019  -13.2178 C   0  0  0  0  0  0  0  0  0  0  0  0
   37.8722   12.8420  -14.1904 C   0  0  0  0  0  0  0  0  0  0  0  0
   37.8039   12.0840  -15.4645 C   0  0  0  0  0  0  0  0  0  0  0  0
   38.9488   11.6776  -16.1383 C   0  0  0  0  0  0  0  0  0  0  0  0
   38.9198   10.9758  -17.3231 C   0  0  0  0  0  0  0  0  0  0  0  0
   37.7029   10.6486  -17.8886 C   0  0  0  0  0  0  0  0  0  0  0  0
   36.5354   11.0414  -17.2381 C   0  0  0  0  0  0  0  0  0  0  0  0
   36.6018   11.7413  -16.0558 C   0  0  0  0  0  0  0  0  0  0  0  0
  1  2  1  0  0  0
  2 19  1  0  0  0
 19 21  1  0  0  0
 21 26  1  0  0  0
 26 27  1  0  0  0
 27 28  1  0  0  0
 28 29  2  0  0  0
 29 30  1  0  0  0
 30 31  2  0  0  0
 31 32  1  0  0  0
 32 33  2  0  0  0
 21 22  1  0  0  0
 22 23  2  0  0  0
 22 24  1  0  0  0
  2  3  1  0  0  0
  3  4  2  0  0  0
  3  5  1  0  0  0
  5  6  1  0  0  0
  6  7  1  0  0  0
  7  8  2  0  0  0
  8  9  1  0  0  0
  9 10  2  0  0  0
 10 11  1  0  0  0
 11 12  2  0  0  0
 12 13  1  0  0  0
 13 14  1  0  0  0
 14 15  1  0  0  0
 15 16  2  0  0  0
 15 17  1  0  0  0
 33 28  1  0  0  0
 14  5  1  0  0  0
 12  7  1  0  0  0
 19 20  1  0  0  0
 24 25  1  0  0  0
 17 18  1  0  0  0
M  END
> <minimizedAffinity>
-8.63195

> <CNNscore>
0.1412274092

> <CNNaffinity>
4.9855871201

> <CNN_VS>
0.7041015625

> <CNNaffinity_variance>
0.4306810498

$$$$
[H]OC(=O)[C@@]1([H])N(C(=O)[C@@]([H])(N([H])[C@]([H])(C(=O)O[H])C([H])([H])C([H])([H])c2c([H])c([H])c([H])c([H])c2[H])C([H])([H])[H])C([H])([H])c2c([H])c([H])c([H])c([H])c2C1([H])[H]


 33 35  0  0  0  0  0  0  0  0999 V2000
   35.6615   16.1363  -12.2061 C   0  0  0  0  0  0  0  0  0  0  0  0
   37.0698   15.5264  -12.2893 C   0  0  0  0  0  0  0  0  0  0  0  0
   37.3431   14.9302  -10.9786 C   0  0  0  0  0  0  0  0  0  0  0  0
   36.6527   13.8957  -10.6749 O   0  0  0  0  0  0  0  0  0  0  0  0
   38.2808   15.3730  -10.0217 N   0  0  0  0  0  0  0  0  0  0  0  0
   38.3503   14.6332   -8.7400 C   0  0  0  0  0  0  0  0  0  0  0  0
   38.0356   15.6366   -7.6564 C   0  0  0  0  0  0  0  0  0  0  0  0
   37.1268   15.4163   -6.6566 C   0  0  0  0  0  0  0  0  0  0  0  0
   36.8795   16.4271   -5.7136 C   0  0  0  0  0  0  0  0  0  0  0  0
   37.5688   17.6150   -5.8324 C   0  0  0  0  0  0  0  0  0  0  0  0
   38.4932   17.8093   -6.8670 C   0  0  0  0  0  0  0  0  0  0  0  0
   38.7427   16.8243   -7.7954 C   0  0  0  0  0  0  0  0  0  0  0  0
   39.7210   16.9507   -8.8741 C   0  0  0  0  0  0  0  0  0  0  0  0
   39.1823   16.4780  -10.1863 C   0  0  0  0  0  0  0  0  0  0  0  0
   40.2890   16.1418  -11.1287 C   0  0  0  0  0  0  0  0  0  0  0  0
   40.3679   16.7365  -12.2155 O   0  0  0  0  0  0  0  0  0  0  0  0
   41.1977   15.1852  -10.7794 O   0  0  0  0  0  0  0  0  0  0  0  0
   41.7971   15.3773   -9.9785 H   0  0  0  0  0  0  0  0  0  0  0  0
   36.9676   14.5211  -13.3415 N   0  0  0  0  0  0  0  0  0  0  0  0
   36.1091   13.9556  -13.1192 H   0  0  0  0  0  0  0  0  0  0  0  0
   38.0972   13.6264  -13.2399 C   0  0  0  0  0  0  0  0  0  0  0  0
   39.2976   14.1878  -13.9263 C   0  0  0  0  0  0  0  0  0  0  0  0
   40.4293   13.6495  -13.8383 O   0  0  0  0  0  0  0  0  0  0  0  0
   39.2202   15.3380  -14.6995 O   0  0  0  0  0  0  0  0  0  0  0  0
   38.7001   16.1618  -14.4347 H   0  0  0  0  0  0  0  0  0  0  0  0
   37.7715   12.2439  -13.7453 C   0  0  0  0  0  0  0  0  0  0  0  0
   36.8207   12.2791  -14.9184 C   0  0  0  0  0  0  0  0  0  0  0  0
   37.4424   11.7289  -16.1485 C   0  0  0  0  0  0  0  0  0  0  0  0
   38.8052   11.8402  -16.3943 C   0  0  0  0  0  0  0  0  0  0  0  0
   39.4124   11.3434  -17.5264 C   0  0  0  0  0  0  0  0  0  0  0  0
   38.6481   10.6983  -18.4790 C   0  0  0  0  0  0  0  0  0  0  0  0
   37.2780   10.5698  -18.2630 C   0  0  0  0  0  0  0  0  0  0  0  0
   36.7050   11.0782  -17.1205 C   0  0  0  0  0  0  0  0  0  0  0  0
  1  2  1  0  0  0
  2 19  1  0  0  0
 19 21  1  0  0  0
 21 26  1  0  0  0
 26 27  1  0  0  0
 27 28  1  0  0  0
 28 29  2  0  0  0
 29 30  1  0  0  0
 30 31  2  0  0  0
 31 32  1  0  0  0
 32 33  2  0  0  0
 21 22  1  0  0  0
 22 23  2  0  0  0
 22 24  1  0  0  0
  2  3  1  0  0  0
  3  4  2  0  0  0
  3  5  1  0  0  0
  5  6  1  0  0  0
  6  7  1  0  0  0
  7  8  2  0  0  0
  8  9  1  0  0  0
  9 10  2  0  0  0
 10 11  1  0  0  0
 11 12  2  0  0  0
 12 13  1  0  0  0
 13 14  1  0  0  0
 14 15  1  0  0  0
 15 16  2  0  0  0
 15 17  1  0  0  0
 33 28  1  0  0  0
 14  5  1  0  0  0
 12  7  1  0  0  0
 19 20  1  0  0  0
 24 25  1  0  0  0
 17 18  1  0  0  0
M  END
> <minimizedAffinity>
-7.28922

> <CNNscore>
0.1209568456

> <CNNaffinity>
5.0233888626

> <CNN_VS>
0.6076132655

> <CNNaffinity_variance>
0.2808344960

$$$$
[H]OC(=O)[C@@]1([H])N(C(=O)[C@@]([H])(N([H])[C@]([H])(C(=O)O[H])C([H])([H])C([H])([H])c2c([H])c([H])c([H])c([H])c2[H])C([H])([H])[H])C([H])([H])c2c([H])c([H])c([H])c([H])c2C1([H])[H]


 33 35  0  0  0  0  0  0  0  0999 V2000
   34.4195   15.7558  -10.3037 C   0  0  0  0  0  0  0  0  0  0  0  0
   35.7026   15.4578  -11.0956 C   0  0  0  0  0  0  0  0  0  0  0  0
   36.7712   16.2378  -10.4650 C   0  0  0  0  0  0  0  0  0  0  0  0
   37.1037   17.3219  -11.0594 O   0  0  0  0  0  0  0  0  0  0  0  0
   37.4683   15.9225   -9.2794 N   0  0  0  0  0  0  0  0  0  0  0  0
   38.5474   16.8448   -8.8553 C   0  0  0  0  0  0  0  0  0  0  0  0
   39.8138   16.0233   -8.8181 C   0  0  0  0  0  0  0  0  0  0  0  0
   40.9900   16.4125   -9.4003 C   0  0  0  0  0  0  0  0  0  0  0  0
   42.1052   15.5610   -9.3395 C   0  0  0  0  0  0  0  0  0  0  0  0
   41.9708   14.3531   -8.6888 C   0  0  0  0  0  0  0  0  0  0  0  0
   40.7531   13.9841   -8.1024 C   0  0  0  0  0  0  0  0  0  0  0  0
   39.6551   14.8123   -8.1563 C   0  0  0  0  0  0  0  0  0  0  0  0
   38.3699   14.5024   -7.5327 C   0  0  0  0  0  0  0  0  0  0  0  0
   37.2163   14.7848   -8.4410 C   0  0  0  0  0  0  0  0  0  0  0  0
   35.9527   14.9497   -7.6651 C   0  0  0  0  0  0  0  0  0  0  0  0
   35.1324   14.0187   -7.6282 O   0  0  0  0  0  0  0  0  0  0  0  0
   35.7198   16.1229   -7.0074 O   0  0  0  0  0  0  0  0  0  0  0  0
   36.3457   16.3633   -6.2405 H   0  0  0  0  0  0  0  0  0  0  0  0
   35.9012   14.0214  -10.9363 N   0  0  0  0  0  0  0  0  0  0  0  0
   36.8320   13.9090  -10.4595 H   0  0  0  0  0  0  0  0  0  0  0  0
   36.0253   13.4221  -12.2448 C   0  0  0  0  0  0  0  0  0  0  0  0
   37.4532   13.3412  -12.6713 C   0  0  0  0  0  0  0  0  0  0  0  0
   38.2252   14.3303  -12.6093 O   0  0  0  0  0  0  0  0  0  0  0  0
   37.9995   12.1622  -13.1593 O   0  0  0  0  0  0  0  0  0  0  0  0
   37.5299   11.5497  -13.8102 H   0  0  0  0  0  0  0  0  0  0  0  0
   35.1835   14.1317  -13.2747 C   0  0  0  0  0  0  0  0  0  0  0  0
   35.7451   13.9783  -14.6685 C   0  0  0  0  0  0  0  0  0  0  0  0
   35.2649   12.7357  -15.3225 C   0  0  0  0  0  0  0  0  0  0  0  0
   36.0614   12.0166  -16.2049 C   0  0  0  0  0  0  0  0  0  0  0  0
   35.6450   10.8622  -16.8302 C   0  0  0  0  0  0  0  0  0  0  0  0
   34.3760   10.3760  -16.5830 C   0  0  0  0  0  0  0  0  0  0  0  0
   33.5519   11.0737  -15.7029 C   0  0  0  0  0  0  0  0  0  0  0  0
   34.0007   12.2235  -15.0959 C   0  0  0  0  0  0  0  0  0  0  0  0
  1  2  1  0  0  0
  2 19  1  0  0  0
 19 21  1  0  0  0
 21 26  1  0  0  0
 26 27  1  0  0  0
 27 28  1  0  0  0
 28 29  2  0  0  0
 29 30  1  0  0  0
 30 31  2  0  0  0
 31 32  1  0  0  0
 32 33  2  0  0  0
 21 22  1  0  0  0
 22 23  2  0  0  0
 22 24  1  0  0  0
  2  3  1  0  0  0
  3  4  2  0  0  0
  3  5  1  0  0  0
  5  6  1  0  0  0
  6  7  1  0  0  0
  7  8  2  0  0  0
  8  9  1  0  0  0
  9 10  2  0  0  0
 10 11  1  0  0  0
 11 12  2  0  0  0
 12 13  1  0  0  0
 13 14  1  0  0  0
 14 15  1  0  0  0
 15 16  2  0  0  0
 15 17  1  0  0  0
 33 28  1  0  0  0
 14  5  1  0  0  0
 12  7  1  0  0  0
 19 20  1  0  0  0
 24 25  1  0  0  0
 17 18  1  0  0  0
M  END
> <minimizedAffinity>
-7.40909

> <CNNscore>
0.1080571115

> <CNNaffinity>
5.1031422615

> <CNN_VS>
0.5514308214

> <CNNaffinity_variance>
0.2996577322

$$$$
[H]OC(=O)[C@@]1([H])N(c2nc(C#N)nc([H])c2[H])C([H])([H])[C@@]([H])(S(=O)(=O)c2c([H])c([H])c([H])c([H])c2C(F)(F)F)C1([H])[H]


 30 32  0  0  0  0  0  0  0  0999 V2000
   41.0338   12.5912  -16.1371 N   0  0  0  0  0  0  0  0  0  0  0  0
   40.0292   13.1904  -15.2851 C   0  0  0  0  0  0  0  0  0  0  0  0
   39.0327   12.0036  -15.1728 C   0  0  0  0  0  0  0  0  0  0  0  0
   38.9205   11.6244  -16.5906 C   0  0  0  0  0  0  0  0  0  0  0  0
   40.3393   11.8582  -17.1444 C   0  0  0  0  0  0  0  0  0  0  0  0
   44.2772   13.7047  -14.8538 C   0  0  0  0  0  0  0  0  0  0  0  0
   45.1432   13.0156  -15.6178 N   0  0  0  0  0  0  0  0  0  0  0  0
   44.7138   12.1611  -16.5811 C   0  0  0  0  0  0  0  0  0  0  0  0
   43.3470   12.0440  -16.7268 C   0  0  0  0  0  0  0  0  0  0  0  0
   42.4353   12.7372  -15.9586 C   0  0  0  0  0  0  0  0  0  0  0  0
   42.9498   13.5659  -15.0235 N   0  0  0  0  0  0  0  0  0  0  0  0
   45.2009   15.3218  -13.0293 N   0  0  0  0  0  0  0  0  0  0  0  0
   44.7919   14.5928  -13.8520 C   0  0  0  0  0  0  0  0  0  0  0  0
   40.2813   12.5405  -18.4454 C   0  0  0  0  0  0  0  0  0  0  0  0
   40.1082   11.8775  -19.4876 O   0  0  0  0  0  0  0  0  0  0  0  0
   40.4162   13.9088  -18.5275 O   0  0  0  0  0  0  0  0  0  0  0  0
   41.0934   14.3749  -19.1257 H   0  0  0  0  0  0  0  0  0  0  0  0
   37.5019   12.6502  -14.4574 S   0  0  0  0  0  0  0  0  0  0  0  0
   37.5212   12.1623  -13.0386 O   0  0  0  0  0  0  0  0  0  0  0  0
   37.6734   14.1271  -14.5348 O   0  0  0  0  0  0  0  0  0  0  0  0
   36.1267   12.0201  -15.3007 C   0  0  0  0  0  0  0  0  0  0  0  0
   36.3608   11.1982  -16.3674 C   0  0  0  0  0  0  0  0  0  0  0  0
   35.2950   10.6571  -17.0529 C   0  0  0  0  0  0  0  0  0  0  0  0
   33.9999   10.9236  -16.6894 C   0  0  0  0  0  0  0  0  0  0  0  0
   33.8073   11.7525  -15.6133 C   0  0  0  0  0  0  0  0  0  0  0  0
   34.8552   12.3301  -14.8809 C   0  0  0  0  0  0  0  0  0  0  0  0
   34.5356   13.2021  -13.7508 C   0  0  0  0  0  0  0  0  0  0  0  0
   34.9350   14.5132  -13.8722 F   0  0  0  0  0  0  0  0  0  0  0  0
   34.8550   12.6691  -12.5183 F   0  0  0  0  0  0  0  0  0  0  0  0
   33.1352   13.3063  -13.6871 F   0  0  0  0  0  0  0  0  0  0  0  0
 12 13  3  0  0  0
 13  6  1  0  0  0
  6  7  2  0  0  0
  7  8  1  0  0  0
  8  9  2  0  0  0
  9 10  1  0  0  0
 10  1  1  0  0  0
  1  2  1  0  0  0
  2  3  1  0  0  0
  3 18  1  0  0  0
 18 19  2  0  0  0
 18 20  2  0  0  0
 18 21  1  0  0  0
 21 22  2  0  0  0
 22 23  1  0  0  0
 23 24  2  0  0  0
 24 25  1  0  0  0
 25 26  2  0  0  0
 26 27  1  0  0  0
 27 28  1  0  0  0
 27 29  1  0  0  0
 27 30  1  0  0  0
  3  4  1  0  0  0
  4  5  1  0  0  0
  5 14  1  0  0  0
 14 15  2  0  0  0
 14 16  1  0  0  0
 10 11  2  0  0  0
 11  6  1  0  0  0
  5  1  1  0  0  0
 26 21  1  0  0  0
 16 17  1  0  0  0
M  END
> <minimizedAffinity>
-9.03157

> <CNNscore>
0.3796090782

> <CNNaffinity>
6.3265681267

> <CNN_VS>
2.4016227722

> <CNNaffinity_variance>
0.1405216157

$$$$
[H]OC(=O)[C@@]1([H])N(c2nc(C#N)nc([H])c2[H])C([H])([H])[C@@]([H])(S(=O)(=O)c2c([H])c([H])c([H])c([H])c2C(F)(F)F)C1([H])[H]


 30 32  0  0  0  0  0  0  0  0999 V2000
   36.3647   14.3496  -12.6562 N   0  0  0  0  0  0  0  0  0  0  0  0
   35.9773   13.9615  -13.9954 C   0  0  0  0  0  0  0  0  0  0  0  0
   36.7421   12.6143  -14.1142 C   0  0  0  0  0  0  0  0  0  0  0  0
   38.0696   13.0264  -13.6301 C   0  0  0  0  0  0  0  0  0  0  0  0
   37.7529   14.0505  -12.5233 C   0  0  0  0  0  0  0  0  0  0  0  0
   33.3205   15.5129  -10.9870 C   0  0  0  0  0  0  0  0  0  0  0  0
   33.7961   16.0138   -9.8331 N   0  0  0  0  0  0  0  0  0  0  0  0
   35.1228   15.9963   -9.5464 C   0  0  0  0  0  0  0  0  0  0  0  0
   35.9457   15.4381  -10.5026 C   0  0  0  0  0  0  0  0  0  0  0  0
   35.4871   14.9169  -11.6943 C   0  0  0  0  0  0  0  0  0  0  0  0
   34.1525   14.9757  -11.8977 N   0  0  0  0  0  0  0  0  0  0  0  0
   30.7556   15.5982  -11.4463 N   0  0  0  0  0  0  0  0  0  0  0  0
   31.9083   15.5603  -11.2328 C   0  0  0  0  0  0  0  0  0  0  0  0
   38.6297   15.2250  -12.6384 C   0  0  0  0  0  0  0  0  0  0  0  0
   38.8823   15.9132  -11.6293 O   0  0  0  0  0  0  0  0  0  0  0  0
   39.1779   15.5759  -13.8524 O   0  0  0  0  0  0  0  0  0  0  0  0
   39.0903   16.5007  -14.2657 H   0  0  0  0  0  0  0  0  0  0  0  0
   36.7092   12.1268  -15.8562 S   0  0  0  0  0  0  0  0  0  0  0  0
   36.0817   10.7639  -15.8476 O   0  0  0  0  0  0  0  0  0  0  0  0
   35.8194   13.1393  -16.4884 O   0  0  0  0  0  0  0  0  0  0  0  0
   38.3175   12.0540  -16.4944 C   0  0  0  0  0  0  0  0  0  0  0  0
   39.3077   12.6760  -15.7866 C   0  0  0  0  0  0  0  0  0  0  0  0
   40.6053   12.6237  -16.2472 C   0  0  0  0  0  0  0  0  0  0  0  0
   40.9291   11.9599  -17.4026 C   0  0  0  0  0  0  0  0  0  0  0  0
   39.9069   11.3483  -18.0833 C   0  0  0  0  0  0  0  0  0  0  0  0
   38.5697   11.3707  -17.6600 C   0  0  0  0  0  0  0  0  0  0  0  0
   37.5582   10.6860  -18.4650 C   0  0  0  0  0  0  0  0  0  0  0  0
   37.9600   10.2817  -19.7173 F   0  0  0  0  0  0  0  0  0  0  0  0
   36.3313   11.3180  -18.4870 F   0  0  0  0  0  0  0  0  0  0  0  0
   37.2664    9.4703  -17.8224 F   0  0  0  0  0  0  0  0  0  0  0  0
 12 13  3  0  0  0
 13  6  1  0  0  0
  6  7  2  0  0  0
  7  8  1  0  0  0
  8  9  2  0  0  0
  9 10  1  0  0  0
 10  1  1  0  0  0
  1  2  1  0  0  0
  2  3  1  0  0  0
  3 18  1  0  0  0
 18 19  2  0  0  0
 18 20  2  0  0  0
 18 21  1  0  0  0
 21 22  2  0  0  0
 22 23  1  0  0  0
 23 24  2  0  0  0
 24 25  1  0  0  0
 25 26  2  0  0  0
 26 27  1  0  0  0
 27 28  1  0  0  0
 27 29  1  0  0  0
 27 30  1  0  0  0
  3  4  1  0  0  0
  4  5  1  0  0  0
  5 14  1  0  0  0
 14 15  2  0  0  0
 14 16  1  0  0  0
 10 11  2  0  0  0
 11  6  1  0  0  0
  5  1  1  0  0  0
 26 21  1  0  0  0
 16 17  1  0  0  0
M  END
> <minimizedAffinity>
-8.04647

> <CNNscore>
0.2239502221

> <CNNaffinity>
6.0888199806

> <CNN_VS>
1.3635926247

> <CNNaffinity_variance>
0.1982139796

$$$$
[H]OC(=O)[C@@]1([H])N(c2nc(C#N)nc([H])c2[H])C([H])([H])[C@@]([H])(S(=O)(=O)c2c([H])c([H])c([H])c([H])c2C(F)(F)F)C1([H])[H]


 30 32  0  0  0  0  0  0  0  0999 V2000
   41.4967   13.5645  -14.9704 N   0  0  0  0  0  0  0  0  0  0  0  0
   42.8486   14.0499  -15.1468 C   0  0  0  0  0  0  0  0  0  0  0  0
   43.4259   13.7494  -13.7360 C   0  0  0  0  0  0  0  0  0  0  0  0
   42.3566   14.3092  -12.8937 C   0  0  0  0  0  0  0  0  0  0  0  0
   41.0691   13.9897  -13.6778 C   0  0  0  0  0  0  0  0  0  0  0  0
   38.7813   11.8176  -16.6972 C   0  0  0  0  0  0  0  0  0  0  0  0
   39.3920   11.3528  -17.8015 N   0  0  0  0  0  0  0  0  0  0  0  0
   40.7090   11.5851  -18.0340 C   0  0  0  0  0  0  0  0  0  0  0  0
   41.3765   12.3207  -17.0767 C   0  0  0  0  0  0  0  0  0  0  0  0
   40.7772   12.8102  -15.9351 C   0  0  0  0  0  0  0  0  0  0  0  0
   39.4635   12.5321  -15.7838 N   0  0  0  0  0  0  0  0  0  0  0  0
   36.2467   11.3207  -16.3430 N   0  0  0  0  0  0  0  0  0  0  0  0
   37.3872   11.5394  -16.5073 C   0  0  0  0  0  0  0  0  0  0  0  0
   40.1734   15.1553  -13.6994 C   0  0  0  0  0  0  0  0  0  0  0  0
   40.4906   16.1941  -13.0863 O   0  0  0  0  0  0  0  0  0  0  0  0
   38.9832   15.1137  -14.3915 O   0  0  0  0  0  0  0  0  0  0  0  0
   38.0811   15.3349  -13.9779 H   0  0  0  0  0  0  0  0  0  0  0  0
   45.0053   14.6217  -13.6022 S   0  0  0  0  0  0  0  0  0  0  0  0
   45.1577   15.3165  -14.9233 O   0  0  0  0  0  0  0  0  0  0  0  0
   44.7802   15.5893  -12.4933 O   0  0  0  0  0  0  0  0  0  0  0  0
   46.2981   13.4970  -13.3514 C   0  0  0  0  0  0  0  0  0  0  0  0
   47.2671   13.4225  -14.3125 C   0  0  0  0  0  0  0  0  0  0  0  0
   48.3255   12.5569  -14.1422 C   0  0  0  0  0  0  0  0  0  0  0  0
   48.4314   11.7654  -13.0273 C   0  0  0  0  0  0  0  0  0  0  0  0
   47.4388   11.8702  -12.0860 C   0  0  0  0  0  0  0  0  0  0  0  0
   46.3401   12.7337  -12.2091 C   0  0  0  0  0  0  0  0  0  0  0  0
   45.3373   12.7637  -11.1446 C   0  0  0  0  0  0  0  0  0  0  0  0
   44.1289   12.1761  -11.4411 F   0  0  0  0  0  0  0  0  0  0  0  0
   45.1868   13.9978  -10.5452 F   0  0  0  0  0  0  0  0  0  0  0  0
   45.8222   11.9678  -10.0922 F   0  0  0  0  0  0  0  0  0  0  0  0
 12 13  3  0  0  0
 13  6  1  0  0  0
  6  7  2  0  0  0
  7  8  1  0  0  0
  8  9  2  0  0  0
  9 10  1  0  0  0
 10  1  1  0  0  0
  1  2  1  0  0  0
  2  3  1  0  0  0
  3 18  1  0  0  0
 18 19  2  0  0  0
 18 20  2  0  0  0
 18 21  1  0  0  0
 21 22  2  0  0  0
 22 23  1  0  0  0
 23 24  2  0  0  0
 24 25  1  0  0  0
 25 26  2  0  0  0
 26 27  1  0  0  0
 27 28  1  0  0  0
 27 29  1  0  0  0
 27 30  1  0  0  0
  3  4  1  0  0  0
  4  5  1  0  0  0
  5 14  1  0  0  0
 14 15  2  0  0  0
 14 16  1  0  0  0
 10 11  2  0  0  0
 11  6  1  0  0  0
  5  1  1  0  0  0
 26 21  1  0  0  0
 16 17  1  0  0  0
M  END
> <minimizedAffinity>
-6.38773

> <CNNscore>
0.1732210964

> <CNNaffinity>
5.3605527878

> <CNN_VS>
0.9285608530

> <CNNaffinity_variance>
0.1631991118

$$$$
[H]OC(=O)[C@@]1([H])N(c2nc(C#N)nc([H])c2[H])C([H])([H])[C@@]([H])(S(=O)(=O)c2c([H])c([H])c([H])c([H])c2C(F)(F)F)C1([H])[H]


 30 32  0  0  0  0  0  0  0  0999 V2000
   40.2583   14.4298  -13.4089 N   0  0  0  0  0  0  0  0  0  0  0  0
   39.2575   13.4095  -13.6366 C   0  0  0  0  0  0  0  0  0  0  0  0
   38.0912   14.2924  -14.1603 C   0  0  0  0  0  0  0  0  0  0  0  0
   38.0959   15.3573  -13.1442 C   0  0  0  0  0  0  0  0  0  0  0  0
   39.5898   15.5406  -12.8142 C   0  0  0  0  0  0  0  0  0  0  0  0
   43.3544   13.3830  -15.0597 C   0  0  0  0  0  0  0  0  0  0  0  0
   44.2932   14.0476  -14.3629 N   0  0  0  0  0  0  0  0  0  0  0  0
   43.9637   14.8629  -13.3289 C   0  0  0  0  0  0  0  0  0  0  0  0
   42.6190   14.9670  -13.0393 C   0  0  0  0  0  0  0  0  0  0  0  0
   41.6342   14.2983  -13.7357 C   0  0  0  0  0  0  0  0  0  0  0  0
   42.0512   13.5081  -14.7495 N   0  0  0  0  0  0  0  0  0  0  0  0
   44.1120   11.8486  -17.0265 N   0  0  0  0  0  0  0  0  0  0  0  0
   43.7648   12.5361  -16.1419 C   0  0  0  0  0  0  0  0  0  0  0  0
   39.7896   15.6490  -11.3617 C   0  0  0  0  0  0  0  0  0  0  0  0
   40.6160   16.4653  -10.9074 O   0  0  0  0  0  0  0  0  0  0  0  0
   39.0722   14.8567  -10.4930 O   0  0  0  0  0  0  0  0  0  0  0  0
   39.4983   14.2701   -9.7802 H   0  0  0  0  0  0  0  0  0  0  0  0
   36.5972   13.2720  -14.1546 S   0  0  0  0  0  0  0  0  0  0  0  0
   36.6964   12.4772  -12.8858 O   0  0  0  0  0  0  0  0  0  0  0  0
   35.4913   14.2672  -14.0964 O   0  0  0  0  0  0  0  0  0  0  0  0
   36.5762   12.2226  -15.5321 C   0  0  0  0  0  0  0  0  0  0  0  0
   37.7401   12.0761  -16.2335 C   0  0  0  0  0  0  0  0  0  0  0  0
   37.7733   11.2334  -17.3232 C   0  0  0  0  0  0  0  0  0  0  0  0
   36.6629   10.5347  -17.7224 C   0  0  0  0  0  0  0  0  0  0  0  0
   35.5148   10.7088  -16.9918 C   0  0  0  0  0  0  0  0  0  0  0  0
   35.4256   11.5536  -15.8754 C   0  0  0  0  0  0  0  0  0  0  0  0
   34.1492   11.6663  -15.1700 C   0  0  0  0  0  0  0  0  0  0  0  0
   34.2145   11.6062  -13.7969 F   0  0  0  0  0  0  0  0  0  0  0  0
   33.1482   10.8660  -15.6826 F   0  0  0  0  0  0  0  0  0  0  0  0
   33.6565   12.9621  -15.4033 F   0  0  0  0  0  0  0  0  0  0  0  0
 12 13  3  0  0  0
 13  6  1  0  0  0
  6  7  2  0  0  0
  7  8  1  0  0  0
  8  9  2  0  0  0
  9 10  1  0  0  0
 10  1  1  0  0  0
  1  2  1  0  0  0
  2  3  1  0  0  0
  3 18  1  0  0  0
 18 19  2  0  0  0
 18 20  2  0  0  0
 18 21  1  0  0  0
 21 22  2  0  0  0
 22 23  1  0  0  0
 23 24  2  0  0  0
 24 25  1  0  0  0
 25 26  2  0  0  0
 26 27  1  0  0  0
 27 28  1  0  0  0
 27 29  1  0  0  0
 27 30  1  0  0  0
  3  4  1  0  0  0
  4  5  1  0  0  0
  5 14  1  0  0  0
 14 15  2  0  0  0
 14 16  1  0  0  0
 10 11  2  0  0  0
 11  6  1  0  0  0
  5  1  1  0  0  0
 26 21  1  0  0  0
 16 17  1  0  0  0
M  END
> <minimizedAffinity>
-7.81427

> <CNNscore>
0.1667774469

> <CNNaffinity>
5.9702329636

> <CNN_VS>
0.9957002401

> <CNNaffinity_variance>
0.0959694758

$$$$
[H]OC(=O)[C@@]1([H])N(c2nc(C#N)nc([H])c2[H])C([H])([H])[C@@]([H])(S(=O)(=O)c2c([H])c([H])c([H])c([H])c2C(F)(F)F)C1([H])[H]


 30 32  0  0  0  0  0  0  0  0999 V2000
   36.6594   14.2721  -12.4479 N   0  0  0  0  0  0  0  0  0  0  0  0
   36.1708   13.9113  -13.7615 C   0  0  0  0  0  0  0  0  0  0  0  0
   36.9848   12.6095  -14.0002 C   0  0  0  0  0  0  0  0  0  0  0  0
   38.3297   13.0715  -13.6205 C   0  0  0  0  0  0  0  0  0  0  0  0
   38.0666   14.0395  -12.4508 C   0  0  0  0  0  0  0  0  0  0  0  0
   35.4802   15.1678   -9.0992 C   0  0  0  0  0  0  0  0  0  0  0  0
   34.2737   15.7057   -9.3511 N   0  0  0  0  0  0  0  0  0  0  0  0
   33.7905   15.8012  -10.6160 C   0  0  0  0  0  0  0  0  0  0  0  0
   34.6057   15.3171  -11.6181 C   0  0  0  0  0  0  0  0  0  0  0  0
   35.8469   14.7607  -11.3904 C   0  0  0  0  0  0  0  0  0  0  0  0
   36.2493   14.7052  -10.1016 N   0  0  0  0  0  0  0  0  0  0  0  0
   36.3132   15.0228   -6.6331 N   0  0  0  0  0  0  0  0  0  0  0  0
   35.9361   15.0945   -7.7414 C   0  0  0  0  0  0  0  0  0  0  0  0
   38.8726   15.2602  -12.5978 C   0  0  0  0  0  0  0  0  0  0  0  0
   38.8734   16.1171  -11.6914 O   0  0  0  0  0  0  0  0  0  0  0  0
   39.6301   15.4698  -13.7289 O   0  0  0  0  0  0  0  0  0  0  0  0
   39.5690   16.3069  -14.3028 H   0  0  0  0  0  0  0  0  0  0  0  0
   36.8170   12.1813  -15.7499 S   0  0  0  0  0  0  0  0  0  0  0  0
   36.1330   10.8459  -15.7405 O   0  0  0  0  0  0  0  0  0  0  0  0
   35.9324   13.2499  -16.2907 O   0  0  0  0  0  0  0  0  0  0  0  0
   38.3755   12.0635  -16.4960 C   0  0  0  0  0  0  0  0  0  0  0  0
   39.4180   12.7051  -15.8879 C   0  0  0  0  0  0  0  0  0  0  0  0
   40.6793   12.6189  -16.4359 C   0  0  0  0  0  0  0  0  0  0  0  0
   40.9155   11.9016  -17.5806 C   0  0  0  0  0  0  0  0  0  0  0  0
   39.8430   11.2719  -18.1598 C   0  0  0  0  0  0  0  0  0  0  0  0
   38.5393   11.3271  -17.6449 C   0  0  0  0  0  0  0  0  0  0  0  0
   37.4683   10.6188  -18.3455 C   0  0  0  0  0  0  0  0  0  0  0  0
   36.9581    9.5143  -17.7028 F   0  0  0  0  0  0  0  0  0  0  0  0
   37.7303   10.3749  -19.6785 F   0  0  0  0  0  0  0  0  0  0  0  0
   36.3629   11.4855  -18.4030 F   0  0  0  0  0  0  0  0  0  0  0  0
 12 13  3  0  0  0
 13  6  1  0  0  0
  6  7  2  0  0  0
  7  8  1  0  0  0
  8  9  2  0  0  0
  9 10  1  0  0  0
 10  1  1  0  0  0
  1  2  1  0  0  0
  2  3  1  0  0  0
  3 18  1  0  0  0
 18 19  2  0  0  0
 18 20  2  0  0  0
 18 21  1  0  0  0
 21 22  2  0  0  0
 22 23  1  0  0  0
 23 24  2  0  0  0
 24 25  1  0  0  0
 25 26  2  0  0  0
 26 27  1  0  0  0
 27 28  1  0  0  0
 27 29  1  0  0  0
 27 30  1  0  0  0
  3  4  1  0  0  0
  4  5  1  0  0  0
  5 14  1  0  0  0
 14 15  2  0  0  0
 14 16  1  0  0  0
 10 11  2  0  0  0
 11  6  1  0  0  0
  5  1  1  0  0  0
 26 21  1  0  0  0
 16 17  1  0  0  0
M  END
> <minimizedAffinity>
-7.98924

> <CNNscore>
0.1619642377

> <CNNaffinity>
5.8991804123

> <CNN_VS>
0.9554562569

> <CNNaffinity_variance>
0.1093773022

$$$$
[H]OC(=O)[C@@]1([H])N(c2nc(C#N)nc([H])c2[H])C([H])([H])[C@@]([H])(S(=O)(=O)c2c([H])c([H])c([H])c([H])c2C(F)(F)F)C1([H])[H]


 30 32  0  0  0  0  0  0  0  0999 V2000
   41.1478   12.9899  -15.5688 N   0  0  0  0  0  0  0  0  0  0  0  0
   42.4707   13.2331  -16.1028 C   0  0  0  0  0  0  0  0  0  0  0  0
   43.3310   12.8593  -14.8642 C   0  0  0  0  0  0  0  0  0  0  0  0
   42.6165   13.6073  -13.8171 C   0  0  0  0  0  0  0  0  0  0  0  0
   41.1378   13.5019  -14.2375 C   0  0  0  0  0  0  0  0  0  0  0  0
   37.8298   11.7377  -16.4792 C   0  0  0  0  0  0  0  0  0  0  0  0
   38.0624   11.1298  -17.6560 N   0  0  0  0  0  0  0  0  0  0  0  0
   39.3035   11.0993  -18.2048 C   0  0  0  0  0  0  0  0  0  0  0  0
   40.3025   11.7247  -17.4878 C   0  0  0  0  0  0  0  0  0  0  0  0
   40.0942   12.3559  -16.2795 C   0  0  0  0  0  0  0  0  0  0  0  0
   38.8284   12.3381  -15.8066 N   0  0  0  0  0  0  0  0  0  0  0  0
   35.4097   11.7442  -15.5096 N   0  0  0  0  0  0  0  0  0  0  0  0
   36.4966   11.7363  -15.9504 C   0  0  0  0  0  0  0  0  0  0  0  0
   40.4676   14.8036  -14.1042 C   0  0  0  0  0  0  0  0  0  0  0  0
   41.0161   15.7221  -13.4630 O   0  0  0  0  0  0  0  0  0  0  0  0
   39.2362   15.0220  -14.6815 O   0  0  0  0  0  0  0  0  0  0  0  0
   38.4259   15.3646  -14.1716 H   0  0  0  0  0  0  0  0  0  0  0  0
   45.0125   13.4492  -15.1771 S   0  0  0  0  0  0  0  0  0  0  0  0
   45.3861   12.8241  -16.4889 O   0  0  0  0  0  0  0  0  0  0  0  0
   44.8517   14.9246  -15.2955 O   0  0  0  0  0  0  0  0  0  0  0  0
   46.0824   12.9202  -13.9222 C   0  0  0  0  0  0  0  0  0  0  0  0
   45.5663   12.1080  -12.9515 C   0  0  0  0  0  0  0  0  0  0  0  0
   46.3881   11.6461  -11.9466 C   0  0  0  0  0  0  0  0  0  0  0  0
   47.7168   11.9820  -11.8967 C   0  0  0  0  0  0  0  0  0  0  0  0
   48.1961   12.7984  -12.8896 C   0  0  0  0  0  0  0  0  0  0  0  0
   47.4042   13.2969  -13.9347 C   0  0  0  0  0  0  0  0  0  0  0  0
   48.0187   14.1628  -14.9408 C   0  0  0  0  0  0  0  0  0  0  0  0
   47.5505   15.4559  -14.9870 F   0  0  0  0  0  0  0  0  0  0  0  0
   48.1111   13.5939  -16.1950 F   0  0  0  0  0  0  0  0  0  0  0  0
   49.3667   14.3310  -14.5793 F   0  0  0  0  0  0  0  0  0  0  0  0
 12 13  3  0  0  0
 13  6  1  0  0  0
  6  7  2  0  0  0
  7  8  1  0  0  0
  8  9  2  0  0  0
  9 10  1  0  0  0
 10  1  1  0  0  0
  1  2  1  0  0  0
  2  3  1  0  0  0
  3 18  1  0  0  0
 18 19  2  0  0  0
 18 20  2  0  0  0
 18 21  1  0  0  0
 21 22  2  0  0  0
 22 23  1  0  0  0
 23 24  2  0  0  0
 24 25  1  0  0  0
 25 26  2  0  0  0
 26 27  1  0  0  0
 27 28  1  0  0  0
 27 29  1  0  0  0
 27 30  1  0  0  0
  3  4  1  0  0  0
  4  5  1  0  0  0
  5 14  1  0  0  0
 14 15  2  0  0  0
 14 16  1  0  0  0
 10 11  2  0  0  0
 11  6  1  0  0  0
  5  1  1  0  0  0
 26 21  1  0  0  0
 16 17  1  0  0  0
M  END
> <minimizedAffinity>
-6.72634

> <CNNscore>
0.1587942243

> <CNNaffinity>
5.5708756447

> <CNN_VS>
0.8846228719

> <CNNaffinity_variance>
0.1268541515

$$$$
[H]OC(=O)[C@@]1([H])N(c2nc(C#N)nc([H])c2[H])C([H])([H])[C@@]([H])(S(=O)(=O)c2c([H])c([H])c([H])c([H])c2C(F)(F)F)C1([H])[H]


 30 32  0  0  0  0  0  0  0  0999 V2000
   34.3503   15.0299  -11.4662 N   0  0  0  0  0  0  0  0  0  0  0  0
   34.7786   14.6446  -12.7938 C   0  0  0  0  0  0  0  0  0  0  0  0
   35.8861   13.6178  -12.4290 C   0  0  0  0  0  0  0  0  0  0  0  0
   36.6283   14.3859  -11.4163 C   0  0  0  0  0  0  0  0  0  0  0  0
   35.5287   15.1709  -10.6752 C   0  0  0  0  0  0  0  0  0  0  0  0
   31.3877   16.0591   -9.5767 C   0  0  0  0  0  0  0  0  0  0  0  0
   30.3824   15.5792  -10.3300 N   0  0  0  0  0  0  0  0  0  0  0  0
   30.6210   14.9018  -11.4819 C   0  0  0  0  0  0  0  0  0  0  0  0
   31.9459   14.7376  -11.8292 C   0  0  0  0  0  0  0  0  0  0  0  0
   32.9973   15.2182  -11.0772 C   0  0  0  0  0  0  0  0  0  0  0  0
   32.6691   15.8803   -9.9459 N   0  0  0  0  0  0  0  0  0  0  0  0
   30.8101   17.3551   -7.3895 N   0  0  0  0  0  0  0  0  0  0  0  0
   31.0721   16.7666   -8.3697 C   0  0  0  0  0  0  0  0  0  0  0  0
   35.9418   16.5660  -10.4638 C   0  0  0  0  0  0  0  0  0  0  0  0
   36.7331   17.1074  -11.2614 O   0  0  0  0  0  0  0  0  0  0  0  0
   35.4631   17.2853   -9.3911 O   0  0  0  0  0  0  0  0  0  0  0  0
   36.0591   17.7650   -8.7214 H   0  0  0  0  0  0  0  0  0  0  0  0
   36.8271   13.2804  -13.9369 S   0  0  0  0  0  0  0  0  0  0  0  0
   37.0371   14.6324  -14.5527 O   0  0  0  0  0  0  0  0  0  0  0  0
   38.1025   12.6999  -13.4336 O   0  0  0  0  0  0  0  0  0  0  0  0
   35.9189   12.2595  -15.0010 C   0  0  0  0  0  0  0  0  0  0  0  0
   34.5794   12.1295  -14.7625 C   0  0  0  0  0  0  0  0  0  0  0  0
   33.8152   11.3445  -15.5982 C   0  0  0  0  0  0  0  0  0  0  0  0
   34.3677   10.6882  -16.6681 C   0  0  0  0  0  0  0  0  0  0  0  0
   35.7151   10.8450  -16.8735 C   0  0  0  0  0  0  0  0  0  0  0  0
   36.5391   11.6310  -16.0543 C   0  0  0  0  0  0  0  0  0  0  0  0
   37.9655   11.7265  -16.3642 C   0  0  0  0  0  0  0  0  0  0  0  0
   38.8052   10.9894  -15.5612 F   0  0  0  0  0  0  0  0  0  0  0  0
   38.4177   13.0173  -16.5502 F   0  0  0  0  0  0  0  0  0  0  0  0
   38.1568   11.1482  -17.6312 F   0  0  0  0  0  0  0  0  0  0  0  0
 12 13  3  0  0  0
 13  6  1  0  0  0
  6  7  2  0  0  0
  7  8  1  0  0  0
  8  9  2  0  0  0
  9 10  1  0  0  0
 10  1  1  0  0  0
  1  2  1  0  0  0
  2  3  1  0  0  0
  3 18  1  0  0  0
 18 19  2  0  0  0
 18 20  2  0  0  0
 18 21  1  0  0  0
 21 22  2  0  0  0
 22 23  1  0  0  0
 23 24  2  0  0  0
 24 25  1  0  0  0
 25 26  2  0  0  0
 26 27  1  0  0  0
 27 28  1  0  0  0
 27 29  1  0  0  0
 27 30  1  0  0  0
  3  4  1  0  0  0
  4  5  1  0  0  0
  5 14  1  0  0  0
 14 15  2  0  0  0
 14 16  1  0  0  0
 10 11  2  0  0  0
 11  6  1  0  0  0
  5  1  1  0  0  0
 26 21  1  0  0  0
 16 17  1  0  0  0
M  END
> <minimizedAffinity>
-8.37559

> <CNNscore>
0.1404959410

> <CNNaffinity>
5.7420673370

> <CNN_VS>
0.8067371249

> <CNNaffinity_variance>
0.2912348807

$$$$
[H]OC(=O)[C@@]1([H])N(c2nc(C#N)nc([H])c2[H])C([H])([H])[C@@]([H])(S(=O)(=O)c2c([H])c([H])c([H])c([H])c2C(F)(F)F)C1([H])[H]


 30 32  0  0  0  0  0  0  0  0999 V2000
   41.3930   13.2867  -15.2410 N   0  0  0  0  0  0  0  0  0  0  0  0
   42.7624   13.6787  -15.4966 C   0  0  0  0  0  0  0  0  0  0  0  0
   43.3992   13.3346  -14.1218 C   0  0  0  0  0  0  0  0  0  0  0  0
   42.4220   13.9639  -13.2188 C   0  0  0  0  0  0  0  0  0  0  0  0
   41.0720   13.7360  -13.9259 C   0  0  0  0  0  0  0  0  0  0  0  0
   38.4710   11.7225  -16.7972 C   0  0  0  0  0  0  0  0  0  0  0  0
   38.9794   11.2340  -17.9423 N   0  0  0  0  0  0  0  0  0  0  0  0
   40.2899   11.3902  -18.2594 C   0  0  0  0  0  0  0  0  0  0  0  0
   41.0613   12.0747  -17.3431 C   0  0  0  0  0  0  0  0  0  0  0  0
   40.5683   12.5867  -16.1613 C   0  0  0  0  0  0  0  0  0  0  0  0
   39.2529   12.3855  -15.9258 N   0  0  0  0  0  0  0  0  0  0  0  0
   35.9396   11.3733  -16.2807 N   0  0  0  0  0  0  0  0  0  0  0  0
   37.0781   11.5254  -16.5179 C   0  0  0  0  0  0  0  0  0  0  0  0
   40.2587   14.9605  -13.8959 C   0  0  0  0  0  0  0  0  0  0  0  0
   40.6492   15.9499  -13.2445 O   0  0  0  0  0  0  0  0  0  0  0  0
   39.0660   15.0284  -14.5816 O   0  0  0  0  0  0  0  0  0  0  0  0
   38.1829   15.2946  -14.1539 H   0  0  0  0  0  0  0  0  0  0  0  0
   45.0399   14.0960  -14.0813 S   0  0  0  0  0  0  0  0  0  0  0  0
   45.9875   12.9418  -14.2263 O   0  0  0  0  0  0  0  0  0  0  0  0
   45.0510   14.9727  -15.2847 O   0  0  0  0  0  0  0  0  0  0  0  0
   45.2931   14.9077  -12.5726 C   0  0  0  0  0  0  0  0  0  0  0  0
   45.1850   16.2702  -12.5614 C   0  0  0  0  0  0  0  0  0  0  0  0
   45.3569   16.9540  -11.3775 C   0  0  0  0  0  0  0  0  0  0  0  0
   45.6342   16.2984  -10.2053 C   0  0  0  0  0  0  0  0  0  0  0  0
   45.7339   14.9311  -10.2587 C   0  0  0  0  0  0  0  0  0  0  0  0
   45.5688   14.1860  -11.4357 C   0  0  0  0  0  0  0  0  0  0  0  0
   45.6990   12.7302  -11.3790 C   0  0  0  0  0  0  0  0  0  0  0  0
   46.7689   12.1959  -12.0596 F   0  0  0  0  0  0  0  0  0  0  0  0
   44.5254   12.0481  -11.6291 F   0  0  0  0  0  0  0  0  0  0  0  0
   45.9751   12.3877  -10.0438 F   0  0  0  0  0  0  0  0  0  0  0  0
 12 13  3  0  0  0
 13  6  1  0  0  0
  6  7  2  0  0  0
  7  8  1  0  0  0
  8  9  2  0  0  0
  9 10  1  0  0  0
 10  1  1  0  0  0
  1  2  1  0  0  0
  2  3  1  0  0  0
  3 18  1  0  0  0
 18 19  2  0  0  0
 18 20  2  0  0  0
 18 21  1  0  0  0
 21 22  2  0  0  0
 22 23  1  0  0  0
 23 24  2  0  0  0
 24 25  1  0  0  0
 25 26  2  0  0  0
 26 27  1  0  0  0
 27 28  1  0  0  0
 27 29  1  0  0  0
 27 30  1  0  0  0
  3  4  1  0  0  0
  4  5  1  0  0  0
  5 14  1  0  0  0
 14 15  2  0  0  0
 14 16  1  0  0  0
 10 11  2  0  0  0
 11  6  1  0  0  0
  5  1  1  0  0  0
 26 21  1  0  0  0
 16 17  1  0  0  0
M  END
> <minimizedAffinity>
-6.63096

> <CNNscore>
0.1397811025

> <CNNaffinity>
5.3715324402

> <CNN_VS>
0.7508387566

> <CNNaffinity_variance>
0.1162491441

$$$$
[H]OC(=O)[C@@]1([H])N(c2nc(C#N)nc([H])c2[H])C([H])([H])[C@@]([H])(S(=O)(=O)c2c([H])c([H])c([H])c([H])c2C(F)(F)F)C1([H])[H]


 30 32  0  0  0  0  0  0  0  0999 V2000
   36.3215   12.4675  -14.8229 N   0  0  0  0  0  0  0  0  0  0  0  0
   36.7444   13.6764  -14.1490 C   0  0  0  0  0  0  0  0  0  0  0  0
   36.5524   13.2385  -12.6707 C   0  0  0  0  0  0  0  0  0  0  0  0
   35.2016   12.6587  -12.7455 C   0  0  0  0  0  0  0  0  0  0  0  0
   35.1672   11.9911  -14.1338 C   0  0  0  0  0  0  0  0  0  0  0  0
   38.9030   11.5650  -17.2577 C   0  0  0  0  0  0  0  0  0  0  0  0
   38.2196   10.8144  -18.1397 N   0  0  0  0  0  0  0  0  0  0  0  0
   36.8938   10.5685  -17.9837 C   0  0  0  0  0  0  0  0  0  0  0  0
   36.2959   11.1308  -16.8748 C   0  0  0  0  0  0  0  0  0  0  0  0
   36.9705   11.9044  -15.9537 C   0  0  0  0  0  0  0  0  0  0  0  0
   38.2874   12.0982  -16.1866 N   0  0  0  0  0  0  0  0  0  0  0  0
   41.4452   11.9716  -17.6683 N   0  0  0  0  0  0  0  0  0  0  0  0
   40.3025   11.7894  -17.4767 C   0  0  0  0  0  0  0  0  0  0  0  0
   33.8999   12.2856  -14.8185 C   0  0  0  0  0  0  0  0  0  0  0  0
   33.4043   11.4460  -15.5963 O   0  0  0  0  0  0  0  0  0  0  0  0
   33.2508   13.4825  -14.6104 O   0  0  0  0  0  0  0  0  0  0  0  0
   32.9670   14.1090  -15.3593 H   0  0  0  0  0  0  0  0  0  0  0  0
   36.6622   14.7271  -11.6482 S   0  0  0  0  0  0  0  0  0  0  0  0
   35.7043   15.6879  -12.2889 O   0  0  0  0  0  0  0  0  0  0  0  0
   36.1795   14.2745  -10.3144 O   0  0  0  0  0  0  0  0  0  0  0  0
   38.2732   15.3621  -11.6754 C   0  0  0  0  0  0  0  0  0  0  0  0
   39.0807   14.9943  -12.7151 C   0  0  0  0  0  0  0  0  0  0  0  0
   40.3627   15.4942  -12.7873 C   0  0  0  0  0  0  0  0  0  0  0  0
   40.8501   16.3557  -11.8381 C   0  0  0  0  0  0  0  0  0  0  0  0
   40.0082   16.7007  -10.8113 C   0  0  0  0  0  0  0  0  0  0  0  0
   38.6955   16.2213  -10.6892 C   0  0  0  0  0  0  0  0  0  0  0  0
   37.8845   16.6532   -9.5511 C   0  0  0  0  0  0  0  0  0  0  0  0
   37.6954   15.7185   -8.5592 F   0  0  0  0  0  0  0  0  0  0  0  0
   36.7109   17.2888   -9.9028 F   0  0  0  0  0  0  0  0  0  0  0  0
   38.5984   17.6689   -8.8916 F   0  0  0  0  0  0  0  0  0  0  0  0
 12 13  3  0  0  0
 13  6  1  0  0  0
  6  7  2  0  0  0
  7  8  1  0  0  0
  8  9  2  0  0  0
  9 10  1  0  0  0
 10  1  1  0  0  0
  1  2  1  0  0  0
  2  3  1  0  0  0
  3 18  1  0  0  0
 18 19  2  0  0  0
 18 20  2  0  0  0
 18 21  1  0  0  0
 21 22  2  0  0  0
 22 23  1  0  0  0
 23 24  2  0  0  0
 24 25  1  0  0  0
 25 26  2  0  0  0
 26 27  1  0  0  0
 27 28  1  0  0  0
 27 29  1  0  0  0
 27 30  1  0  0  0
  3  4  1  0  0  0
  4  5  1  0  0  0
  5 14  1  0  0  0
 14 15  2  0  0  0
 14 16  1  0  0  0
 10 11  2  0  0  0
 11  6  1  0  0  0
  5  1  1  0  0  0
 26 21  1  0  0  0
 16 17  1  0  0  0
M  END
> <minimizedAffinity>
-8.44608

> <CNNscore>
0.1231043264

> <CNNaffinity>
5.9265451431

> <CNN_VS>
0.7295833230

> <CNNaffinity_variance>
0.1898672879

$$$$
[H]c1c([H])c([H])c(C([H])([H])n2c([H])nc(-c3c([H])c([H])c(F)c([H])c3[H])c2-c2nn3c([H])c(N([H])C(=O)C(C([H])([H])[H])(C([H])([H])[H])C([H])([H])[H])nc3c([H])c2[H])c([H])c1[H]


 36 40  0  0  0  0  0  0  0  0999 V2000
   37.5434   15.8588   -5.8408 C   0  0  0  0  0  0  0  0  0  0  0  0
   36.5391   15.6962   -4.9108 C   0  0  0  0  0  0  0  0  0  0  0  0
   37.1674   15.4482   -3.7242 N   0  0  0  0  0  0  0  0  0  0  0  0
   38.4745   15.4513   -3.8813 C   0  0  0  0  0  0  0  0  0  0  0  0
   38.6990   15.7082   -5.2053 N   0  0  0  0  0  0  0  0  0  0  0  0
   36.3842   15.3679  -11.6202 C   0  0  0  0  0  0  0  0  0  0  0  0
   36.5482   14.6101  -10.4831 C   0  0  0  0  0  0  0  0  0  0  0  0
   36.8156   15.4410   -9.4306 N   0  0  0  0  0  0  0  0  0  0  0  0
   37.0441   15.1856   -8.1603 N   0  0  0  0  0  0  0  0  0  0  0  0
   37.2938   16.1427   -7.2515 C   0  0  0  0  0  0  0  0  0  0  0  0
   37.3001   17.4351   -7.7211 C   0  0  0  0  0  0  0  0  0  0  0  0
   37.0608   17.7286   -9.0606 C   0  0  0  0  0  0  0  0  0  0  0  0
   36.8164   16.6898   -9.9113 C   0  0  0  0  0  0  0  0  0  0  0  0
   36.5575   16.6454  -11.2253 N   0  0  0  0  0  0  0  0  0  0  0  0
   35.8376   13.5366  -13.1764 C   0  0  0  0  0  0  0  0  0  0  0  0
   35.8705   12.7196  -12.1942 O   0  0  0  0  0  0  0  0  0  0  0  0
   36.0954   14.9062  -12.9184 N   0  0  0  0  0  0  0  0  0  0  0  0
   36.0704   15.5742  -13.7066 H   0  0  0  0  0  0  0  0  0  0  0  0
   34.2859   12.1447  -14.3718 C   0  0  0  0  0  0  0  0  0  0  0  0
   35.5345   12.9919  -14.5012 C   0  0  0  0  0  0  0  0  0  0  0  0
   35.2481   14.1055  -15.4626 C   0  0  0  0  0  0  0  0  0  0  0  0
   36.6350   12.0878  -15.0115 C   0  0  0  0  0  0  0  0  0  0  0  0
   35.0952   15.7421   -5.0303 C   0  0  0  0  0  0  0  0  0  0  0  0
   34.4496   16.9553   -5.0512 C   0  0  0  0  0  0  0  0  0  0  0  0
   33.0646   17.0501   -5.1701 C   0  0  0  0  0  0  0  0  0  0  0  0
   32.2978   15.9068   -5.2713 C   0  0  0  0  0  0  0  0  0  0  0  0
   30.9442   16.0028   -5.3872 F   0  0  0  0  0  0  0  0  0  0  0  0
   32.9359   14.6899   -5.2511 C   0  0  0  0  0  0  0  0  0  0  0  0
   34.3174   14.6146   -5.1319 C   0  0  0  0  0  0  0  0  0  0  0  0
   40.0251   15.7968   -5.7950 C   0  0  0  0  0  0  0  0  0  0  0  0
   40.6092   14.4665   -6.0384 C   0  0  0  0  0  0  0  0  0  0  0  0
   40.0257   13.5395   -6.8624 C   0  0  0  0  0  0  0  0  0  0  0  0
   40.5548   12.2999   -7.1038 C   0  0  0  0  0  0  0  0  0  0  0  0
   41.7426   11.9669   -6.4815 C   0  0  0  0  0  0  0  0  0  0  0  0
   42.3532   12.8833   -5.6446 C   0  0  0  0  0  0  0  0  0  0  0  0
   41.8054   14.1168   -5.4183 C   0  0  0  0  0  0  0  0  0  0  0  0
 19 20  1  0  0  0
 20 21  1  0  0  0
 20 22  1  0  0  0
 20 15  1  0  0  0
 15 16  2  0  0  0
 15 17  1  0  0  0
 17  6  1  0  0  0
  6  7  2  0  0  0
  7  8  1  0  0  0
  8  9  1  0  0  0
  9 10  2  0  0  0
 10  1  1  0  0  0
  1  2  2  0  0  0
  2 23  1  0  0  0
 23 24  2  0  0  0
 24 25  1  0  0  0
 25 26  2  0  0  0
 26 27  1  0  0  0
 26 28  1  0  0  0
 28 29  2  0  0  0
  2  3  1  0  0  0
  3  4  2  0  0  0
  4  5  1  0  0  0
  5 30  1  0  0  0
 30 31  1  0  0  0
 31 32  2  0  0  0
 32 33  1  0  0  0
 33 34  2  0  0  0
 34 35  1  0  0  0
 35 36  2  0  0  0
 10 11  1  0  0  0
 11 12  2  0  0  0
 12 13  1  0  0  0
 13 14  2  0  0  0
 14  6  1  0  0  0
 13  8  1  0  0  0
  5  1  1  0  0  0
 36 31  1  0  0  0
 29 23  1  0  0  0
 17 18  1  0  0  0
M  END
> <minimizedAffinity>
-7.30867

> <CNNscore>
0.0935811326

> <CNNaffinity>
6.0674300194

> <CNN_VS>
0.5677969456

> <CNNaffinity_variance>
0.2056112587

$$$$
[H]c1c([H])c([H])c(C([H])([H])n2c([H])nc(-c3c([H])c([H])c(F)c([H])c3[H])c2-c2nn3c([H])c(N([H])C(=O)C(C([H])([H])[H])(C([H])([H])[H])C([H])([H])[H])nc3c([H])c2[H])c([H])c1[H]


 36 40  0  0  0  0  0  0  0  0999 V2000
   39.3397   13.5563  -14.5885 C   0  0  0  0  0  0  0  0  0  0  0  0
   40.4074   13.0006  -15.2603 C   0  0  0  0  0  0  0  0  0  0  0  0
   39.8649   12.1823  -16.2091 N   0  0  0  0  0  0  0  0  0  0  0  0
   38.5499   12.2107  -16.1502 C   0  0  0  0  0  0  0  0  0  0  0  0
   38.2321   13.0707  -15.1358 N   0  0  0  0  0  0  0  0  0  0  0  0
   38.4992   16.7230   -9.6639 C   0  0  0  0  0  0  0  0  0  0  0  0
   37.9130   15.7417  -10.4305 C   0  0  0  0  0  0  0  0  0  0  0  0
   38.7181   15.4763  -11.5034 N   0  0  0  0  0  0  0  0  0  0  0  0
   38.5828   14.6286  -12.5005 N   0  0  0  0  0  0  0  0  0  0  0  0
   39.4885   14.5004  -13.4843 C   0  0  0  0  0  0  0  0  0  0  0  0
   40.5919   15.3166  -13.4000 C   0  0  0  0  0  0  0  0  0  0  0  0
   40.7558   16.2206  -12.3542 C   0  0  0  0  0  0  0  0  0  0  0  0
   39.7824   16.2807  -11.3996 C   0  0  0  0  0  0  0  0  0  0  0  0
   39.6505   17.0286  -10.2955 N   0  0  0  0  0  0  0  0  0  0  0  0
   37.5459   18.6266   -8.4224 C   0  0  0  0  0  0  0  0  0  0  0  0
   37.5933   19.3224   -9.4934 O   0  0  0  0  0  0  0  0  0  0  0  0
   38.0020   17.2857   -8.4732 N   0  0  0  0  0  0  0  0  0  0  0  0
   37.9670   16.7154   -7.6119 H   0  0  0  0  0  0  0  0  0  0  0  0
   37.4120   20.7340   -7.2756 C   0  0  0  0  0  0  0  0  0  0  0  0
   37.0211   19.2721   -7.2176 C   0  0  0  0  0  0  0  0  0  0  0  0
   35.5248   19.1872   -7.1981 C   0  0  0  0  0  0  0  0  0  0  0  0
   37.6256   18.6994   -5.9544 C   0  0  0  0  0  0  0  0  0  0  0  0
   41.8391   13.1547  -15.0943 C   0  0  0  0  0  0  0  0  0  0  0  0
   42.6503   13.2361  -16.2008 C   0  0  0  0  0  0  0  0  0  0  0  0
   44.0308   13.3901  -16.0918 C   0  0  0  0  0  0  0  0  0  0  0  0
   44.6235   13.4656  -14.8474 C   0  0  0  0  0  0  0  0  0  0  0  0
   45.9732   13.6160  -14.7442 F   0  0  0  0  0  0  0  0  0  0  0  0
   43.8192   13.3850  -13.7361 C   0  0  0  0  0  0  0  0  0  0  0  0
   42.4449   13.2315  -13.8640 C   0  0  0  0  0  0  0  0  0  0  0  0
   36.8676   13.3837  -14.7432 C   0  0  0  0  0  0  0  0  0  0  0  0
   35.8922   12.4751  -15.3704 C   0  0  0  0  0  0  0  0  0  0  0  0
   36.1082   11.8797  -16.5860 C   0  0  0  0  0  0  0  0  0  0  0  0
   35.2158   11.0301  -17.1832 C   0  0  0  0  0  0  0  0  0  0  0  0
   34.0329   10.7593  -16.5226 C   0  0  0  0  0  0  0  0  0  0  0  0
   33.7889   11.3467  -15.2945 C   0  0  0  0  0  0  0  0  0  0  0  0
   34.6961   12.1931  -14.7168 C   0  0  0  0  0  0  0  0  0  0  0  0
 19 20  1  0  0  0
 20 21  1  0  0  0
 20 22  1  0  0  0
 20 15  1  0  0  0
 15 16  2  0  0  0
 15 17  1  0  0  0
 17  6  1  0  0  0
  6  7  2  0  0  0
  7  8  1  0  0  0
  8  9  1  0  0  0
  9 10  2  0  0  0
 10  1  1  0  0  0
  1  2  2  0  0  0
  2 23  1  0  0  0
 23 24  2  0  0  0
 24 25  1  0  0  0
 25 26  2  0  0  0
 26 27  1  0  0  0
 26 28  1  0  0  0
 28 29  2  0  0  0
  2  3  1  0  0  0
  3  4  2  0  0  0
  4  5  1  0  0  0
  5 30  1  0  0  0
 30 31  1  0  0  0
 31 32  2  0  0  0
 32 33  1  0  0  0
 33 34  2  0  0  0
 34 35  1  0  0  0
 35 36  2  0  0  0
 10 11  1  0  0  0
 11 12  2  0  0  0
 12 13  1  0  0  0
 13 14  2  0  0  0
 14  6  1  0  0  0
 13  8  1  0  0  0
  5  1  1  0  0  0
 36 31  1  0  0  0
 29 23  1  0  0  0
 17 18  1  0  0  0
M  END
> <minimizedAffinity>
-9.41641

> <CNNscore>
0.0529964268

> <CNNaffinity>
6.4305696487

> <CNN_VS>
0.3407972157

> <CNNaffinity_variance>
0.1241920963

$$$$
[H]c1c([H])c([H])c(C([H])([H])n2c([H])nc(-c3c([H])c([H])c(F)c([H])c3[H])c2-c2nn3c([H])c(N([H])C(=O)C(C([H])([H])[H])(C([H])([H])[H])C([H])([H])[H])nc3c([H])c2[H])c([H])c1[H]


 36 40  0  0  0  0  0  0  0  0999 V2000
   42.9490   13.6477  -14.3366 C   0  0  0  0  0  0  0  0  0  0  0  0
   44.2317   13.2785  -14.6808 C   0  0  0  0  0  0  0  0  0  0  0  0
   44.1208   12.6074  -15.8646 N   0  0  0  0  0  0  0  0  0  0  0  0
   42.8632   12.5503  -16.2501 C   0  0  0  0  0  0  0  0  0  0  0  0
   42.1401   13.2020  -15.2900 N   0  0  0  0  0  0  0  0  0  0  0  0
   42.7995   15.6829   -8.7849 C   0  0  0  0  0  0  0  0  0  0  0  0
   43.4310   14.7517   -9.5775 C   0  0  0  0  0  0  0  0  0  0  0  0
   42.9352   14.8413  -10.8487 N   0  0  0  0  0  0  0  0  0  0  0  0
   43.2234   14.1675  -11.9415 N   0  0  0  0  0  0  0  0  0  0  0  0
   42.6257   14.3932  -13.1231 C   0  0  0  0  0  0  0  0  0  0  0  0
   41.6743   15.3858  -13.1394 C   0  0  0  0  0  0  0  0  0  0  0  0
   41.3535   16.1113  -11.9956 C   0  0  0  0  0  0  0  0  0  0  0  0
   42.0136   15.8114  -10.8393 C   0  0  0  0  0  0  0  0  0  0  0  0
   41.9325   16.3161   -9.6007 N   0  0  0  0  0  0  0  0  0  0  0  0
   43.8071   17.0110   -6.9698 C   0  0  0  0  0  0  0  0  0  0  0  0
   44.3260   17.7804   -7.8485 O   0  0  0  0  0  0  0  0  0  0  0  0
   43.0151   15.9231   -7.4147 N   0  0  0  0  0  0  0  0  0  0  0  0
   42.5910   15.2960   -6.7111 H   0  0  0  0  0  0  0  0  0  0  0  0
   43.5850   18.7233   -5.2986 C   0  0  0  0  0  0  0  0  0  0  0  0
   44.0725   17.3139   -5.5621 C   0  0  0  0  0  0  0  0  0  0  0  0
   43.3020   16.3787   -4.6800 C   0  0  0  0  0  0  0  0  0  0  0  0
   45.5509   17.2869   -5.2418 C   0  0  0  0  0  0  0  0  0  0  0  0
   45.5058   13.4828  -14.0203 C   0  0  0  0  0  0  0  0  0  0  0  0
   46.1420   14.6967  -14.1237 C   0  0  0  0  0  0  0  0  0  0  0  0
   47.3647   14.9423  -13.5023 C   0  0  0  0  0  0  0  0  0  0  0  0
   47.9737   13.9535  -12.7561 C   0  0  0  0  0  0  0  0  0  0  0  0
   49.1689   14.1966  -12.1500 F   0  0  0  0  0  0  0  0  0  0  0  0
   47.3439   12.7370  -12.6480 C   0  0  0  0  0  0  0  0  0  0  0  0
   46.1254   12.5102  -13.2743 C   0  0  0  0  0  0  0  0  0  0  0  0
   40.6960   13.3640  -15.3408 C   0  0  0  0  0  0  0  0  0  0  0  0
   40.0860   12.5355  -16.3951 C   0  0  0  0  0  0  0  0  0  0  0  0
   40.5174   12.5542  -17.6960 C   0  0  0  0  0  0  0  0  0  0  0  0
   39.9658   11.7893  -18.6887 C   0  0  0  0  0  0  0  0  0  0  0  0
   38.9166   10.9531  -18.3591 C   0  0  0  0  0  0  0  0  0  0  0  0
   38.4608   10.9143  -17.0538 C   0  0  0  0  0  0  0  0  0  0  0  0
   39.0280   11.6884  -16.0780 C   0  0  0  0  0  0  0  0  0  0  0  0
 19 20  1  0  0  0
 20 21  1  0  0  0
 20 22  1  0  0  0
 20 15  1  0  0  0
 15 16  2  0  0  0
 15 17  1  0  0  0
 17  6  1  0  0  0
  6  7  2  0  0  0
  7  8  1  0  0  0
  8  9  1  0  0  0
  9 10  2  0  0  0
 10  1  1  0  0  0
  1  2  2  0  0  0
  2 23  1  0  0  0
 23 24  2  0  0  0
 24 25  1  0  0  0
 25 26  2  0  0  0
 26 27  1  0  0  0
 26 28  1  0  0  0
 28 29  2  0  0  0
  2  3  1  0  0  0
  3  4  2  0  0  0
  4  5  1  0  0  0
  5 30  1  0  0  0
 30 31  1  0  0  0
 31 32  2  0  0  0
 32 33  1  0  0  0
 33 34  2  0  0  0
 34 35  1  0  0  0
 35 36  2  0  0  0
 10 11  1  0  0  0
 11 12  2  0  0  0
 12 13  1  0  0  0
 13 14  2  0  0  0
 14  6  1  0  0  0
 13  8  1  0  0  0
  5  1  1  0  0  0
 36 31  1  0  0  0
 29 23  1  0  0  0
 17 18  1  0  0  0
M  END
> <minimizedAffinity>
-7.45157

> <CNNscore>
0.0479465239

> <CNNaffinity>
5.7791004181

> <CNN_VS>
0.2770877779

> <CNNaffinity_variance>
0.1300838888

$$$$
[H]c1c([H])c([H])c(C([H])([H])n2c([H])nc(-c3c([H])c([H])c(F)c([H])c3[H])c2-c2nn3c([H])c(N([H])C(=O)C(C([H])([H])[H])(C([H])([H])[H])C([H])([H])[H])nc3c([H])c2[H])c([H])c1[H]


 36 40  0  0  0  0  0  0  0  0999 V2000
   37.2416   15.7960   -8.3367 C   0  0  0  0  0  0  0  0  0  0  0  0
   36.6358   15.8220   -9.5746 C   0  0  0  0  0  0  0  0  0  0  0  0
   35.5766   16.6749   -9.4526 N   0  0  0  0  0  0  0  0  0  0  0  0
   35.5082   17.1586   -8.2300 C   0  0  0  0  0  0  0  0  0  0  0  0
   36.5512   16.6041   -7.5415 N   0  0  0  0  0  0  0  0  0  0  0  0
   42.7880   13.7801   -7.9372 C   0  0  0  0  0  0  0  0  0  0  0  0
   42.0529   14.8265   -8.4457 C   0  0  0  0  0  0  0  0  0  0  0  0
   40.7335   14.6293   -8.1459 N   0  0  0  0  0  0  0  0  0  0  0  0
   39.6656   15.3483   -8.4174 N   0  0  0  0  0  0  0  0  0  0  0  0
   38.4261   14.9953   -8.0385 C   0  0  0  0  0  0  0  0  0  0  0  0
   38.3212   13.8179   -7.3359 C   0  0  0  0  0  0  0  0  0  0  0  0
   39.4373   13.0415   -7.0374 C   0  0  0  0  0  0  0  0  0  0  0  0
   40.6570   13.4805   -7.4640 C   0  0  0  0  0  0  0  0  0  0  0  0
   41.8902   12.9713   -7.3390 N   0  0  0  0  0  0  0  0  0  0  0  0
   44.7808   13.0068   -9.1638 C   0  0  0  0  0  0  0  0  0  0  0  0
   44.0224   12.6446  -10.1266 O   0  0  0  0  0  0  0  0  0  0  0  0
   44.1810   13.5955   -8.0226 N   0  0  0  0  0  0  0  0  0  0  0  0
   44.7866   13.8919   -7.2393 H   0  0  0  0  0  0  0  0  0  0  0  0
   46.5354   11.4239   -8.7277 C   0  0  0  0  0  0  0  0  0  0  0  0
   46.2201   12.7841   -9.3142 C   0  0  0  0  0  0  0  0  0  0  0  0
   46.5892   12.7654  -10.7667 C   0  0  0  0  0  0  0  0  0  0  0  0
   47.0376   13.8001   -8.5471 C   0  0  0  0  0  0  0  0  0  0  0  0
   36.9432   15.1380  -10.8150 C   0  0  0  0  0  0  0  0  0  0  0  0
   38.0313   15.5280  -11.5588 C   0  0  0  0  0  0  0  0  0  0  0  0
   38.3700   14.8977  -12.7543 C   0  0  0  0  0  0  0  0  0  0  0  0
   37.6059   13.8490  -13.2254 C   0  0  0  0  0  0  0  0  0  0  0  0
   37.9395   13.2350  -14.3944 F   0  0  0  0  0  0  0  0  0  0  0  0
   36.5164   13.4531  -12.4875 C   0  0  0  0  0  0  0  0  0  0  0  0
   36.1939   14.0932  -11.2981 C   0  0  0  0  0  0  0  0  0  0  0  0
   36.8321   16.8837   -6.1426 C   0  0  0  0  0  0  0  0  0  0  0  0
   36.4716   15.7514   -5.2718 C   0  0  0  0  0  0  0  0  0  0  0  0
   35.3317   15.0115   -5.4509 C   0  0  0  0  0  0  0  0  0  0  0  0
   34.9814   13.9540   -4.6548 C   0  0  0  0  0  0  0  0  0  0  0  0
   35.8247   13.6156   -3.6140 C   0  0  0  0  0  0  0  0  0  0  0  0
   36.9818   14.3454   -3.4101 C   0  0  0  0  0  0  0  0  0  0  0  0
   37.3113   15.3989   -4.2192 C   0  0  0  0  0  0  0  0  0  0  0  0
 19 20  1  0  0  0
 20 21  1  0  0  0
 20 22  1  0  0  0
 20 15  1  0  0  0
 15 16  2  0  0  0
 15 17  1  0  0  0
 17  6  1  0  0  0
  6  7  2  0  0  0
  7  8  1  0  0  0
  8  9  1  0  0  0
  9 10  2  0  0  0
 10  1  1  0  0  0
  1  2  2  0  0  0
  2 23  1  0  0  0
 23 24  2  0  0  0
 24 25  1  0  0  0
 25 26  2  0  0  0
 26 27  1  0  0  0
 26 28  1  0  0  0
 28 29  2  0  0  0
  2  3  1  0  0  0
  3  4  2  0  0  0
  4  5  1  0  0  0
  5 30  1  0  0  0
 30 31  1  0  0  0
 31 32  2  0  0  0
 32 33  1  0  0  0
 33 34  2  0  0  0
 34 35  1  0  0  0
 35 36  2  0  0  0
 10 11  1  0  0  0
 11 12  2  0  0  0
 12 13  1  0  0  0
 13 14  2  0  0  0
 14  6  1  0  0  0
 13  8  1  0  0  0
  5  1  1  0  0  0
 36 31  1  0  0  0
 29 23  1  0  0  0
 17 18  1  0  0  0
M  END
> <minimizedAffinity>
-6.04105

> <CNNscore>
0.0418062918

> <CNNaffinity>
5.7268519402

> <CNN_VS>
0.2394184470

> <CNNaffinity_variance>
0.1523965448

$$$$
[H]c1c([H])c([H])c(C([H])([H])n2c([H])nc(-c3c([H])c([H])c(F)c([H])c3[H])c2-c2nn3c([H])c(N([H])C(=O)C(C([H])([H])[H])(C([H])([H])[H])C([H])([H])[H])nc3c([H])c2[H])c([H])c1[H]


 36 40  0  0  0  0  0  0  0  0999 V2000
   42.6577   13.7861  -14.2397 C   0  0  0  0  0  0  0  0  0  0  0  0
   43.6969   13.7069  -15.1417 C   0  0  0  0  0  0  0  0  0  0  0  0
   43.1258   13.3876  -16.3402 N   0  0  0  0  0  0  0  0  0  0  0  0
   41.8204   13.2707  -16.2162 C   0  0  0  0  0  0  0  0  0  0  0  0
   41.5382   13.5211  -14.9019 N   0  0  0  0  0  0  0  0  0  0  0  0
   44.1145   13.6030   -8.5099 C   0  0  0  0  0  0  0  0  0  0  0  0
   44.1831   12.8599   -9.6663 C   0  0  0  0  0  0  0  0  0  0  0  0
   43.6088   13.5692  -10.6846 N   0  0  0  0  0  0  0  0  0  0  0  0
   43.4387   13.2778  -11.9563 N   0  0  0  0  0  0  0  0  0  0  0  0
   42.8424   14.1086  -12.8273 C   0  0  0  0  0  0  0  0  0  0  0  0
   42.4064   15.3084  -12.3164 C   0  0  0  0  0  0  0  0  0  0  0  0
   42.5758   15.6378  -10.9746 C   0  0  0  0  0  0  0  0  0  0  0  0
   43.1933   14.7299  -10.1641 C   0  0  0  0  0  0  0  0  0  0  0  0
   43.4970   14.7496   -8.8591 N   0  0  0  0  0  0  0  0  0  0  0  0
   43.7713   12.5478   -6.3094 C   0  0  0  0  0  0  0  0  0  0  0  0
   42.5792   12.2500   -6.6609 O   0  0  0  0  0  0  0  0  0  0  0  0
   44.5897   13.2421   -7.2349 N   0  0  0  0  0  0  0  0  0  0  0  0
   45.5554   13.4866   -6.9594 H   0  0  0  0  0  0  0  0  0  0  0  0
   45.6553   11.7285   -5.0630 C   0  0  0  0  0  0  0  0  0  0  0  0
   44.2028   12.1465   -4.9690 C   0  0  0  0  0  0  0  0  0  0  0  0
   44.1095   13.3097   -4.0283 C   0  0  0  0  0  0  0  0  0  0  0  0
   43.4284   10.9532   -4.4540 C   0  0  0  0  0  0  0  0  0  0  0  0
   45.1266   13.8884  -14.9866 C   0  0  0  0  0  0  0  0  0  0  0  0
   45.9834   12.8587  -15.2945 C   0  0  0  0  0  0  0  0  0  0  0  0
   47.3649   12.9875  -15.1670 C   0  0  0  0  0  0  0  0  0  0  0  0
   47.9121   14.1737  -14.7207 C   0  0  0  0  0  0  0  0  0  0  0  0
   49.2628   14.2963  -14.5970 F   0  0  0  0  0  0  0  0  0  0  0  0
   47.0620   15.2079  -14.4108 C   0  0  0  0  0  0  0  0  0  0  0  0
   45.6875   15.0615  -14.5440 C   0  0  0  0  0  0  0  0  0  0  0  0
   40.1945   13.4927  -14.3472 C   0  0  0  0  0  0  0  0  0  0  0  0
   39.2590   12.7491  -15.2087 C   0  0  0  0  0  0  0  0  0  0  0  0
   39.6744   11.9796  -16.2642 C   0  0  0  0  0  0  0  0  0  0  0  0
   38.8210   11.2787  -17.0736 C   0  0  0  0  0  0  0  0  0  0  0  0
   37.4667   11.3525  -16.8105 C   0  0  0  0  0  0  0  0  0  0  0  0
   37.0196   12.1219  -15.7516 C   0  0  0  0  0  0  0  0  0  0  0  0
   37.8917   12.8141  -14.9559 C   0  0  0  0  0  0  0  0  0  0  0  0
 19 20  1  0  0  0
 20 21  1  0  0  0
 20 22  1  0  0  0
 20 15  1  0  0  0
 15 16  2  0  0  0
 15 17  1  0  0  0
 17  6  1  0  0  0
  6  7  2  0  0  0
  7  8  1  0  0  0
  8  9  1  0  0  0
  9 10  2  0  0  0
 10  1  1  0  0  0
  1  2  2  0  0  0
  2 23  1  0  0  0
 23 24  2  0  0  0
 24 25  1  0  0  0
 25 26  2  0  0  0
 26 27  1  0  0  0
 26 28  1  0  0  0
 28 29  2  0  0  0
  2  3  1  0  0  0
  3  4  2  0  0  0
  4  5  1  0  0  0
  5 30  1  0  0  0
 30 31  1  0  0  0
 31 32  2  0  0  0
 32 33  1  0  0  0
 33 34  2  0  0  0
 34 35  1  0  0  0
 35 36  2  0  0  0
 10 11  1  0  0  0
 11 12  2  0  0  0
 12 13  1  0  0  0
 13 14  2  0  0  0
 14  6  1  0  0  0
 13  8  1  0  0  0
  5  1  1  0  0  0
 36 31  1  0  0  0
 29 23  1  0  0  0
 17 18  1  0  0  0
M  END
> <minimizedAffinity>
-7.67938

> <CNNscore>
0.0395635106

> <CNNaffinity>
5.9863882065

> <CNN_VS>
0.2368425280

> <CNNaffinity_variance>
0.0720834807

$$$$
[H]c1c([H])c([H])c(C([H])([H])n2c([H])nc(-c3c([H])c([H])c(F)c([H])c3[H])c2-c2nn3c([H])c(N([H])C(=O)C(C([H])([H])[H])(C([H])([H])[H])C([H])([H])[H])nc3c([H])c2[H])c([H])c1[H]


 36 40  0  0  0  0  0  0  0  0999 V2000
   37.9096   15.9720  -10.7518 C   0  0  0  0  0  0  0  0  0  0  0  0
   37.0052   16.9396  -10.3698 C   0  0  0  0  0  0  0  0  0  0  0  0
   35.9466   16.8172  -11.2235 N   0  0  0  0  0  0  0  0  0  0  0  0
   36.1561   15.8457  -12.0869 C   0  0  0  0  0  0  0  0  0  0  0  0
   37.3836   15.3248  -11.7844 N   0  0  0  0  0  0  0  0  0  0  0  0
   43.6671   15.9103   -9.3979 C   0  0  0  0  0  0  0  0  0  0  0  0
   42.7917   16.3243  -10.3758 C   0  0  0  0  0  0  0  0  0  0  0  0
   41.5197   15.9862  -10.0051 N   0  0  0  0  0  0  0  0  0  0  0  0
   40.3635   16.1698  -10.6058 N   0  0  0  0  0  0  0  0  0  0  0  0
   39.1929   15.7643  -10.0864 C   0  0  0  0  0  0  0  0  0  0  0  0
   39.2594   15.1321   -8.8671 C   0  0  0  0  0  0  0  0  0  0  0  0
   40.4712   14.9273   -8.2136 C   0  0  0  0  0  0  0  0  0  0  0  0
   41.6100   15.3740   -8.8187 C   0  0  0  0  0  0  0  0  0  0  0  0
   42.8989   15.3287   -8.4548 N   0  0  0  0  0  0  0  0  0  0  0  0
   45.6793   17.2210   -8.8440 C   0  0  0  0  0  0  0  0  0  0  0  0
   44.9268   18.1329   -8.3587 O   0  0  0  0  0  0  0  0  0  0  0  0
   45.0664   16.0636   -9.3856 N   0  0  0  0  0  0  0  0  0  0  0  0
   45.6672   15.3207   -9.7798 H   0  0  0  0  0  0  0  0  0  0  0  0
   47.5784   17.7645  -10.2123 C   0  0  0  0  0  0  0  0  0  0  0  0
   47.1259   17.4433   -8.8032 C   0  0  0  0  0  0  0  0  0  0  0  0
   47.4417   18.6196   -7.9297 C   0  0  0  0  0  0  0  0  0  0  0  0
   47.8806   16.2078   -8.3640 C   0  0  0  0  0  0  0  0  0  0  0  0
   37.0450   17.9386   -9.3203 C   0  0  0  0  0  0  0  0  0  0  0  0
   36.3239   17.7461   -8.1661 C   0  0  0  0  0  0  0  0  0  0  0  0
   36.3351   18.6749   -7.1276 C   0  0  0  0  0  0  0  0  0  0  0  0
   37.0844   19.8289   -7.2380 C   0  0  0  0  0  0  0  0  0  0  0  0
   37.0931   20.7349   -6.2212 F   0  0  0  0  0  0  0  0  0  0  0  0
   37.8081   20.0287   -8.3890 C   0  0  0  0  0  0  0  0  0  0  0  0
   37.7849   19.0920   -9.4138 C   0  0  0  0  0  0  0  0  0  0  0  0
   37.9913   14.2213  -12.5105 C   0  0  0  0  0  0  0  0  0  0  0  0
   37.0003   13.4701  -13.3005 C   0  0  0  0  0  0  0  0  0  0  0  0
   35.9652   12.7781  -12.7274 C   0  0  0  0  0  0  0  0  0  0  0  0
   35.0327   12.0774  -13.4445 C   0  0  0  0  0  0  0  0  0  0  0  0
   35.1429   12.0685  -14.8216 C   0  0  0  0  0  0  0  0  0  0  0  0
   36.1780   12.7582  -15.4265 C   0  0  0  0  0  0  0  0  0  0  0  0
   37.0986   13.4519  -14.6888 C   0  0  0  0  0  0  0  0  0  0  0  0
 19 20  1  0  0  0
 20 21  1  0  0  0
 20 22  1  0  0  0
 20 15  1  0  0  0
 15 16  2  0  0  0
 15 17  1  0  0  0
 17  6  1  0  0  0
  6  7  2  0  0  0
  7  8  1  0  0  0
  8  9  1  0  0  0
  9 10  2  0  0  0
 10  1  1  0  0  0
  1  2  2  0  0  0
  2 23  1  0  0  0
 23 24  2  0  0  0
 24 25  1  0  0  0
 25 26  2  0  0  0
 26 27  1  0  0  0
 26 28  1  0  0  0
 28 29  2  0  0  0
  2  3  1  0  0  0
  3  4  2  0  0  0
  4  5  1  0  0  0
  5 30  1  0  0  0
 30 31  1  0  0  0
 31 32  2  0  0  0
 32 33  1  0  0  0
 33 34  2  0  0  0
 34 35  1  0  0  0
 35 36  2  0  0  0
 10 11  1  0  0  0
 11 12  2  0  0  0
 12 13  1  0  0  0
 13 14  2  0  0  0
 14  6  1  0  0  0
 13  8  1  0  0  0
  5  1  1  0  0  0
 36 31  1  0  0  0
 29 23  1  0  0  0
 17 18  1  0  0  0
M  END
> <minimizedAffinity>
-7.03327

> <CNNscore>
0.0370964259

> <CNNaffinity>
5.7265100479

> <CNN_VS>
0.2124330550

> <CNNaffinity_variance>
0.1236587167

$$$$
[H]c1c([H])c([H])c(C([H])([H])n2c([H])nc(-c3c([H])c([H])c(F)c([H])c3[H])c2-c2nn3c([H])c(N([H])C(=O)C(C([H])([H])[H])(C([H])([H])[H])C([H])([H])[H])nc3c([H])c2[H])c([H])c1[H]


 36 40  0  0  0  0  0  0  0  0999 V2000
   39.5093   14.4396  -13.6305 C   0  0  0  0  0  0  0  0  0  0  0  0
   38.8091   13.7799  -14.6176 C   0  0  0  0  0  0  0  0  0  0  0  0
   37.4888   13.9470  -14.3123 N   0  0  0  0  0  0  0  0  0  0  0  0
   37.3527   14.6591  -13.2134 C   0  0  0  0  0  0  0  0  0  0  0  0
   38.6190   14.9615  -12.7956 N   0  0  0  0  0  0  0  0  0  0  0  0
   45.1005   16.1755  -12.7873 C   0  0  0  0  0  0  0  0  0  0  0  0
   43.8013   16.5972  -12.6186 C   0  0  0  0  0  0  0  0  0  0  0  0
   42.9558   15.6189  -13.0632 N   0  0  0  0  0  0  0  0  0  0  0  0
   41.6420   15.5622  -13.1072 N   0  0  0  0  0  0  0  0  0  0  0  0
   40.9677   14.5035  -13.5857 C   0  0  0  0  0  0  0  0  0  0  0  0
   41.7324   13.4547  -14.0395 C   0  0  0  0  0  0  0  0  0  0  0  0
   43.1234   13.4928  -14.0024 C   0  0  0  0  0  0  0  0  0  0  0  0
   43.7213   14.6114  -13.4986 C   0  0  0  0  0  0  0  0  0  0  0  0
   45.0083   14.9459  -13.3328 N   0  0  0  0  0  0  0  0  0  0  0  0
   46.9703   17.6499  -13.4229 C   0  0  0  0  0  0  0  0  0  0  0  0
   46.5027   17.6964  -14.6114 O   0  0  0  0  0  0  0  0  0  0  0  0
   46.2748   16.8788  -12.4584 N   0  0  0  0  0  0  0  0  0  0  0  0
   46.6454   16.8358  -11.4945 H   0  0  0  0  0  0  0  0  0  0  0  0
   48.9129   18.6055  -14.4656 C   0  0  0  0  0  0  0  0  0  0  0  0
   48.1965   18.4010  -13.1472 C   0  0  0  0  0  0  0  0  0  0  0  0
   47.8592   19.7480  -12.5829 C   0  0  0  0  0  0  0  0  0  0  0  0
   49.1397   17.6404  -12.2412 C   0  0  0  0  0  0  0  0  0  0  0  0
   39.2492   13.0266  -15.7753 C   0  0  0  0  0  0  0  0  0  0  0  0
   38.8262   11.7304  -15.9481 C   0  0  0  0  0  0  0  0  0  0  0  0
   39.2176   10.9686  -17.0471 C   0  0  0  0  0  0  0  0  0  0  0  0
   40.0537   11.5098  -18.0030 C   0  0  0  0  0  0  0  0  0  0  0  0
   40.4346   10.7626  -19.0760 F   0  0  0  0  0  0  0  0  0  0  0  0
   40.4810   12.8053  -17.8373 C   0  0  0  0  0  0  0  0  0  0  0  0
   40.0806   13.5496  -16.7354 C   0  0  0  0  0  0  0  0  0  0  0  0
   38.9089   15.7441  -11.6050 C   0  0  0  0  0  0  0  0  0  0  0  0
   37.7968   15.7096  -10.6394 C   0  0  0  0  0  0  0  0  0  0  0  0
   37.7480   14.8227   -9.5954 C   0  0  0  0  0  0  0  0  0  0  0  0
   36.7253   14.7775   -8.6862 C   0  0  0  0  0  0  0  0  0  0  0  0
   35.6860   15.6762   -8.8306 C   0  0  0  0  0  0  0  0  0  0  0  0
   35.7093   16.5823   -9.8753 C   0  0  0  0  0  0  0  0  0  0  0  0
   36.7426   16.6088  -10.7723 C   0  0  0  0  0  0  0  0  0  0  0  0
 19 20  1  0  0  0
 20 21  1  0  0  0
 20 22  1  0  0  0
 20 15  1  0  0  0
 15 16  2  0  0  0
 15 17  1  0  0  0
 17  6  1  0  0  0
  6  7  2  0  0  0
  7  8  1  0  0  0
  8  9  1  0  0  0
  9 10  2  0  0  0
 10  1  1  0  0  0
  1  2  2  0  0  0
  2 23  1  0  0  0
 23 24  2  0  0  0
 24 25  1  0  0  0
 25 26  2  0  0  0
 26 27  1  0  0  0
 26 28  1  0  0  0
 28 29  2  0  0  0
  2  3  1  0  0  0
  3  4  2  0  0  0
  4  5  1  0  0  0
  5 30  1  0  0  0
 30 31  1  0  0  0
 31 32  2  0  0  0
 32 33  1  0  0  0
 33 34  2  0  0  0
 34 35  1  0  0  0
 35 36  2  0  0  0
 10 11  1  0  0  0
 11 12  2  0  0  0
 12 13  1  0  0  0
 13 14  2  0  0  0
 14  6  1  0  0  0
 13  8  1  0  0  0
  5  1  1  0  0  0
 36 31  1  0  0  0
 29 23  1  0  0  0
 17 18  1  0  0  0
M  END
> <minimizedAffinity>
-8.28825

> <CNNscore>
0.0343657769

> <CNNaffinity>
5.7786760330

> <CNN_VS>
0.1985886842

> <CNNaffinity_variance>
0.5517306328

$$$$
[H]c1c([H])c([H])c(C([H])([H])n2c([H])nc(-c3c([H])c([H])c(F)c([H])c3[H])c2-c2nn3c([H])c(N([H])C(=O)C(C([H])([H])[H])(C([H])([H])[H])C([H])([H])[H])nc3c([H])c2[H])c([H])c1[H]


 36 40  0  0  0  0  0  0  0  0999 V2000
   42.2589   13.9284  -14.3918 C   0  0  0  0  0  0  0  0  0  0  0  0
   43.4758   13.3768  -14.0530 C   0  0  0  0  0  0  0  0  0  0  0  0
   43.9320   12.7598  -15.1824 N   0  0  0  0  0  0  0  0  0  0  0  0
   43.0732   12.9045  -16.1698 C   0  0  0  0  0  0  0  0  0  0  0  0
   42.0327   13.6349  -15.6664 N   0  0  0  0  0  0  0  0  0  0  0  0
   37.7377   15.9761  -11.1743 C   0  0  0  0  0  0  0  0  0  0  0  0
   38.0441   15.0355  -12.1311 C   0  0  0  0  0  0  0  0  0  0  0  0
   39.3736   15.1297  -12.4366 N   0  0  0  0  0  0  0  0  0  0  0  0
   40.1193   14.4516  -13.2823 N   0  0  0  0  0  0  0  0  0  0  0  0
   41.4308   14.6843  -13.4559 C   0  0  0  0  0  0  0  0  0  0  0  0
   41.9728   15.6895  -12.6899 C   0  0  0  0  0  0  0  0  0  0  0  0
   41.2030   16.4196  -11.7889 C   0  0  0  0  0  0  0  0  0  0  0  0
   39.8778   16.1119  -11.6806 C   0  0  0  0  0  0  0  0  0  0  0  0
   38.8957   16.6195  -10.9233 N   0  0  0  0  0  0  0  0  0  0  0  0
   36.1438   15.6667   -9.3203 C   0  0  0  0  0  0  0  0  0  0  0  0
   37.0128   14.9468   -8.7204 O   0  0  0  0  0  0  0  0  0  0  0  0
   36.4824   16.2135  -10.5832 N   0  0  0  0  0  0  0  0  0  0  0  0
   35.7859   16.7974  -11.0754 H   0  0  0  0  0  0  0  0  0  0  0  0
   34.9226   17.2043   -7.9350 C   0  0  0  0  0  0  0  0  0  0  0  0
   34.8569   15.8725   -8.6529 C   0  0  0  0  0  0  0  0  0  0  0  0
   33.7558   15.9405   -9.6675 C   0  0  0  0  0  0  0  0  0  0  0  0
   34.5820   14.8154   -7.6060 C   0  0  0  0  0  0  0  0  0  0  0  0
   44.2198   13.3683  -12.8090 C   0  0  0  0  0  0  0  0  0  0  0  0
   45.4009   14.0648  -12.7145 C   0  0  0  0  0  0  0  0  0  0  0  0
   46.1480   14.0910  -11.5388 C   0  0  0  0  0  0  0  0  0  0  0  0
   45.7096   13.4055  -10.4237 C   0  0  0  0  0  0  0  0  0  0  0  0
   46.4423   13.4329   -9.2760 F   0  0  0  0  0  0  0  0  0  0  0  0
   44.5296   12.7066  -10.5102 C   0  0  0  0  0  0  0  0  0  0  0  0
   43.7981   12.6917  -11.6906 C   0  0  0  0  0  0  0  0  0  0  0  0
   40.8654   14.0161  -16.4450 C   0  0  0  0  0  0  0  0  0  0  0  0
   40.1040   12.8423  -16.9061 C   0  0  0  0  0  0  0  0  0  0  0  0
   40.3576   12.2150  -18.0981 C   0  0  0  0  0  0  0  0  0  0  0  0
   39.6635   11.1213  -18.5420 C   0  0  0  0  0  0  0  0  0  0  0  0
   38.6521   10.6241  -17.7428 C   0  0  0  0  0  0  0  0  0  0  0  0
   38.3745   11.2378  -16.5348 C   0  0  0  0  0  0  0  0  0  0  0  0
   39.0820   12.3304  -16.1118 C   0  0  0  0  0  0  0  0  0  0  0  0
 19 20  1  0  0  0
 20 21  1  0  0  0
 20 22  1  0  0  0
 20 15  1  0  0  0
 15 16  2  0  0  0
 15 17  1  0  0  0
 17  6  1  0  0  0
  6  7  2  0  0  0
  7  8  1  0  0  0
  8  9  1  0  0  0
  9 10  2  0  0  0
 10  1  1  0  0  0
  1  2  2  0  0  0
  2 23  1  0  0  0
 23 24  2  0  0  0
 24 25  1  0  0  0
 25 26  2  0  0  0
 26 27  1  0  0  0
 26 28  1  0  0  0
 28 29  2  0  0  0
  2  3  1  0  0  0
  3  4  2  0  0  0
  4  5  1  0  0  0
  5 30  1  0  0  0
 30 31  1  0  0  0
 31 32  2  0  0  0
 32 33  1  0  0  0
 33 34  2  0  0  0
 34 35  1  0  0  0
 35 36  2  0  0  0
 10 11  1  0  0  0
 11 12  2  0  0  0
 12 13  1  0  0  0
 13 14  2  0  0  0
 14  6  1  0  0  0
 13  8  1  0  0  0
  5  1  1  0  0  0
 36 31  1  0  0  0
 29 23  1  0  0  0
 17 18  1  0  0  0
M  END
> <minimizedAffinity>
-8.16993

> <CNNscore>
0.0337754115

> <CNNaffinity>
5.8640184402

> <CNN_VS>
0.1980596334

> <CNNaffinity_variance>
0.5596116781

$$$$
[H]c1c([H])c([H])c(C([H])([H])n2c([H])nc(-c3c([H])c([H])c(F)c([H])c3[H])c2-c2nn3c([H])c(N([H])C(=O)C(C([H])([H])[H])(C([H])([H])[H])C([H])([H])[H])nc3c([H])c2[H])c([H])c1[H]


 36 40  0  0  0  0  0  0  0  0999 V2000
   41.9008   14.0151  -14.4263 C   0  0  0  0  0  0  0  0  0  0  0  0
   43.1447   13.6296  -13.9746 C   0  0  0  0  0  0  0  0  0  0  0  0
   43.8088   13.1580  -15.0704 N   0  0  0  0  0  0  0  0  0  0  0  0
   43.0488   13.2348  -16.1427 C   0  0  0  0  0  0  0  0  0  0  0  0
   41.8605   13.7708  -15.7304 N   0  0  0  0  0  0  0  0  0  0  0  0
   39.0394   17.0201  -10.2110 C   0  0  0  0  0  0  0  0  0  0  0  0
   40.3047   16.7779  -10.6954 C   0  0  0  0  0  0  0  0  0  0  0  0
   40.2164   15.9271  -11.7622 N   0  0  0  0  0  0  0  0  0  0  0  0
   41.1441   15.4142  -12.5415 N   0  0  0  0  0  0  0  0  0  0  0  0
   40.8709   14.5809  -13.5591 C   0  0  0  0  0  0  0  0  0  0  0  0
   39.5434   14.2802  -13.7542 C   0  0  0  0  0  0  0  0  0  0  0  0
   38.5453   14.8113  -12.9422 C   0  0  0  0  0  0  0  0  0  0  0  0
   38.9184   15.6497  -11.9320 C   0  0  0  0  0  0  0  0  0  0  0  0
   38.2125   16.3058  -11.0010 N   0  0  0  0  0  0  0  0  0  0  0  0
   38.5544   17.3163   -7.8129 C   0  0  0  0  0  0  0  0  0  0  0  0
   38.7694   16.0689   -7.6363 O   0  0  0  0  0  0  0  0  0  0  0  0
   38.6853   17.8404   -9.1232 N   0  0  0  0  0  0  0  0  0  0  0  0
   38.5138   18.8482   -9.2753 H   0  0  0  0  0  0  0  0  0  0  0  0
   37.8902   19.5191   -7.1195 C   0  0  0  0  0  0  0  0  0  0  0  0
   38.1867   18.1132   -6.6409 C   0  0  0  0  0  0  0  0  0  0  0  0
   36.9440   17.5602   -6.0115 C   0  0  0  0  0  0  0  0  0  0  0  0
   39.3179   18.2125   -5.6412 C   0  0  0  0  0  0  0  0  0  0  0  0
   43.7435   13.6543  -12.6547 C   0  0  0  0  0  0  0  0  0  0  0  0
   44.3384   14.8052  -12.1958 C   0  0  0  0  0  0  0  0  0  0  0  0
   44.9220   14.8790  -10.9327 C   0  0  0  0  0  0  0  0  0  0  0  0
   44.9147   13.7777  -10.1006 C   0  0  0  0  0  0  0  0  0  0  0  0
   45.4861   13.8529   -8.8666 F   0  0  0  0  0  0  0  0  0  0  0  0
   44.3219   12.6231  -10.5522 C   0  0  0  0  0  0  0  0  0  0  0  0
   43.7452   12.5679  -11.8143 C   0  0  0  0  0  0  0  0  0  0  0  0
   40.7386   14.0227  -16.6204 C   0  0  0  0  0  0  0  0  0  0  0  0
   40.1277   12.7722  -17.1034 C   0  0  0  0  0  0  0  0  0  0  0  0
   40.4413   12.2129  -18.3149 C   0  0  0  0  0  0  0  0  0  0  0  0
   39.8871   11.0502  -18.7793 C   0  0  0  0  0  0  0  0  0  0  0  0
   38.9608   10.4066  -17.9814 C   0  0  0  0  0  0  0  0  0  0  0  0
   38.6255   10.9488  -16.7540 C   0  0  0  0  0  0  0  0  0  0  0  0
   39.1928   12.1127  -16.3106 C   0  0  0  0  0  0  0  0  0  0  0  0
 19 20  1  0  0  0
 20 21  1  0  0  0
 20 22  1  0  0  0
 20 15  1  0  0  0
 15 16  2  0  0  0
 15 17  1  0  0  0
 17  6  1  0  0  0
  6  7  2  0  0  0
  7  8  1  0  0  0
  8  9  1  0  0  0
  9 10  2  0  0  0
 10  1  1  0  0  0
  1  2  2  0  0  0
  2 23  1  0  0  0
 23 24  2  0  0  0
 24 25  1  0  0  0
 25 26  2  0  0  0
 26 27  1  0  0  0
 26 28  1  0  0  0
 28 29  2  0  0  0
  2  3  1  0  0  0
  3  4  2  0  0  0
  4  5  1  0  0  0
  5 30  1  0  0  0
 30 31  1  0  0  0
 31 32  2  0  0  0
 32 33  1  0  0  0
 33 34  2  0  0  0
 34 35  1  0  0  0
 35 36  2  0  0  0
 10 11  1  0  0  0
 11 12  2  0  0  0
 12 13  1  0  0  0
 13 14  2  0  0  0
 14  6  1  0  0  0
 13  8  1  0  0  0
  5  1  1  0  0  0
 36 31  1  0  0  0
 29 23  1  0  0  0
 17 18  1  0  0  0
M  END
> <minimizedAffinity>
-7.81791

> <CNNscore>
0.0329791680

> <CNNaffinity>
5.9603972435

> <CNN_VS>
0.1965689361

> <CNNaffinity_variance>
0.2350576371

$$$$
[H]c1nc(N([H])[H])c(OC([H])([H])C([H])([H])[H])c(N2C([H])([H])C([H])([H])N(C([H])(c3c([H])c([H])c(C(F)(F)F)c([H])c3[H])C([H])([H])N([H])[H])C([H])([H])C2([H])[H])n1


 33 35  0  0  0  0  0  0  0  0999 V2000
   36.1963   12.6067  -14.5529 N   0  0  0  0  0  0  0  0  0  0  0  0
   35.8864   12.0711  -13.2462 C   0  0  0  0  0  0  0  0  0  0  0  0
   35.7103   13.2997  -12.3868 C   0  0  0  0  0  0  0  0  0  0  0  0
   34.3270   13.8085  -12.5781 N   0  0  0  0  0  0  0  0  0  0  0  0
   34.0767   13.7012  -14.0184 C   0  0  0  0  0  0  0  0  0  0  0  0
   35.3025   13.7823  -14.8579 C   0  0  0  0  0  0  0  0  0  0  0  0
   36.9553   11.5867  -16.7110 C   0  0  0  0  0  0  0  0  0  0  0  0
   38.0446   11.1769  -17.5102 C   0  0  0  0  0  0  0  0  0  0  0  0
   37.8301   10.5230  -18.7456 N   0  0  0  0  0  0  0  0  0  0  0  0
   39.2835   11.4041  -17.1035 N   0  0  0  0  0  0  0  0  0  0  0  0
   39.4731   12.0306  -15.9234 C   0  0  0  0  0  0  0  0  0  0  0  0
   38.4464   12.4155  -15.1663 N   0  0  0  0  0  0  0  0  0  0  0  0
   37.1195   12.2095  -15.5239 C   0  0  0  0  0  0  0  0  0  0  0  0
   38.4003   10.8231  -19.5811 H   0  0  0  0  0  0  0  0  0  0  0  0
   37.1305    9.7415  -18.8695 H   0  0  0  0  0  0  0  0  0  0  0  0
   35.7130   11.2953  -17.2525 O   0  0  0  0  0  0  0  0  0  0  0  0
   33.5076   10.8872  -16.4177 C   0  0  0  0  0  0  0  0  0  0  0  0
   34.8778   10.3017  -16.6758 C   0  0  0  0  0  0  0  0  0  0  0  0
   34.3110   15.2135  -12.2218 C   0  0  0  0  0  0  0  0  0  0  0  0
   33.3273   15.5132  -11.1677 C   0  0  0  0  0  0  0  0  0  0  0  0
   33.7816   15.8404   -9.9041 C   0  0  0  0  0  0  0  0  0  0  0  0
   32.9049   16.0241   -8.8440 C   0  0  0  0  0  0  0  0  0  0  0  0
   31.5489   15.8764   -9.0337 C   0  0  0  0  0  0  0  0  0  0  0  0
   31.0607   15.5561  -10.2774 C   0  0  0  0  0  0  0  0  0  0  0  0
   31.9779   15.3828  -11.3179 C   0  0  0  0  0  0  0  0  0  0  0  0
   30.6179   16.0139   -7.8871 C   0  0  0  0  0  0  0  0  0  0  0  0
   29.3524   15.5823   -8.3460 F   0  0  0  0  0  0  0  0  0  0  0  0
   30.4597   17.3104   -7.4631 F   0  0  0  0  0  0  0  0  0  0  0  0
   30.9411   15.1571   -6.8618 F   0  0  0  0  0  0  0  0  0  0  0  0
   35.6818   15.5149  -11.5758 C   0  0  0  0  0  0  0  0  0  0  0  0
   36.2595   16.7361  -12.0117 N   0  0  0  0  0  0  0  0  0  0  0  0
   36.9416   16.5982  -12.7660 H   0  0  0  0  0  0  0  0  0  0  0  0
   36.5428   17.3672  -11.2545 H   0  0  0  0  0  0  0  0  0  0  0  0
 17 18  1  0  0  0
 18 16  1  0  0  0
 16  7  1  0  0  0
  7  8  2  0  0  0
  8  9  1  0  0  0
  8 10  1  0  0  0
 10 11  2  0  0  0
 11 12  1  0  0  0
 12 13  2  0  0  0
 13  1  1  0  0  0
  1  2  1  0  0  0
  2  3  1  0  0  0
  3  4  1  0  0  0
  4 19  1  0  0  0
 19 30  1  0  0  0
 30 31  1  0  0  0
 19 20  1  0  0  0
 20 21  2  0  0  0
 21 22  1  0  0  0
 22 23  2  0  0  0
 23 26  1  0  0  0
 26 27  1  0  0  0
 26 28  1  0  0  0
 26 29  1  0  0  0
 23 24  1  0  0  0
 24 25  2  0  0  0
  4  5  1  0  0  0
  5  6  1  0  0  0
 13  7  1  0  0  0
  6  1  1  0  0  0
 25 20  1  0  0  0
  9 14  1  0  0  0
  9 15  1  0  0  0
 31 32  1  0  0  0
 31 33  1  0  0  0
M  END
> <minimizedAffinity>
-7.86647

> <CNNscore>
0.3158825040

> <CNNaffinity>
6.1802644730

> <CNN_VS>
1.9522373676

> <CNNaffinity_variance>
0.4848471284

$$$$
[H]c1nc(N([H])[H])c(OC([H])([H])C([H])([H])[H])c(N2C([H])([H])C([H])([H])N(C([H])(c3c([H])c([H])c(C(F)(F)F)c([H])c3[H])C([H])([H])N([H])[H])C([H])([H])C2([H])[H])n1


 33 35  0  0  0  0  0  0  0  0999 V2000
   37.7888   13.0979  -14.4957 N   0  0  0  0  0  0  0  0  0  0  0  0
   36.9533   11.9266  -14.3528 C   0  0  0  0  0  0  0  0  0  0  0  0
   36.1381   12.2154  -13.1154 C   0  0  0  0  0  0  0  0  0  0  0  0
   34.9860   13.0699  -13.5047 N   0  0  0  0  0  0  0  0  0  0  0  0
   35.5390   14.0527  -14.4411 C   0  0  0  0  0  0  0  0  0  0  0  0
   36.9832   14.3457  -14.2350 C   0  0  0  0  0  0  0  0  0  0  0  0
   39.8210   12.8536  -15.9392 C   0  0  0  0  0  0  0  0  0  0  0  0
   41.2200   13.0067  -16.0528 C   0  0  0  0  0  0  0  0  0  0  0  0
   41.9021   12.5833  -17.2169 N   0  0  0  0  0  0  0  0  0  0  0  0
   41.9066   13.5517  -15.0611 N   0  0  0  0  0  0  0  0  0  0  0  0
   41.2423   13.9527  -13.9571 C   0  0  0  0  0  0  0  0  0  0  0  0
   39.9225   13.8064  -13.8467 N   0  0  0  0  0  0  0  0  0  0  0  0
   39.1349   13.2413  -14.8424 C   0  0  0  0  0  0  0  0  0  0  0  0
   42.6319   13.2209  -17.6342 H   0  0  0  0  0  0  0  0  0  0  0  0
   41.7209   11.6537  -17.6844 H   0  0  0  0  0  0  0  0  0  0  0  0
   39.2217   12.2758  -17.0475 O   0  0  0  0  0  0  0  0  0  0  0  0
   37.6574   10.6416  -17.8282 C   0  0  0  0  0  0  0  0  0  0  0  0
   38.9569   10.8811  -17.0928 C   0  0  0  0  0  0  0  0  0  0  0  0
   34.5320   13.7783  -12.3243 C   0  0  0  0  0  0  0  0  0  0  0  0
   35.6066   14.5631  -11.6937 C   0  0  0  0  0  0  0  0  0  0  0  0
   35.5249   15.9426  -11.7119 C   0  0  0  0  0  0  0  0  0  0  0  0
   36.5580   16.7361  -11.2334 C   0  0  0  0  0  0  0  0  0  0  0  0
   37.7008   16.1552  -10.7300 C   0  0  0  0  0  0  0  0  0  0  0  0
   37.8154   14.7866  -10.6917 C   0  0  0  0  0  0  0  0  0  0  0  0
   36.7504   14.0248  -11.1810 C   0  0  0  0  0  0  0  0  0  0  0  0
   38.8284   17.0044  -10.2744 C   0  0  0  0  0  0  0  0  0  0  0  0
   38.3480   18.3340  -10.2628 F   0  0  0  0  0  0  0  0  0  0  0  0
   39.9065   16.9848  -11.1248 F   0  0  0  0  0  0  0  0  0  0  0  0
   39.1762   16.7353   -8.9720 F   0  0  0  0  0  0  0  0  0  0  0  0
   33.5128   14.8316  -12.8134 C   0  0  0  0  0  0  0  0  0  0  0  0
   32.1625   14.4056  -12.7131 N   0  0  0  0  0  0  0  0  0  0  0  0
   31.8037   14.0326  -13.5994 H   0  0  0  0  0  0  0  0  0  0  0  0
   31.5469   15.0559  -12.2130 H   0  0  0  0  0  0  0  0  0  0  0  0
 17 18  1  0  0  0
 18 16  1  0  0  0
 16  7  1  0  0  0
  7  8  2  0  0  0
  8  9  1  0  0  0
  8 10  1  0  0  0
 10 11  2  0  0  0
 11 12  1  0  0  0
 12 13  2  0  0  0
 13  1  1  0  0  0
  1  2  1  0  0  0
  2  3  1  0  0  0
  3  4  1  0  0  0
  4 19  1  0  0  0
 19 30  1  0  0  0
 30 31  1  0  0  0
 19 20  1  0  0  0
 20 21  2  0  0  0
 21 22  1  0  0  0
 22 23  2  0  0  0
 23 26  1  0  0  0
 26 27  1  0  0  0
 26 28  1  0  0  0
 26 29  1  0  0  0
 23 24  1  0  0  0
 24 25  2  0  0  0
  4  5  1  0  0  0
  5  6  1  0  0  0
 13  7  1  0  0  0
  6  1  1  0  0  0
 25 20  1  0  0  0
  9 14  1  0  0  0
  9 15  1  0  0  0
 31 32  1  0  0  0
 31 33  1  0  0  0
M  END
> <minimizedAffinity>
-7.36247

> <CNNscore>
0.2734933496

> <CNNaffinity>
6.4223451614

> <CNN_VS>
1.7564686537

> <CNNaffinity_variance>
0.2416595668

$$$$
[H]c1nc(N([H])[H])c(OC([H])([H])C([H])([H])[H])c(N2C([H])([H])C([H])([H])N(C([H])(c3c([H])c([H])c(C(F)(F)F)c([H])c3[H])C([H])([H])N([H])[H])C([H])([H])C2([H])[H])n1


 33 35  0  0  0  0  0  0  0  0999 V2000
   36.8677   13.1511  -14.1257 N   0  0  0  0  0  0  0  0  0  0  0  0
   36.4819   12.5191  -12.8839 C   0  0  0  0  0  0  0  0  0  0  0  0
   36.0846   13.6765  -11.9998 C   0  0  0  0  0  0  0  0  0  0  0  0
   34.6822   14.0491  -12.3213 N   0  0  0  0  0  0  0  0  0  0  0  0
   34.5978   13.9918  -13.7836 C   0  0  0  0  0  0  0  0  0  0  0  0
   35.8890   14.2426  -14.4791 C   0  0  0  0  0  0  0  0  0  0  0  0
   38.0807   11.9776  -15.9764 C   0  0  0  0  0  0  0  0  0  0  0  0
   39.2867   11.8269  -16.6949 C   0  0  0  0  0  0  0  0  0  0  0  0
   39.4104   10.8425  -17.7026 N   0  0  0  0  0  0  0  0  0  0  0  0
   40.3172   12.6129  -16.4264 N   0  0  0  0  0  0  0  0  0  0  0  0
   40.1842   13.5490  -15.4636 C   0  0  0  0  0  0  0  0  0  0  0  0
   39.0479   13.6908  -14.7823 N   0  0  0  0  0  0  0  0  0  0  0  0
   37.9253   12.9025  -15.0045 C   0  0  0  0  0  0  0  0  0  0  0  0
   39.8665   11.1096  -18.6158 H   0  0  0  0  0  0  0  0  0  0  0  0
   39.0745    9.8486  -17.5808 H   0  0  0  0  0  0  0  0  0  0  0  0
   37.0793   11.0983  -16.3577 O   0  0  0  0  0  0  0  0  0  0  0  0
   34.6881   11.1920  -16.3698 C   0  0  0  0  0  0  0  0  0  0  0  0
   35.9595   11.5451  -17.1085 C   0  0  0  0  0  0  0  0  0  0  0  0
   34.4769   15.4245  -11.9121 C   0  0  0  0  0  0  0  0  0  0  0  0
   33.4922   15.5444  -10.8239 C   0  0  0  0  0  0  0  0  0  0  0  0
   32.1474   15.4422  -11.1259 C   0  0  0  0  0  0  0  0  0  0  0  0
   31.1702   15.6567  -10.1641 C   0  0  0  0  0  0  0  0  0  0  0  0
   31.5280   15.9848   -8.8753 C   0  0  0  0  0  0  0  0  0  0  0  0
   32.8555   16.0908   -8.5373 C   0  0  0  0  0  0  0  0  0  0  0  0
   33.8071   15.8639   -9.5357 C   0  0  0  0  0  0  0  0  0  0  0  0
   30.4823   16.2725   -7.8632 C   0  0  0  0  0  0  0  0  0  0  0  0
   29.2911   15.6787   -8.3396 F   0  0  0  0  0  0  0  0  0  0  0  0
   30.2196   17.6120   -7.7133 F   0  0  0  0  0  0  0  0  0  0  0  0
   30.7438   15.6470   -6.6674 F   0  0  0  0  0  0  0  0  0  0  0  0
   35.8094   15.8972  -11.2889 C   0  0  0  0  0  0  0  0  0  0  0  0
   36.2524   17.1533  -11.7794 N   0  0  0  0  0  0  0  0  0  0  0  0
   36.9435   17.0570  -12.5320 H   0  0  0  0  0  0  0  0  0  0  0  0
   36.4687   17.8426  -11.0513 H   0  0  0  0  0  0  0  0  0  0  0  0
 17 18  1  0  0  0
 18 16  1  0  0  0
 16  7  1  0  0  0
  7  8  2  0  0  0
  8  9  1  0  0  0
  8 10  1  0  0  0
 10 11  2  0  0  0
 11 12  1  0  0  0
 12 13  2  0  0  0
 13  1  1  0  0  0
  1  2  1  0  0  0
  2  3  1  0  0  0
  3  4  1  0  0  0
  4 19  1  0  0  0
 19 30  1  0  0  0
 30 31  1  0  0  0
 19 20  1  0  0  0
 20 21  2  0  0  0
 21 22  1  0  0  0
 22 23  2  0  0  0
 23 26  1  0  0  0
 26 27  1  0  0  0
 26 28  1  0  0  0
 26 29  1  0  0  0
 23 24  1  0  0  0
 24 25  2  0  0  0
  4  5  1  0  0  0
  5  6  1  0  0  0
 13  7  1  0  0  0
  6  1  1  0  0  0
 25 20  1  0  0  0
  9 14  1  0  0  0
  9 15  1  0  0  0
 31 32  1  0  0  0
 31 33  1  0  0  0
M  END
> <minimizedAffinity>
-7.63479

> <CNNscore>
0.2305753082

> <CNNaffinity>
6.1581201553

> <CNN_VS>
1.4199104309

> <CNNaffinity_variance>
0.5559231043

$$$$
[H]c1nc(N([H])[H])c(OC([H])([H])C([H])([H])[H])c(N2C([H])([H])C([H])([H])N(C([H])(c3c([H])c([H])c(C(F)(F)F)c([H])c3[H])C([H])([H])N([H])[H])C([H])([H])C2([H])[H])n1


 33 35  0  0  0  0  0  0  0  0999 V2000
   36.6289   12.6654  -14.3142 N   0  0  0  0  0  0  0  0  0  0  0  0
   36.3136   12.1736  -12.9917 C   0  0  0  0  0  0  0  0  0  0  0  0
   36.0099   13.4261  -12.2054 C   0  0  0  0  0  0  0  0  0  0  0  0
   34.5992   13.8120  -12.4693 N   0  0  0  0  0  0  0  0  0  0  0  0
   34.4118   13.6122  -13.9093 C   0  0  0  0  0  0  0  0  0  0  0  0
   35.6578   13.7487  -14.7109 C   0  0  0  0  0  0  0  0  0  0  0  0
   38.9262   12.6121  -15.3107 C   0  0  0  0  0  0  0  0  0  0  0  0
   39.7409   12.2085  -16.3908 C   0  0  0  0  0  0  0  0  0  0  0  0
   41.1084   12.5656  -16.4386 N   0  0  0  0  0  0  0  0  0  0  0  0
   39.2243   11.4879  -17.3735 N   0  0  0  0  0  0  0  0  0  0  0  0
   37.9185   11.1530  -17.3137 C   0  0  0  0  0  0  0  0  0  0  0  0
   37.1472   11.5354  -16.2967 N   0  0  0  0  0  0  0  0  0  0  0  0
   37.6159   12.2949  -15.2315 C   0  0  0  0  0  0  0  0  0  0  0  0
   41.8131   11.8291  -16.7114 H   0  0  0  0  0  0  0  0  0  0  0  0
   41.4573   13.5386  -16.2217 H   0  0  0  0  0  0  0  0  0  0  0  0
   39.5892   13.3557  -14.3468 O   0  0  0  0  0  0  0  0  0  0  0  0
   39.2849   15.1930  -12.8439 C   0  0  0  0  0  0  0  0  0  0  0  0
   39.4478   14.7677  -14.2859 C   0  0  0  0  0  0  0  0  0  0  0  0
   34.4599   15.2275  -12.1893 C   0  0  0  0  0  0  0  0  0  0  0  0
   33.4121   15.5010  -11.1914 C   0  0  0  0  0  0  0  0  0  0  0  0
   33.7869   15.8192   -9.8997 C   0  0  0  0  0  0  0  0  0  0  0  0
   32.8473   15.9781   -8.8908 C   0  0  0  0  0  0  0  0  0  0  0  0
   31.5069   15.8141   -9.1613 C   0  0  0  0  0  0  0  0  0  0  0  0
   31.0969   15.5021  -10.4350 C   0  0  0  0  0  0  0  0  0  0  0  0
   32.0757   15.3539  -11.4219 C   0  0  0  0  0  0  0  0  0  0  0  0
   30.5086   15.9251   -8.0698 C   0  0  0  0  0  0  0  0  0  0  0  0
   29.3065   15.3746   -8.5702 F   0  0  0  0  0  0  0  0  0  0  0  0
   30.2279   17.2215   -7.7147 F   0  0  0  0  0  0  0  0  0  0  0  0
   30.8426   15.1410   -6.9912 F   0  0  0  0  0  0  0  0  0  0  0  0
   35.7747   15.6683  -11.5080 C   0  0  0  0  0  0  0  0  0  0  0  0
   36.2490   16.9307  -11.9508 N   0  0  0  0  0  0  0  0  0  0  0  0
   36.9652   16.8447  -12.6809 H   0  0  0  0  0  0  0  0  0  0  0  0
   36.4472   17.5990  -11.1984 H   0  0  0  0  0  0  0  0  0  0  0  0
 17 18  1  0  0  0
 18 16  1  0  0  0
 16  7  1  0  0  0
  7  8  2  0  0  0
  8  9  1  0  0  0
  8 10  1  0  0  0
 10 11  2  0  0  0
 11 12  1  0  0  0
 12 13  2  0  0  0
 13  1  1  0  0  0
  1  2  1  0  0  0
  2  3  1  0  0  0
  3  4  1  0  0  0
  4 19  1  0  0  0
 19 30  1  0  0  0
 30 31  1  0  0  0
 19 20  1  0  0  0
 20 21  2  0  0  0
 21 22  1  0  0  0
 22 23  2  0  0  0
 23 26  1  0  0  0
 26 27  1  0  0  0
 26 28  1  0  0  0
 26 29  1  0  0  0
 23 24  1  0  0  0
 24 25  2  0  0  0
  4  5  1  0  0  0
  5  6  1  0  0  0
 13  7  1  0  0  0
  6  1  1  0  0  0
 25 20  1  0  0  0
  9 14  1  0  0  0
  9 15  1  0  0  0
 31 32  1  0  0  0
 31 33  1  0  0  0
M  END
> <minimizedAffinity>
-7.75988

> <CNNscore>
0.1851716638

> <CNNaffinity>
5.8894600868

> <CNN_VS>
1.0905611515

> <CNNaffinity_variance>
0.5878160596

$$$$
[H]c1nc(N([H])[H])c(OC([H])([H])C([H])([H])[H])c(N2C([H])([H])C([H])([H])N(C([H])(c3c([H])c([H])c(C(F)(F)F)c([H])c3[H])C([H])([H])N([H])[H])C([H])([H])C2([H])[H])n1


 33 35  0  0  0  0  0  0  0  0999 V2000
   37.1033   12.9749  -14.3337 N   0  0  0  0  0  0  0  0  0  0  0  0
   36.8542   12.3925  -13.0340 C   0  0  0  0  0  0  0  0  0  0  0  0
   37.2050   13.5004  -12.0705 C   0  0  0  0  0  0  0  0  0  0  0  0
   36.0348   14.4099  -11.9593 N   0  0  0  0  0  0  0  0  0  0  0  0
   35.5387   14.5627  -13.3301 C   0  0  0  0  0  0  0  0  0  0  0  0
   36.5802   14.3886  -14.3784 C   0  0  0  0  0  0  0  0  0  0  0  0
   37.2639   11.5189  -16.3654 C   0  0  0  0  0  0  0  0  0  0  0  0
   38.0672   11.0506  -17.4278 C   0  0  0  0  0  0  0  0  0  0  0  0
   37.5828   10.0687  -18.3228 N   0  0  0  0  0  0  0  0  0  0  0  0
   39.2890   11.5320  -17.5929 N   0  0  0  0  0  0  0  0  0  0  0  0
   39.7374   12.4698  -16.7324 C   0  0  0  0  0  0  0  0  0  0  0  0
   38.9820   12.9109  -15.7273 N   0  0  0  0  0  0  0  0  0  0  0  0
   37.6924   12.4519  -15.4879 C   0  0  0  0  0  0  0  0  0  0  0  0
   37.7457   10.2037  -19.3565 H   0  0  0  0  0  0  0  0  0  0  0  0
   37.0718    9.2011  -18.0040 H   0  0  0  0  0  0  0  0  0  0  0  0
   36.0059   10.9397  -16.3072 O   0  0  0  0  0  0  0  0  0  0  0  0
   33.8793   11.5313  -15.3827 C   0  0  0  0  0  0  0  0  0  0  0  0
   34.8346   11.7081  -16.5416 C   0  0  0  0  0  0  0  0  0  0  0  0
   36.5105   15.7020  -11.5060 C   0  0  0  0  0  0  0  0  0  0  0  0
   35.7679   16.1927  -10.3329 C   0  0  0  0  0  0  0  0  0  0  0  0
   36.4102   17.0260   -9.4367 C   0  0  0  0  0  0  0  0  0  0  0  0
   35.7999   17.4304   -8.2577 C   0  0  0  0  0  0  0  0  0  0  0  0
   34.5281   16.9983   -7.9532 C   0  0  0  0  0  0  0  0  0  0  0  0
   33.8571   16.1728   -8.8227 C   0  0  0  0  0  0  0  0  0  0  0  0
   34.5073   15.7919  -10.0000 C   0  0  0  0  0  0  0  0  0  0  0  0
   33.9003   17.3826   -6.6654 C   0  0  0  0  0  0  0  0  0  0  0  0
   32.7765   16.5406   -6.5018 F   0  0  0  0  0  0  0  0  0  0  0  0
   33.4292   18.6723   -6.6495 F   0  0  0  0  0  0  0  0  0  0  0  0
   34.7180   17.1042   -5.5960 F   0  0  0  0  0  0  0  0  0  0  0  0
   37.9512   15.4807  -10.9935 C   0  0  0  0  0  0  0  0  0  0  0  0
   38.9232   16.2576  -11.6764 N   0  0  0  0  0  0  0  0  0  0  0  0
   39.3900   15.7307  -12.4233 H   0  0  0  0  0  0  0  0  0  0  0  0
   39.5319   16.8118  -11.0645 H   0  0  0  0  0  0  0  0  0  0  0  0
 17 18  1  0  0  0
 18 16  1  0  0  0
 16  7  1  0  0  0
  7  8  2  0  0  0
  8  9  1  0  0  0
  8 10  1  0  0  0
 10 11  2  0  0  0
 11 12  1  0  0  0
 12 13  2  0  0  0
 13  1  1  0  0  0
  1  2  1  0  0  0
  2  3  1  0  0  0
  3  4  1  0  0  0
  4 19  1  0  0  0
 19 30  1  0  0  0
 30 31  1  0  0  0
 19 20  1  0  0  0
 20 21  2  0  0  0
 21 22  1  0  0  0
 22 23  2  0  0  0
 23 26  1  0  0  0
 26 27  1  0  0  0
 26 28  1  0  0  0
 26 29  1  0  0  0
 23 24  1  0  0  0
 24 25  2  0  0  0
  4  5  1  0  0  0
  5  6  1  0  0  0
 13  7  1  0  0  0
  6  1  1  0  0  0
 25 20  1  0  0  0
  9 14  1  0  0  0
  9 15  1  0  0  0
 31 32  1  0  0  0
 31 33  1  0  0  0
M  END
> <minimizedAffinity>
-6.72322

> <CNNscore>
0.1448975652

> <CNNaffinity>
6.0188455582

> <CNN_VS>
0.8721160889

> <CNNaffinity_variance>
0.6215830445

$$$$
[H]c1nc(N([H])[H])c(OC([H])([H])C([H])([H])[H])c(N2C([H])([H])C([H])([H])N(C([H])(c3c([H])c([H])c(C(F)(F)F)c([H])c3[H])C([H])([H])N([H])[H])C([H])([H])C2([H])[H])n1


 33 35  0  0  0  0  0  0  0  0999 V2000
   37.1777   13.3111  -14.3336 N   0  0  0  0  0  0  0  0  0  0  0  0
   37.2495   14.7518  -14.2355 C   0  0  0  0  0  0  0  0  0  0  0  0
   36.1466   15.1013  -13.2657 C   0  0  0  0  0  0  0  0  0  0  0  0
   36.6637   14.9163  -11.8847 N   0  0  0  0  0  0  0  0  0  0  0  0
   37.4315   13.6684  -11.9286 C   0  0  0  0  0  0  0  0  0  0  0  0
   36.9730   12.7068  -12.9672 C   0  0  0  0  0  0  0  0  0  0  0  0
   38.3698   11.9571  -16.0712 C   0  0  0  0  0  0  0  0  0  0  0  0
   38.2649   11.1674  -17.2368 C   0  0  0  0  0  0  0  0  0  0  0  0
   39.4219   10.6757  -17.8843 N   0  0  0  0  0  0  0  0  0  0  0  0
   37.0723   10.8811  -17.7345 N   0  0  0  0  0  0  0  0  0  0  0  0
   35.9770   11.3555  -17.1052 C   0  0  0  0  0  0  0  0  0  0  0  0
   36.0740   12.1034  -16.0067 N   0  0  0  0  0  0  0  0  0  0  0  0
   37.2890   12.4484  -15.4273 C   0  0  0  0  0  0  0  0  0  0  0  0
   39.4323    9.6703  -18.2043 H   0  0  0  0  0  0  0  0  0  0  0  0
   40.2745   11.2707  -18.0701 H   0  0  0  0  0  0  0  0  0  0  0  0
   39.6721   12.1784  -15.6511 O   0  0  0  0  0  0  0  0  0  0  0  0
   40.8608   13.9080  -14.5011 C   0  0  0  0  0  0  0  0  0  0  0  0
   40.2918   13.4447  -15.8234 C   0  0  0  0  0  0  0  0  0  0  0  0
   35.5307   14.7170  -11.0027 C   0  0  0  0  0  0  0  0  0  0  0  0
   35.7259   15.3500   -9.6876 C   0  0  0  0  0  0  0  0  0  0  0  0
   36.0743   14.5574   -8.6102 C   0  0  0  0  0  0  0  0  0  0  0  0
   36.1635   15.0777   -7.3267 C   0  0  0  0  0  0  0  0  0  0  0  0
   35.8975   16.4098   -7.0999 C   0  0  0  0  0  0  0  0  0  0  0  0
   35.5526   17.2290   -8.1476 C   0  0  0  0  0  0  0  0  0  0  0  0
   35.4772   16.6651   -9.4244 C   0  0  0  0  0  0  0  0  0  0  0  0
   35.9346   16.9513   -5.7193 C   0  0  0  0  0  0  0  0  0  0  0  0
   35.0145   16.1872   -4.9657 F   0  0  0  0  0  0  0  0  0  0  0  0
   35.5221   18.2582   -5.6329 F   0  0  0  0  0  0  0  0  0  0  0  0
   37.1540   16.7400   -5.1210 F   0  0  0  0  0  0  0  0  0  0  0  0
   34.3467   15.4829  -11.6345 C   0  0  0  0  0  0  0  0  0  0  0  0
   33.1165   14.7773  -11.5747 N   0  0  0  0  0  0  0  0  0  0  0  0
   32.9123   14.2739  -12.4455 H   0  0  0  0  0  0  0  0  0  0  0  0
   32.3403   15.3088  -11.1661 H   0  0  0  0  0  0  0  0  0  0  0  0
 17 18  1  0  0  0
 18 16  1  0  0  0
 16  7  1  0  0  0
  7  8  2  0  0  0
  8  9  1  0  0  0
  8 10  1  0  0  0
 10 11  2  0  0  0
 11 12  1  0  0  0
 12 13  2  0  0  0
 13  1  1  0  0  0
  1  2  1  0  0  0
  2  3  1  0  0  0
  3  4  1  0  0  0
  4 19  1  0  0  0
 19 30  1  0  0  0
 30 31  1  0  0  0
 19 20  1  0  0  0
 20 21  2  0  0  0
 21 22  1  0  0  0
 22 23  2  0  0  0
 23 26  1  0  0  0
 26 27  1  0  0  0
 26 28  1  0  0  0
 26 29  1  0  0  0
 23 24  1  0  0  0
 24 25  2  0  0  0
  4  5  1  0  0  0
  5  6  1  0  0  0
 13  7  1  0  0  0
  6  1  1  0  0  0
 25 20  1  0  0  0
  9 14  1  0  0  0
  9 15  1  0  0  0
 31 32  1  0  0  0
 31 33  1  0  0  0
M  END
> <minimizedAffinity>
-6.27048

> <CNNscore>
0.1189977750

> <CNNaffinity>
5.8240518570

> <CNN_VS>
0.6930491924

> <CNNaffinity_variance>
0.6518044472

$$$$
[H]c1nc(N([H])[H])c(OC([H])([H])C([H])([H])[H])c(N2C([H])([H])C([H])([H])N(C([H])(c3c([H])c([H])c(C(F)(F)F)c([H])c3[H])C([H])([H])N([H])[H])C([H])([H])C2([H])[H])n1


 33 35  0  0  0  0  0  0  0  0999 V2000
   37.3934   12.8071  -14.6924 N   0  0  0  0  0  0  0  0  0  0  0  0
   37.0529   12.2331  -13.4098 C   0  0  0  0  0  0  0  0  0  0  0  0
   37.3732   13.3335  -12.4272 C   0  0  0  0  0  0  0  0  0  0  0  0
   36.2215   14.2720  -12.3861 N   0  0  0  0  0  0  0  0  0  0  0  0
   35.8119   14.4349  -13.7841 C   0  0  0  0  0  0  0  0  0  0  0  0
   36.9093   14.2332  -14.7684 C   0  0  0  0  0  0  0  0  0  0  0  0
   39.2236   12.5599  -16.3844 C   0  0  0  0  0  0  0  0  0  0  0  0
   39.6528   11.9581  -17.5873 C   0  0  0  0  0  0  0  0  0  0  0  0
   40.9012   12.2951  -18.1597 N   0  0  0  0  0  0  0  0  0  0  0  0
   38.8818   11.0679  -18.1913 N   0  0  0  0  0  0  0  0  0  0  0  0
   37.6940   10.7548  -17.6327 C   0  0  0  0  0  0  0  0  0  0  0  0
   37.2858   11.3237  -16.4991 N   0  0  0  0  0  0  0  0  0  0  0  0
   38.0370   12.2677  -15.8094 C   0  0  0  0  0  0  0  0  0  0  0  0
   41.5172   11.5181  -18.5205 H   0  0  0  0  0  0  0  0  0  0  0  0
   41.2431   13.2903  -18.2506 H   0  0  0  0  0  0  0  0  0  0  0  0
   40.1247   13.4686  -15.8515 O   0  0  0  0  0  0  0  0  0  0  0  0
   41.3820   14.1283  -13.9252 C   0  0  0  0  0  0  0  0  0  0  0  0
   41.1455   13.0490  -14.9576 C   0  0  0  0  0  0  0  0  0  0  0  0
   36.7014   15.5526  -11.9054 C   0  0  0  0  0  0  0  0  0  0  0  0
   35.9510   16.0273  -10.7307 C   0  0  0  0  0  0  0  0  0  0  0  0
   36.6030   16.8028   -9.7906 C   0  0  0  0  0  0  0  0  0  0  0  0
   35.9814   17.1863   -8.6105 C   0  0  0  0  0  0  0  0  0  0  0  0
   34.6882   16.7911   -8.3493 C   0  0  0  0  0  0  0  0  0  0  0  0
   34.0072   16.0235   -9.2630 C   0  0  0  0  0  0  0  0  0  0  0  0
   34.6694   15.6619  -10.4398 C   0  0  0  0  0  0  0  0  0  0  0  0
   34.0460   17.1510   -7.0615 C   0  0  0  0  0  0  0  0  0  0  0  0
   34.8332   18.1804   -6.4965 F   0  0  0  0  0  0  0  0  0  0  0  0
   34.0324   16.1234   -6.1507 F   0  0  0  0  0  0  0  0  0  0  0  0
   32.8038   17.7089   -7.2492 F   0  0  0  0  0  0  0  0  0  0  0  0
   38.1357   15.3124  -11.3835 C   0  0  0  0  0  0  0  0  0  0  0  0
   39.1125   16.1311  -12.0082 N   0  0  0  0  0  0  0  0  0  0  0  0
   39.5941   15.6484  -12.7753 H   0  0  0  0  0  0  0  0  0  0  0  0
   39.7081   16.6550  -11.3580 H   0  0  0  0  0  0  0  0  0  0  0  0
 17 18  1  0  0  0
 18 16  1  0  0  0
 16  7  1  0  0  0
  7  8  2  0  0  0
  8  9  1  0  0  0
  8 10  1  0  0  0
 10 11  2  0  0  0
 11 12  1  0  0  0
 12 13  2  0  0  0
 13  1  1  0  0  0
  1  2  1  0  0  0
  2  3  1  0  0  0
  3  4  1  0  0  0
  4 19  1  0  0  0
 19 30  1  0  0  0
 30 31  1  0  0  0
 19 20  1  0  0  0
 20 21  2  0  0  0
 21 22  1  0  0  0
 22 23  2  0  0  0
 23 26  1  0  0  0
 26 27  1  0  0  0
 26 28  1  0  0  0
 26 29  1  0  0  0
 23 24  1  0  0  0
 24 25  2  0  0  0
  4  5  1  0  0  0
  5  6  1  0  0  0
 13  7  1  0  0  0
  6  1  1  0  0  0
 25 20  1  0  0  0
  9 14  1  0  0  0
  9 15  1  0  0  0
 31 32  1  0  0  0
 31 33  1  0  0  0
M  END
> <minimizedAffinity>
-6.82428

> <CNNscore>
0.1109215915

> <CNNaffinity>
5.9208474159

> <CNN_VS>
0.6567498446

> <CNNaffinity_variance>
0.4165945649

$$$$
[H]c1nc(N([H])[H])c(OC([H])([H])C([H])([H])[H])c(N2C([H])([H])C([H])([H])N(C([H])(c3c([H])c([H])c(C(F)(F)F)c([H])c3[H])C([H])([H])N([H])[H])C([H])([H])C2([H])[H])n1


 33 35  0  0  0  0  0  0  0  0999 V2000
   37.1816   16.1648   -9.4139 N   0  0  0  0  0  0  0  0  0  0  0  0
   36.8434   14.7658   -9.2773 C   0  0  0  0  0  0  0  0  0  0  0  0
   35.7602   14.5556  -10.3075 C   0  0  0  0  0  0  0  0  0  0  0  0
   36.4076   14.3373  -11.6274 N   0  0  0  0  0  0  0  0  0  0  0  0
   37.4962   15.3173  -11.6852 C   0  0  0  0  0  0  0  0  0  0  0  0
   37.2590   16.5407  -10.8722 C   0  0  0  0  0  0  0  0  0  0  0  0
   38.4936   17.3072   -7.6119 C   0  0  0  0  0  0  0  0  0  0  0  0
   38.5331   18.3338   -6.6435 C   0  0  0  0  0  0  0  0  0  0  0  0
   39.6363   18.4608   -5.7681 N   0  0  0  0  0  0  0  0  0  0  0  0
   37.5283   19.1901   -6.5487 N   0  0  0  0  0  0  0  0  0  0  0  0
   36.4829   19.0580   -7.3917 C   0  0  0  0  0  0  0  0  0  0  0  0
   36.4425   18.0880   -8.3044 N   0  0  0  0  0  0  0  0  0  0  0  0
   37.4562   17.1507   -8.4623 C   0  0  0  0  0  0  0  0  0  0  0  0
   40.0385   19.4215   -5.5990 H   0  0  0  0  0  0  0  0  0  0  0  0
   40.0724   17.6388   -5.2684 H   0  0  0  0  0  0  0  0  0  0  0  0
   39.6083   16.4831   -7.6109 O   0  0  0  0  0  0  0  0  0  0  0  0
   40.2497   14.1833   -7.7744 C   0  0  0  0  0  0  0  0  0  0  0  0
   39.6032   15.2456   -6.9139 C   0  0  0  0  0  0  0  0  0  0  0  0
   35.4468   14.6702  -12.6606 C   0  0  0  0  0  0  0  0  0  0  0  0
   35.3614   13.6325  -13.7018 C   0  0  0  0  0  0  0  0  0  0  0  0
   36.3580   13.5611  -14.6567 C   0  0  0  0  0  0  0  0  0  0  0  0
   36.2762   12.6790  -15.7250 C   0  0  0  0  0  0  0  0  0  0  0  0
   35.1831   11.8518  -15.8573 C   0  0  0  0  0  0  0  0  0  0  0  0
   34.1751   11.8918  -14.9246 C   0  0  0  0  0  0  0  0  0  0  0  0
   34.2987   12.7927  -13.8629 C   0  0  0  0  0  0  0  0  0  0  0  0
   35.0685   10.9525  -17.0315 C   0  0  0  0  0  0  0  0  0  0  0  0
   33.6898   10.8587  -17.3297 F   0  0  0  0  0  0  0  0  0  0  0  0
   35.5042    9.6736  -16.7859 F   0  0  0  0  0  0  0  0  0  0  0  0
   35.6434   11.5017  -18.1529 F   0  0  0  0  0  0  0  0  0  0  0  0
   34.0581   14.6612  -11.9833 C   0  0  0  0  0  0  0  0  0  0  0  0
   33.1112   15.5080  -12.6167 N   0  0  0  0  0  0  0  0  0  0  0  0
   33.0367   16.4228  -12.1575 H   0  0  0  0  0  0  0  0  0  0  0  0
   32.2264   15.0501  -12.8604 H   0  0  0  0  0  0  0  0  0  0  0  0
 17 18  1  0  0  0
 18 16  1  0  0  0
 16  7  1  0  0  0
  7  8  2  0  0  0
  8  9  1  0  0  0
  8 10  1  0  0  0
 10 11  2  0  0  0
 11 12  1  0  0  0
 12 13  2  0  0  0
 13  1  1  0  0  0
  1  2  1  0  0  0
  2  3  1  0  0  0
  3  4  1  0  0  0
  4 19  1  0  0  0
 19 30  1  0  0  0
 30 31  1  0  0  0
 19 20  1  0  0  0
 20 21  2  0  0  0
 21 22  1  0  0  0
 22 23  2  0  0  0
 23 26  1  0  0  0
 26 27  1  0  0  0
 26 28  1  0  0  0
 26 29  1  0  0  0
 23 24  1  0  0  0
 24 25  2  0  0  0
  4  5  1  0  0  0
  5  6  1  0  0  0
 13  7  1  0  0  0
  6  1  1  0  0  0
 25 20  1  0  0  0
  9 14  1  0  0  0
  9 15  1  0  0  0
 31 32  1  0  0  0
 31 33  1  0  0  0
M  END
> <minimizedAffinity>
-6.87716

> <CNNscore>
0.1063847989

> <CNNaffinity>
5.5201897621

> <CNN_VS>
0.5872642994

> <CNNaffinity_variance>
0.4025833607

$$$$
[H]c1nc(N([H])[H])c(OC([H])([H])C([H])([H])[H])c(N2C([H])([H])C([H])([H])N(C([H])(c3c([H])c([H])c(C(F)(F)F)c([H])c3[H])C([H])([H])N([H])[H])C([H])([H])C2([H])[H])n1


 33 35  0  0  0  0  0  0  0  0999 V2000
   36.8195   15.7775   -6.8834 N   0  0  0  0  0  0  0  0  0  0  0  0
   35.6680   14.9822   -7.2464 C   0  0  0  0  0  0  0  0  0  0  0  0
   35.4634   15.2928   -8.7095 C   0  0  0  0  0  0  0  0  0  0  0  0
   36.3854   14.4373   -9.5014 N   0  0  0  0  0  0  0  0  0  0  0  0
   37.6540   14.4622   -8.7675 C   0  0  0  0  0  0  0  0  0  0  0  0
   37.8689   15.6954   -7.9632 C   0  0  0  0  0  0  0  0  0  0  0  0
   36.5459   17.6763   -5.2731 C   0  0  0  0  0  0  0  0  0  0  0  0
   37.0505   18.3532   -4.1414 C   0  0  0  0  0  0  0  0  0  0  0  0
   36.4435   19.5444   -3.6805 N   0  0  0  0  0  0  0  0  0  0  0  0
   38.1040   17.8724   -3.5006 N   0  0  0  0  0  0  0  0  0  0  0  0
   38.6718   16.7339   -3.9506 C   0  0  0  0  0  0  0  0  0  0  0  0
   38.1990   16.0953   -5.0201 N   0  0  0  0  0  0  0  0  0  0  0  0
   37.1004   16.5393   -5.7461 C   0  0  0  0  0  0  0  0  0  0  0  0
   36.2781   19.6584   -2.6447 H   0  0  0  0  0  0  0  0  0  0  0  0
   36.1549   20.3301   -4.3246 H   0  0  0  0  0  0  0  0  0  0  0  0
   35.4381   18.2796   -5.8479 O   0  0  0  0  0  0  0  0  0  0  0  0
   33.3013   17.7790   -6.8019 C   0  0  0  0  0  0  0  0  0  0  0  0
   34.1228   17.8454   -5.5340 C   0  0  0  0  0  0  0  0  0  0  0  0
   36.5964   15.0728  -10.7870 C   0  0  0  0  0  0  0  0  0  0  0  0
   36.0323   14.2894  -11.8989 C   0  0  0  0  0  0  0  0  0  0  0  0
   34.7773   14.6163  -12.3768 C   0  0  0  0  0  0  0  0  0  0  0  0
   34.1479   13.8474  -13.3456 C   0  0  0  0  0  0  0  0  0  0  0  0
   34.7688   12.7268  -13.8510 C   0  0  0  0  0  0  0  0  0  0  0  0
   36.0187   12.3736  -13.4029 C   0  0  0  0  0  0  0  0  0  0  0  0
   36.6179   13.1772  -12.4286 C   0  0  0  0  0  0  0  0  0  0  0  0
   34.0702   11.8725  -14.8422 C   0  0  0  0  0  0  0  0  0  0  0  0
   35.0651   11.3827  -15.7191 F   0  0  0  0  0  0  0  0  0  0  0  0
   33.1682   12.5591  -15.6173 F   0  0  0  0  0  0  0  0  0  0  0  0
   33.5234   10.7551  -14.2574 F   0  0  0  0  0  0  0  0  0  0  0  0
   35.7702   16.3784  -10.7685 C   0  0  0  0  0  0  0  0  0  0  0  0
   36.4910   17.5138  -11.2226 N   0  0  0  0  0  0  0  0  0  0  0  0
   36.8833   18.0624  -10.4489 H   0  0  0  0  0  0  0  0  0  0  0  0
   36.0235   18.0464  -11.9640 H   0  0  0  0  0  0  0  0  0  0  0  0
 17 18  1  0  0  0
 18 16  1  0  0  0
 16  7  1  0  0  0
  7  8  2  0  0  0
  8  9  1  0  0  0
  8 10  1  0  0  0
 10 11  2  0  0  0
 11 12  1  0  0  0
 12 13  2  0  0  0
 13  1  1  0  0  0
  1  2  1  0  0  0
  2  3  1  0  0  0
  3  4  1  0  0  0
  4 19  1  0  0  0
 19 30  1  0  0  0
 30 31  1  0  0  0
 19 20  1  0  0  0
 20 21  2  0  0  0
 21 22  1  0  0  0
 22 23  2  0  0  0
 23 26  1  0  0  0
 26 27  1  0  0  0
 26 28  1  0  0  0
 26 29  1  0  0  0
 23 24  1  0  0  0
 24 25  2  0  0  0
  4  5  1  0  0  0
  5  6  1  0  0  0
 13  7  1  0  0  0
  6  1  1  0  0  0
 25 20  1  0  0  0
  9 14  1  0  0  0
  9 15  1  0  0  0
 31 32  1  0  0  0
 31 33  1  0  0  0
M  END
> <minimizedAffinity>
-5.77837

> <CNNscore>
0.1057965830

> <CNNaffinity>
5.0993232727

> <CNN_VS>
0.5394909978

> <CNNaffinity_variance>
0.4437295496

$$$$
[H]OC(=O)[C@@]([H])(Oc1c(Br)c([H])c(-c2c([H])c([H])c(-c3c(C([H])([H])c4c([H])c([H])c([H])c([H])c4[H])oc4c([H])c([H])c([H])c([H])c34)c([H])c2[H])c([H])c1Br)C([H])([H])c1c([H])c([H])c([H])c([H])c1[H]


 43 48  0  0  0  0  0  0  0  0999 V2000
   36.6440   14.1783  -12.3050 C   0  0  0  0  0  0  0  0  0  0  0  0
   36.5780   12.8371  -12.6288 C   0  0  0  0  0  0  0  0  0  0  0  0
   37.3708   12.3728  -13.6462 C   0  0  0  0  0  0  0  0  0  0  0  0
   38.2387   13.1446  -14.3807 C   0  0  0  0  0  0  0  0  0  0  0  0
   38.2763   14.5008  -14.0193 C   0  0  0  0  0  0  0  0  0  0  0  0
   37.4986   14.9917  -13.0111 C   0  0  0  0  0  0  0  0  0  0  0  0
   39.0579   12.6673  -15.4781 C   0  0  0  0  0  0  0  0  0  0  0  0
   40.3664   12.8319  -15.7482 C   0  0  0  0  0  0  0  0  0  0  0  0
   40.6505   12.2290  -16.9053 O   0  0  0  0  0  0  0  0  0  0  0  0
   39.5863   11.6678  -17.4178 C   0  0  0  0  0  0  0  0  0  0  0  0
   39.3650   10.9434  -18.5683 C   0  0  0  0  0  0  0  0  0  0  0  0
   38.1140   10.4537  -18.8778 C   0  0  0  0  0  0  0  0  0  0  0  0
   37.0899   10.7149  -17.9924 C   0  0  0  0  0  0  0  0  0  0  0  0
   37.3025   11.4464  -16.8268 C   0  0  0  0  0  0  0  0  0  0  0  0
   38.5454   11.9128  -16.5549 C   0  0  0  0  0  0  0  0  0  0  0  0
   41.4206   13.5295  -14.9825 C   0  0  0  0  0  0  0  0  0  0  0  0
   42.7643   13.1007  -15.4148 C   0  0  0  0  0  0  0  0  0  0  0  0
   43.0521   12.3429  -16.5070 C   0  0  0  0  0  0  0  0  0  0  0  0
   44.3706   11.9875  -16.8337 C   0  0  0  0  0  0  0  0  0  0  0  0
   45.4235   12.3968  -16.0532 C   0  0  0  0  0  0  0  0  0  0  0  0
   45.1552   13.1650  -14.9424 C   0  0  0  0  0  0  0  0  0  0  0  0
   43.8535   13.5090  -14.6318 C   0  0  0  0  0  0  0  0  0  0  0  0
   34.2044   15.9132   -9.2228 C   0  0  0  0  0  0  0  0  0  0  0  0
   35.5500   15.5934   -8.9967 C   0  0  0  0  0  0  0  0  0  0  0  0
   36.2846   15.9681   -7.2839 Br  0  0  0  0  0  0  0  0  0  0  0  0
   36.3305   15.0342   -9.9892 C   0  0  0  0  0  0  0  0  0  0  0  0
   35.8349   14.7644  -11.2427 C   0  0  0  0  0  0  0  0  0  0  0  0
   34.5046   15.0766  -11.4790 C   0  0  0  0  0  0  0  0  0  0  0  0
   33.7156   15.6415  -10.4677 C   0  0  0  0  0  0  0  0  0  0  0  0
   31.8631   15.9245  -10.9230 Br  0  0  0  0  0  0  0  0  0  0  0  0
   33.4232   16.4616   -8.2408 O   0  0  0  0  0  0  0  0  0  0  0  0
   32.1614   15.9909   -7.7880 C   0  0  0  0  0  0  0  0  0  0  0  0
   31.4478   16.7719   -5.6037 O   0  0  0  0  0  0  0  0  0  0  0  0
   31.6764   17.0028   -6.8238 C   0  0  0  0  0  0  0  0  0  0  0  0
   31.4415   18.3129   -7.2239 O   0  0  0  0  0  0  0  0  0  0  0  0
   30.7240   18.6327   -7.8207 H   0  0  0  0  0  0  0  0  0  0  0  0
   32.2515   14.6295   -7.1189 C   0  0  0  0  0  0  0  0  0  0  0  0
   31.0425   13.7997   -7.2759 C   0  0  0  0  0  0  0  0  0  0  0  0
   30.9273   12.6176   -6.5195 C   0  0  0  0  0  0  0  0  0  0  0  0
   29.7798   11.8587   -6.6430 C   0  0  0  0  0  0  0  0  0  0  0  0
   28.7435   12.2240   -7.4852 C   0  0  0  0  0  0  0  0  0  0  0  0
   28.9028   13.3930   -8.2072 C   0  0  0  0  0  0  0  0  0  0  0  0
   30.0264   14.1764   -8.1137 C   0  0  0  0  0  0  0  0  0  0  0  0
 33 34  2  0  0  0
 34 35  1  0  0  0
 34 32  1  0  0  0
 32 37  1  0  0  0
 37 38  1  0  0  0
 38 39  2  0  0  0
 39 40  1  0  0  0
 40 41  2  0  0  0
 41 42  1  0  0  0
 42 43  2  0  0  0
 32 31  1  0  0  0
 31 23  1  0  0  0
 23 24  2  0  0  0
 24 25  1  0  0  0
 24 26  1  0  0  0
 26 27  2  0  0  0
 27  1  1  0  0  0
  1  2  2  0  0  0
  2  3  1  0  0  0
  3  4  2  0  0  0
  4  7  1  0  0  0
  7  8  2  0  0  0
  8 16  1  0  0  0
 16 17  1  0  0  0
 17 18  2  0  0  0
 18 19  1  0  0  0
 19 20  2  0  0  0
 20 21  1  0  0  0
 21 22  2  0  0  0
  8  9  1  0  0  0
  9 10  1  0  0  0
 10 11  2  0  0  0
 11 12  1  0  0  0
 12 13  2  0  0  0
 13 14  1  0  0  0
 14 15  2  0  0  0
  4  5  1  0  0  0
  5  6  2  0  0  0
 27 28  1  0  0  0
 28 29  2  0  0  0
 29 30  1  0  0  0
 43 38  1  0  0  0
 29 23  1  0  0  0
  6  1  1  0  0  0
 15  7  1  0  0  0
 22 17  1  0  0  0
 15 10  1  0  0  0
 35 36  1  0  0  0
M  END
> <minimizedAffinity>
-10.90617

> <CNNscore>
0.1234654039

> <CNNaffinity>
6.6282119751

> <CNN_VS>
0.8183548450

> <CNNaffinity_variance>
0.2971802354

$$$$
[H]OC(=O)[C@@]([H])(Oc1c(Br)c([H])c(-c2c([H])c([H])c(-c3c(C([H])([H])c4c([H])c([H])c([H])c([H])c4[H])oc4c([H])c([H])c([H])c([H])c34)c([H])c2[H])c([H])c1Br)C([H])([H])c1c([H])c([H])c([H])c([H])c1[H]


 43 48  0  0  0  0  0  0  0  0999 V2000
   35.7932   14.1986  -12.6024 C   0  0  0  0  0  0  0  0  0  0  0  0
   36.0383   12.8423  -12.6944 C   0  0  0  0  0  0  0  0  0  0  0  0
   37.0103   12.4132  -13.5604 C   0  0  0  0  0  0  0  0  0  0  0  0
   37.7721   13.2348  -14.3561 C   0  0  0  0  0  0  0  0  0  0  0  0
   37.4925   14.6051  -14.2316 C   0  0  0  0  0  0  0  0  0  0  0  0
   36.5306   15.0617  -13.3782 C   0  0  0  0  0  0  0  0  0  0  0  0
   38.7809   12.7867  -15.2967 C   0  0  0  0  0  0  0  0  0  0  0  0
   40.1064   13.0145  -15.3550 C   0  0  0  0  0  0  0  0  0  0  0  0
   40.6035   12.4129  -16.4385 O   0  0  0  0  0  0  0  0  0  0  0  0
   39.6651   11.7921  -17.1049 C   0  0  0  0  0  0  0  0  0  0  0  0
   39.6689   11.0436  -18.2612 C   0  0  0  0  0  0  0  0  0  0  0  0
   38.5101   10.4871  -18.7590 C   0  0  0  0  0  0  0  0  0  0  0  0
   37.3443   10.7065  -18.0564 C   0  0  0  0  0  0  0  0  0  0  0  0
   37.3290   11.4618  -16.8866 C   0  0  0  0  0  0  0  0  0  0  0  0
   38.4872   11.9942  -16.4268 C   0  0  0  0  0  0  0  0  0  0  0  0
   40.9872   13.7740  -14.4431 C   0  0  0  0  0  0  0  0  0  0  0  0
   42.4065   13.4504  -14.6822 C   0  0  0  0  0  0  0  0  0  0  0  0
   42.9578   13.0892  -15.8719 C   0  0  0  0  0  0  0  0  0  0  0  0
   44.3264   12.8006  -15.9952 C   0  0  0  0  0  0  0  0  0  0  0  0
   45.1616   12.8735  -14.9079 C   0  0  0  0  0  0  0  0  0  0  0  0
   44.6246   13.2373  -13.6933 C   0  0  0  0  0  0  0  0  0  0  0  0
   43.2764   13.5199  -13.5846 C   0  0  0  0  0  0  0  0  0  0  0  0
   32.7435   15.8033  -10.0362 C   0  0  0  0  0  0  0  0  0  0  0  0
   34.1005   15.8786   -9.6945 C   0  0  0  0  0  0  0  0  0  0  0  0
   34.5675   16.7347   -8.0626 Br  0  0  0  0  0  0  0  0  0  0  0  0
   35.0778   15.3602  -10.5209 C   0  0  0  0  0  0  0  0  0  0  0  0
   34.7756   14.7483  -11.7142 C   0  0  0  0  0  0  0  0  0  0  0  0
   33.4361   14.6677  -12.0639 C   0  0  0  0  0  0  0  0  0  0  0  0
   32.4476   15.1931  -11.2206 C   0  0  0  0  0  0  0  0  0  0  0  0
   30.6297   14.9133  -11.8005 Br  0  0  0  0  0  0  0  0  0  0  0  0
   31.7690   16.3095   -9.2179 O   0  0  0  0  0  0  0  0  0  0  0  0
   31.3180   15.7649   -7.9855 C   0  0  0  0  0  0  0  0  0  0  0  0
   29.1052   14.9119   -8.5011 O   0  0  0  0  0  0  0  0  0  0  0  0
   30.3419   14.7124   -8.3434 C   0  0  0  0  0  0  0  0  0  0  0  0
   30.7504   13.3982   -8.5368 O   0  0  0  0  0  0  0  0  0  0  0  0
   31.0773   12.7700   -7.8499 H   0  0  0  0  0  0  0  0  0  0  0  0
   30.6636   16.8053   -7.0918 C   0  0  0  0  0  0  0  0  0  0  0  0
   31.3556   17.0167   -5.8067 C   0  0  0  0  0  0  0  0  0  0  0  0
   32.1661   15.9855   -5.2943 C   0  0  0  0  0  0  0  0  0  0  0  0
   32.8398   16.1974   -4.1073 C   0  0  0  0  0  0  0  0  0  0  0  0
   32.7421   17.3886   -3.4085 C   0  0  0  0  0  0  0  0  0  0  0  0
   31.9342   18.3712   -3.9516 C   0  0  0  0  0  0  0  0  0  0  0  0
   31.2479   18.2019   -5.1286 C   0  0  0  0  0  0  0  0  0  0  0  0
 33 34  2  0  0  0
 34 35  1  0  0  0
 34 32  1  0  0  0
 32 37  1  0  0  0
 37 38  1  0  0  0
 38 39  2  0  0  0
 39 40  1  0  0  0
 40 41  2  0  0  0
 41 42  1  0  0  0
 42 43  2  0  0  0
 32 31  1  0  0  0
 31 23  1  0  0  0
 23 24  2  0  0  0
 24 25  1  0  0  0
 24 26  1  0  0  0
 26 27  2  0  0  0
 27  1  1  0  0  0
  1  2  2  0  0  0
  2  3  1  0  0  0
  3  4  2  0  0  0
  4  7  1  0  0  0
  7  8  2  0  0  0
  8 16  1  0  0  0
 16 17  1  0  0  0
 17 18  2  0  0  0
 18 19  1  0  0  0
 19 20  2  0  0  0
 20 21  1  0  0  0
 21 22  2  0  0  0
  8  9  1  0  0  0
  9 10  1  0  0  0
 10 11  2  0  0  0
 11 12  1  0  0  0
 12 13  2  0  0  0
 13 14  1  0  0  0
 14 15  2  0  0  0
  4  5  1  0  0  0
  5  6  2  0  0  0
 27 28  1  0  0  0
 28 29  2  0  0  0
 29 30  1  0  0  0
 43 38  1  0  0  0
 29 23  1  0  0  0
  6  1  1  0  0  0
 15  7  1  0  0  0
 22 17  1  0  0  0
 15 10  1  0  0  0
 35 36  1  0  0  0
M  END
> <minimizedAffinity>
-10.57482

> <CNNscore>
0.0915334374

> <CNNaffinity>
6.5112943649

> <CNN_VS>
0.5960011482

> <CNNaffinity_variance>
0.2780894637

$$$$
[H]OC(=O)[C@@]([H])(Oc1c(Br)c([H])c(-c2c([H])c([H])c(-c3c(C([H])([H])c4c([H])c([H])c([H])c([H])c4[H])oc4c([H])c([H])c([H])c([H])c34)c([H])c2[H])c([H])c1Br)C([H])([H])c1c([H])c([H])c([H])c([H])c1[H]


 43 48  0  0  0  0  0  0  0  0999 V2000
   40.7826   13.8454  -14.2728 C   0  0  0  0  0  0  0  0  0  0  0  0
   40.0372   14.7675  -13.5641 C   0  0  0  0  0  0  0  0  0  0  0  0
   38.6749   14.6180  -13.5328 C   0  0  0  0  0  0  0  0  0  0  0  0
   37.9805   13.6105  -14.1582 C   0  0  0  0  0  0  0  0  0  0  0  0
   38.7749   12.6946  -14.8661 C   0  0  0  0  0  0  0  0  0  0  0  0
   40.1330   12.8179  -14.9153 C   0  0  0  0  0  0  0  0  0  0  0  0
   36.5378   13.4630  -14.1551 C   0  0  0  0  0  0  0  0  0  0  0  0
   35.5865   14.0382  -13.3958 C   0  0  0  0  0  0  0  0  0  0  0  0
   34.3950   13.5486  -13.7471 O   0  0  0  0  0  0  0  0  0  0  0  0
   34.5114   12.6715  -14.7101 C   0  0  0  0  0  0  0  0  0  0  0  0
   33.5992   11.9053  -15.4015 C   0  0  0  0  0  0  0  0  0  0  0  0
   33.9985   11.0384  -16.3962 C   0  0  0  0  0  0  0  0  0  0  0  0
   35.3468   10.9657  -16.6754 C   0  0  0  0  0  0  0  0  0  0  0  0
   36.2775   11.7354  -15.9824 C   0  0  0  0  0  0  0  0  0  0  0  0
   35.8489   12.5767  -15.0103 C   0  0  0  0  0  0  0  0  0  0  0  0
   35.6996   15.0537  -12.3280 C   0  0  0  0  0  0  0  0  0  0  0  0
   34.3988   15.2813  -11.6703 C   0  0  0  0  0  0  0  0  0  0  0  0
   33.1735   15.1219  -12.2386 C   0  0  0  0  0  0  0  0  0  0  0  0
   31.9897   15.3652  -11.5238 C   0  0  0  0  0  0  0  0  0  0  0  0
   32.0304   15.7771  -10.2146 C   0  0  0  0  0  0  0  0  0  0  0  0
   33.2605   15.9450   -9.6192 C   0  0  0  0  0  0  0  0  0  0  0  0
   34.4185   15.7014  -10.3326 C   0  0  0  0  0  0  0  0  0  0  0  0
   45.0623   14.0301  -14.6064 C   0  0  0  0  0  0  0  0  0  0  0  0
   44.3741   14.7524  -13.6223 C   0  0  0  0  0  0  0  0  0  0  0  0
   45.3894   15.8103  -12.4125 Br  0  0  0  0  0  0  0  0  0  0  0  0
   42.9983   14.6921  -13.5192 C   0  0  0  0  0  0  0  0  0  0  0  0
   42.2356   13.9256  -14.3681 C   0  0  0  0  0  0  0  0  0  0  0  0
   42.9050   13.2057  -15.3462 C   0  0  0  0  0  0  0  0  0  0  0  0
   44.3013   13.2723  -15.4485 C   0  0  0  0  0  0  0  0  0  0  0  0
   45.0715   12.2934  -16.9209 Br  0  0  0  0  0  0  0  0  0  0  0  0
   46.4259   14.0909  -14.7182 O   0  0  0  0  0  0  0  0  0  0  0  0
   47.3457   13.0183  -14.5690 C   0  0  0  0  0  0  0  0  0  0  0  0
   47.4278   13.0167  -12.1434 O   0  0  0  0  0  0  0  0  0  0  0  0
   47.0937   12.4558  -13.2241 C   0  0  0  0  0  0  0  0  0  0  0  0
   46.4470   11.2350  -13.0724 O   0  0  0  0  0  0  0  0  0  0  0  0
   46.7973   10.3433  -13.3081 H   0  0  0  0  0  0  0  0  0  0  0  0
   48.7923   13.4687  -14.6866 C   0  0  0  0  0  0  0  0  0  0  0  0
   48.9627   14.9308  -14.7762 C   0  0  0  0  0  0  0  0  0  0  0  0
   49.0430   15.6793  -13.5861 C   0  0  0  0  0  0  0  0  0  0  0  0
   49.2358   17.0443  -13.6712 C   0  0  0  0  0  0  0  0  0  0  0  0
   49.3517   17.6965  -14.8870 C   0  0  0  0  0  0  0  0  0  0  0  0
   49.2665   16.9189  -16.0277 C   0  0  0  0  0  0  0  0  0  0  0  0
   49.0759   15.5598  -15.9877 C   0  0  0  0  0  0  0  0  0  0  0  0
 33 34  2  0  0  0
 34 35  1  0  0  0
 34 32  1  0  0  0
 32 37  1  0  0  0
 37 38  1  0  0  0
 38 39  2  0  0  0
 39 40  1  0  0  0
 40 41  2  0  0  0
 41 42  1  0  0  0
 42 43  2  0  0  0
 32 31  1  0  0  0
 31 23  1  0  0  0
 23 24  2  0  0  0
 24 25  1  0  0  0
 24 26  1  0  0  0
 26 27  2  0  0  0
 27  1  1  0  0  0
  1  2  2  0  0  0
  2  3  1  0  0  0
  3  4  2  0  0  0
  4  7  1  0  0  0
  7  8  2  0  0  0
  8 16  1  0  0  0
 16 17  1  0  0  0
 17 18  2  0  0  0
 18 19  1  0  0  0
 19 20  2  0  0  0
 20 21  1  0  0  0
 21 22  2  0  0  0
  8  9  1  0  0  0
  9 10  1  0  0  0
 10 11  2  0  0  0
 11 12  1  0  0  0
 12 13  2  0  0  0
 13 14  1  0  0  0
 14 15  2  0  0  0
  4  5  1  0  0  0
  5  6  2  0  0  0
 27 28  1  0  0  0
 28 29  2  0  0  0
 29 30  1  0  0  0
 43 38  1  0  0  0
 29 23  1  0  0  0
  6  1  1  0  0  0
 15  7  1  0  0  0
 22 17  1  0  0  0
 15 10  1  0  0  0
 35 36  1  0  0  0
M  END
> <minimizedAffinity>
-9.24253

> <CNNscore>
0.0890277475

> <CNNaffinity>
6.5314345360

> <CNN_VS>
0.5814788938

> <CNNaffinity_variance>
0.2327190936

$$$$
[H]OC(=O)[C@@]([H])(Oc1c(Br)c([H])c(-c2c([H])c([H])c(-c3c(C([H])([H])c4c([H])c([H])c([H])c([H])c4[H])oc4c([H])c([H])c([H])c([H])c34)c([H])c2[H])c([H])c1Br)C([H])([H])c1c([H])c([H])c([H])c([H])c1[H]


 43 48  0  0  0  0  0  0  0  0999 V2000
   35.4415   14.4843  -12.4585 C   0  0  0  0  0  0  0  0  0  0  0  0
   36.3948   15.3299  -12.9916 C   0  0  0  0  0  0  0  0  0  0  0  0
   37.3285   14.8030  -13.8456 C   0  0  0  0  0  0  0  0  0  0  0  0
   37.3941   13.4824  -14.2201 C   0  0  0  0  0  0  0  0  0  0  0  0
   36.4073   12.6574  -13.6572 C   0  0  0  0  0  0  0  0  0  0  0  0
   35.4651   13.1536  -12.8039 C   0  0  0  0  0  0  0  0  0  0  0  0
   38.3969   12.9115  -15.0987 C   0  0  0  0  0  0  0  0  0  0  0  0
   39.7366   13.0416  -15.1223 C   0  0  0  0  0  0  0  0  0  0  0  0
   40.2226   12.3460  -16.1532 O   0  0  0  0  0  0  0  0  0  0  0  0
   39.2632   11.7562  -16.8178 C   0  0  0  0  0  0  0  0  0  0  0  0
   39.2491   10.9449  -17.9309 C   0  0  0  0  0  0  0  0  0  0  0  0
   38.0692   10.4442  -18.4384 C   0  0  0  0  0  0  0  0  0  0  0  0
   36.9009   10.7848  -17.7904 C   0  0  0  0  0  0  0  0  0  0  0  0
   36.9036   11.6044  -16.6647 C   0  0  0  0  0  0  0  0  0  0  0  0
   38.0822   12.0790  -16.1938 C   0  0  0  0  0  0  0  0  0  0  0  0
   40.6410   13.7875  -14.2224 C   0  0  0  0  0  0  0  0  0  0  0  0
   42.0548   13.5094  -14.5387 C   0  0  0  0  0  0  0  0  0  0  0  0
   42.5467   13.1305  -15.7489 C   0  0  0  0  0  0  0  0  0  0  0  0
   43.9156   12.8891  -15.9477 C   0  0  0  0  0  0  0  0  0  0  0  0
   44.8116   13.0282  -14.9167 C   0  0  0  0  0  0  0  0  0  0  0  0
   44.3353   13.4110  -13.6827 C   0  0  0  0  0  0  0  0  0  0  0  0
   42.9862   13.6466  -13.4996 C   0  0  0  0  0  0  0  0  0  0  0  0
   32.4619   15.8816   -9.6960 C   0  0  0  0  0  0  0  0  0  0  0  0
   32.1078   15.2353  -10.8879 C   0  0  0  0  0  0  0  0  0  0  0  0
   30.2603   14.9693  -11.2484 Br  0  0  0  0  0  0  0  0  0  0  0  0
   33.0681   14.7891  -11.7743 C   0  0  0  0  0  0  0  0  0  0  0  0
   34.4123   14.9520  -11.5372 C   0  0  0  0  0  0  0  0  0  0  0  0
   34.7758   15.5900  -10.3607 C   0  0  0  0  0  0  0  0  0  0  0  0
   33.7974   16.0434   -9.4655 C   0  0  0  0  0  0  0  0  0  0  0  0
   34.4611   16.9972   -7.9263 Br  0  0  0  0  0  0  0  0  0  0  0  0
   31.5144   16.3324   -8.8160 O   0  0  0  0  0  0  0  0  0  0  0  0
   31.0134   15.6511   -7.6742 C   0  0  0  0  0  0  0  0  0  0  0  0
   28.7425   16.2936   -8.2400 O   0  0  0  0  0  0  0  0  0  0  0  0
   29.5830   15.3964   -7.9526 C   0  0  0  0  0  0  0  0  0  0  0  0
   29.0690   14.1056   -7.9155 O   0  0  0  0  0  0  0  0  0  0  0  0
   28.9480   13.5366   -7.1187 H   0  0  0  0  0  0  0  0  0  0  0  0
   31.1631   16.4621   -6.3978 C   0  0  0  0  0  0  0  0  0  0  0  0
   32.1662   15.9272   -5.4583 C   0  0  0  0  0  0  0  0  0  0  0  0
   32.7169   14.6549   -5.7047 C   0  0  0  0  0  0  0  0  0  0  0  0
   33.6803   14.1693   -4.8423 C   0  0  0  0  0  0  0  0  0  0  0  0
   34.1190   14.8932   -3.7467 C   0  0  0  0  0  0  0  0  0  0  0  0
   33.5487   16.1372   -3.5463 C   0  0  0  0  0  0  0  0  0  0  0  0
   32.5890   16.6573   -4.3792 C   0  0  0  0  0  0  0  0  0  0  0  0
 33 34  2  0  0  0
 34 35  1  0  0  0
 34 32  1  0  0  0
 32 37  1  0  0  0
 37 38  1  0  0  0
 38 39  2  0  0  0
 39 40  1  0  0  0
 40 41  2  0  0  0
 41 42  1  0  0  0
 42 43  2  0  0  0
 32 31  1  0  0  0
 31 23  1  0  0  0
 23 24  2  0  0  0
 24 25  1  0  0  0
 24 26  1  0  0  0
 26 27  2  0  0  0
 27  1  1  0  0  0
  1  2  2  0  0  0
  2  3  1  0  0  0
  3  4  2  0  0  0
  4  7  1  0  0  0
  7  8  2  0  0  0
  8 16  1  0  0  0
 16 17  1  0  0  0
 17 18  2  0  0  0
 18 19  1  0  0  0
 19 20  2  0  0  0
 20 21  1  0  0  0
 21 22  2  0  0  0
  8  9  1  0  0  0
  9 10  1  0  0  0
 10 11  2  0  0  0
 11 12  1  0  0  0
 12 13  2  0  0  0
 13 14  1  0  0  0
 14 15  2  0  0  0
  4  5  1  0  0  0
  5  6  2  0  0  0
 27 28  1  0  0  0
 28 29  2  0  0  0
 29 30  1  0  0  0
 43 38  1  0  0  0
 29 23  1  0  0  0
  6  1  1  0  0  0
 15  7  1  0  0  0
 22 17  1  0  0  0
 15 10  1  0  0  0
 35 36  1  0  0  0
M  END
> <minimizedAffinity>
-10.56017

> <CNNscore>
0.0793906003

> <CNNaffinity>
6.6412186623

> <CNN_VS>
0.5272503495

> <CNNaffinity_variance>
0.2507335842

$$$$
[H]OC(=O)[C@@]([H])(Oc1c(Br)c([H])c(-c2c([H])c([H])c(-c3c(C([H])([H])c4c([H])c([H])c([H])c([H])c4[H])oc4c([H])c([H])c([H])c([H])c34)c([H])c2[H])c([H])c1Br)C([H])([H])c1c([H])c([H])c([H])c([H])c1[H]


 43 48  0  0  0  0  0  0  0  0999 V2000
   37.0733   14.9906  -11.6217 C   0  0  0  0  0  0  0  0  0  0  0  0
   36.5337   13.8134  -12.1024 C   0  0  0  0  0  0  0  0  0  0  0  0
   37.1684   13.1817  -13.1403 C   0  0  0  0  0  0  0  0  0  0  0  0
   38.3149   13.6311  -13.7503 C   0  0  0  0  0  0  0  0  0  0  0  0
   38.8311   14.8292  -13.2315 C   0  0  0  0  0  0  0  0  0  0  0  0
   38.2210   15.4805  -12.1992 C   0  0  0  0  0  0  0  0  0  0  0  0
   38.9751   12.9850  -14.8683 C   0  0  0  0  0  0  0  0  0  0  0  0
   40.2616   12.9896  -15.2649 C   0  0  0  0  0  0  0  0  0  0  0  0
   40.3737   12.2705  -16.3843 O   0  0  0  0  0  0  0  0  0  0  0  0
   39.2160   11.7851  -16.7505 C   0  0  0  0  0  0  0  0  0  0  0  0
   38.8163   10.9991  -17.8087 C   0  0  0  0  0  0  0  0  0  0  0  0
   37.4998   10.6202  -17.9634 C   0  0  0  0  0  0  0  0  0  0  0  0
   36.5954   11.0567  -17.0188 C   0  0  0  0  0  0  0  0  0  0  0  0
   36.9885   11.8520  -15.9455 C   0  0  0  0  0  0  0  0  0  0  0  0
   38.2911   12.2055  -15.8253 C   0  0  0  0  0  0  0  0  0  0  0  0
   41.4469   13.6313  -14.6587 C   0  0  0  0  0  0  0  0  0  0  0  0
   42.6929   13.1372  -15.2749 C   0  0  0  0  0  0  0  0  0  0  0  0
   42.7844   12.3542  -16.3833 C   0  0  0  0  0  0  0  0  0  0  0  0
   44.0242   11.9359  -16.8926 C   0  0  0  0  0  0  0  0  0  0  0  0
   45.1968   12.3064  -16.2822 C   0  0  0  0  0  0  0  0  0  0  0  0
   45.1277   13.0991  -15.1584 C   0  0  0  0  0  0  0  0  0  0  0  0
   43.9018   13.5052  -14.6671 C   0  0  0  0  0  0  0  0  0  0  0  0
   35.3469   17.2239   -8.3825 C   0  0  0  0  0  0  0  0  0  0  0  0
   34.6481   16.1810   -9.0053 C   0  0  0  0  0  0  0  0  0  0  0  0
   32.9092   15.7586   -8.3638 Br  0  0  0  0  0  0  0  0  0  0  0  0
   35.2055   15.4665  -10.0474 C   0  0  0  0  0  0  0  0  0  0  0  0
   36.4659   15.7361  -10.5255 C   0  0  0  0  0  0  0  0  0  0  0  0
   37.1678   16.7659   -9.9172 C   0  0  0  0  0  0  0  0  0  0  0  0
   36.5968   17.4899   -8.8617 C   0  0  0  0  0  0  0  0  0  0  0  0
   37.6594   18.9526   -8.1902 Br  0  0  0  0  0  0  0  0  0  0  0  0
   34.7972   17.9406   -7.3531 O   0  0  0  0  0  0  0  0  0  0  0  0
   34.5085   17.4731   -6.0428 C   0  0  0  0  0  0  0  0  0  0  0  0
   33.9240   18.8772   -4.1515 O   0  0  0  0  0  0  0  0  0  0  0  0
   33.7892   18.5773   -5.3706 C   0  0  0  0  0  0  0  0  0  0  0  0
   32.8955   19.3771   -6.0729 O   0  0  0  0  0  0  0  0  0  0  0  0
   32.0166   19.1112   -6.4336 H   0  0  0  0  0  0  0  0  0  0  0  0
   35.7613   17.1112   -5.2625 C   0  0  0  0  0  0  0  0  0  0  0  0
   36.3691   15.8277   -5.6601 C   0  0  0  0  0  0  0  0  0  0  0  0
   35.5455   14.6904   -5.7663 C   0  0  0  0  0  0  0  0  0  0  0  0
   36.1100   13.4965   -6.1708 C   0  0  0  0  0  0  0  0  0  0  0  0
   37.4564   13.3847   -6.4735 C   0  0  0  0  0  0  0  0  0  0  0  0
   38.2243   14.5288   -6.3544 C   0  0  0  0  0  0  0  0  0  0  0  0
   37.7032   15.7351   -5.9563 C   0  0  0  0  0  0  0  0  0  0  0  0
 33 34  2  0  0  0
 34 35  1  0  0  0
 34 32  1  0  0  0
 32 37  1  0  0  0
 37 38  1  0  0  0
 38 39  2  0  0  0
 39 40  1  0  0  0
 40 41  2  0  0  0
 41 42  1  0  0  0
 42 43  2  0  0  0
 32 31  1  0  0  0
 31 23  1  0  0  0
 23 24  2  0  0  0
 24 25  1  0  0  0
 24 26  1  0  0  0
 26 27  2  0  0  0
 27  1  1  0  0  0
  1  2  2  0  0  0
  2  3  1  0  0  0
  3  4  2  0  0  0
  4  7  1  0  0  0
  7  8  2  0  0  0
  8 16  1  0  0  0
 16 17  1  0  0  0
 17 18  2  0  0  0
 18 19  1  0  0  0
 19 20  2  0  0  0
 20 21  1  0  0  0
 21 22  2  0  0  0
  8  9  1  0  0  0
  9 10  1  0  0  0
 10 11  2  0  0  0
 11 12  1  0  0  0
 12 13  2  0  0  0
 13 14  1  0  0  0
 14 15  2  0  0  0
  4  5  1  0  0  0
  5  6  2  0  0  0
 27 28  1  0  0  0
 28 29  2  0  0  0
 29 30  1  0  0  0
 43 38  1  0  0  0
 29 23  1  0  0  0
  6  1  1  0  0  0
 15  7  1  0  0  0
 22 17  1  0  0  0
 15 10  1  0  0  0
 35 36  1  0  0  0
M  END
> <minimizedAffinity>
-10.05682

> <CNNscore>
0.0750563517

> <CNNaffinity>
6.4932341576

> <CNN_VS>
0.4873584807

> <CNNaffinity_variance>
0.3843988776

$$$$
[H]OC(=O)[C@@]([H])(Oc1c(Br)c([H])c(-c2c([H])c([H])c(-c3c(C([H])([H])c4c([H])c([H])c([H])c([H])c4[H])oc4c([H])c([H])c([H])c([H])c34)c([H])c2[H])c([H])c1Br)C([H])([H])c1c([H])c([H])c([H])c([H])c1[H]


 43 48  0  0  0  0  0  0  0  0999 V2000
   36.8389   14.7194  -11.4023 C   0  0  0  0  0  0  0  0  0  0  0  0
   36.3279   13.5478  -11.9262 C   0  0  0  0  0  0  0  0  0  0  0  0
   36.9515   12.9942  -13.0142 C   0  0  0  0  0  0  0  0  0  0  0  0
   38.0602   13.5177  -13.6350 C   0  0  0  0  0  0  0  0  0  0  0  0
   38.5483   14.7073  -13.0713 C   0  0  0  0  0  0  0  0  0  0  0  0
   37.9483   15.2817  -11.9886 C   0  0  0  0  0  0  0  0  0  0  0  0
   38.7072   12.9548  -14.8045 C   0  0  0  0  0  0  0  0  0  0  0  0
   39.9722   13.0525  -15.2545 C   0  0  0  0  0  0  0  0  0  0  0  0
   40.0770   12.3832  -16.4052 O   0  0  0  0  0  0  0  0  0  0  0  0
   38.9349   11.8418  -16.7410 C   0  0  0  0  0  0  0  0  0  0  0  0
   38.5360   11.0723  -17.8115 C   0  0  0  0  0  0  0  0  0  0  0  0
   37.2388   10.6198  -17.9254 C   0  0  0  0  0  0  0  0  0  0  0  0
   36.3529   10.9652  -16.9270 C   0  0  0  0  0  0  0  0  0  0  0  0
   36.7455   11.7429  -15.8407 C   0  0  0  0  0  0  0  0  0  0  0  0
   38.0288   12.1707  -15.7617 C   0  0  0  0  0  0  0  0  0  0  0  0
   41.1431   13.7425  -14.6741 C   0  0  0  0  0  0  0  0  0  0  0  0
   42.4025   13.2154  -15.2331 C   0  0  0  0  0  0  0  0  0  0  0  0
   42.5248   12.4387  -16.3429 C   0  0  0  0  0  0  0  0  0  0  0  0
   43.7749   11.9867  -16.7948 C   0  0  0  0  0  0  0  0  0  0  0  0
   44.9268   12.3163  -16.1242 C   0  0  0  0  0  0  0  0  0  0  0  0
   44.8264   13.1019  -14.9978 C   0  0  0  0  0  0  0  0  0  0  0  0
   43.5905   13.5415  -14.5634 C   0  0  0  0  0  0  0  0  0  0  0  0
   35.1423   16.6926   -7.9834 C   0  0  0  0  0  0  0  0  0  0  0  0
   34.3344   16.0589   -8.9371 C   0  0  0  0  0  0  0  0  0  0  0  0
   32.4523   16.0742   -8.6699 Br  0  0  0  0  0  0  0  0  0  0  0  0
   34.8831   15.4272  -10.0357 C   0  0  0  0  0  0  0  0  0  0  0  0
   36.2402   15.3848  -10.2511 C   0  0  0  0  0  0  0  0  0  0  0  0
   37.0505   16.0081   -9.3142 C   0  0  0  0  0  0  0  0  0  0  0  0
   36.4888   16.6503   -8.2022 C   0  0  0  0  0  0  0  0  0  0  0  0
   37.7413   17.5535   -7.0469 Br  0  0  0  0  0  0  0  0  0  0  0  0
   34.6040   17.3266   -6.8954 O   0  0  0  0  0  0  0  0  0  0  0  0
   33.8216   18.5126   -6.8961 C   0  0  0  0  0  0  0  0  0  0  0  0
   35.3746   19.9606   -5.7207 O   0  0  0  0  0  0  0  0  0  0  0  0
   34.7845   19.6304   -6.7869 C   0  0  0  0  0  0  0  0  0  0  0  0
   35.1066   20.4039   -7.8957 O   0  0  0  0  0  0  0  0  0  0  0  0
   34.5194   21.0418   -8.3665 H   0  0  0  0  0  0  0  0  0  0  0  0
   32.8307   18.5594   -5.7448 C   0  0  0  0  0  0  0  0  0  0  0  0
   31.4355   18.7956   -6.1600 C   0  0  0  0  0  0  0  0  0  0  0  0
   30.4400   17.8923   -5.7405 C   0  0  0  0  0  0  0  0  0  0  0  0
   29.1290   18.1330   -6.1024 C   0  0  0  0  0  0  0  0  0  0  0  0
   28.7656   19.2315   -6.8629 C   0  0  0  0  0  0  0  0  0  0  0  0
   29.7784   20.0898   -7.2509 C   0  0  0  0  0  0  0  0  0  0  0  0
   31.0936   19.8879   -6.9124 C   0  0  0  0  0  0  0  0  0  0  0  0
 33 34  2  0  0  0
 34 35  1  0  0  0
 34 32  1  0  0  0
 32 37  1  0  0  0
 37 38  1  0  0  0
 38 39  2  0  0  0
 39 40  1  0  0  0
 40 41  2  0  0  0
 41 42  1  0  0  0
 42 43  2  0  0  0
 32 31  1  0  0  0
 31 23  1  0  0  0
 23 24  2  0  0  0
 24 25  1  0  0  0
 24 26  1  0  0  0
 26 27  2  0  0  0
 27  1  1  0  0  0
  1  2  2  0  0  0
  2  3  1  0  0  0
  3  4  2  0  0  0
  4  7  1  0  0  0
  7  8  2  0  0  0
  8 16  1  0  0  0
 16 17  1  0  0  0
 17 18  2  0  0  0
 18 19  1  0  0  0
 19 20  2  0  0  0
 20 21  1  0  0  0
 21 22  2  0  0  0
  8  9  1  0  0  0
  9 10  1  0  0  0
 10 11  2  0  0  0
 11 12  1  0  0  0
 12 13  2  0  0  0
 13 14  1  0  0  0
 14 15  2  0  0  0
  4  5  1  0  0  0
  5  6  2  0  0  0
 27 28  1  0  0  0
 28 29  2  0  0  0
 29 30  1  0  0  0
 43 38  1  0  0  0
 29 23  1  0  0  0
  6  1  1  0  0  0
 15  7  1  0  0  0
 22 17  1  0  0  0
 15 10  1  0  0  0
 35 36  1  0  0  0
M  END
> <minimizedAffinity>
-10.45000

> <CNNscore>
0.0748160630

> <CNNaffinity>
6.4046111107

> <CNN_VS>
0.4791677892

> <CNNaffinity_variance>
0.2936746180

$$$$
[H]OC(=O)[C@@]([H])(Oc1c(Br)c([H])c(-c2c([H])c([H])c(-c3c(C([H])([H])c4c([H])c([H])c([H])c([H])c4[H])oc4c([H])c([H])c([H])c([H])c34)c([H])c2[H])c([H])c1Br)C([H])([H])c1c([H])c([H])c([H])c([H])c1[H]


 43 48  0  0  0  0  0  0  0  0999 V2000
   35.4713   14.5170  -12.4735 C   0  0  0  0  0  0  0  0  0  0  0  0
   36.4249   15.3518  -13.0228 C   0  0  0  0  0  0  0  0  0  0  0  0
   37.3485   14.8111  -13.8792 C   0  0  0  0  0  0  0  0  0  0  0  0
   37.4036   13.4865  -14.2411 C   0  0  0  0  0  0  0  0  0  0  0  0
   36.4169   12.6728  -13.6619 C   0  0  0  0  0  0  0  0  0  0  0  0
   35.4846   13.1828  -12.8058 C   0  0  0  0  0  0  0  0  0  0  0  0
   38.3958   12.9013  -15.1222 C   0  0  0  0  0  0  0  0  0  0  0  0
   39.7355   13.0279  -15.1616 C   0  0  0  0  0  0  0  0  0  0  0  0
   40.2091   12.3171  -16.1879 O   0  0  0  0  0  0  0  0  0  0  0  0
   39.2414   11.7204  -16.8342 C   0  0  0  0  0  0  0  0  0  0  0  0
   39.2139   10.8940  -17.9358 C   0  0  0  0  0  0  0  0  0  0  0  0
   38.0276   10.3892  -18.4241 C   0  0  0  0  0  0  0  0  0  0  0  0
   36.8669   10.7413  -17.7686 C   0  0  0  0  0  0  0  0  0  0  0  0
   36.8833   11.5763  -16.6544 C   0  0  0  0  0  0  0  0  0  0  0  0
   38.0679   12.0545  -16.2024 C   0  0  0  0  0  0  0  0  0  0  0  0
   40.6509   13.7840  -14.2816 C   0  0  0  0  0  0  0  0  0  0  0  0
   42.0606   13.5135  -14.6219 C   0  0  0  0  0  0  0  0  0  0  0  0
   42.5518   13.2609  -15.8649 C   0  0  0  0  0  0  0  0  0  0  0  0
   43.9166   13.0148  -16.0845 C   0  0  0  0  0  0  0  0  0  0  0  0
   44.8093   13.0203  -15.0413 C   0  0  0  0  0  0  0  0  0  0  0  0
   44.3338   13.2737  -13.7742 C   0  0  0  0  0  0  0  0  0  0  0  0
   42.9886   13.5155  -13.5707 C   0  0  0  0  0  0  0  0  0  0  0  0
   32.4176   15.9227   -9.7976 C   0  0  0  0  0  0  0  0  0  0  0  0
   33.7780   16.0520   -9.4867 C   0  0  0  0  0  0  0  0  0  0  0  0
   34.2467   16.8912   -7.8466 Br  0  0  0  0  0  0  0  0  0  0  0  0
   34.7567   15.5973  -10.3484 C   0  0  0  0  0  0  0  0  0  0  0  0
   34.4525   14.9996  -11.5484 C   0  0  0  0  0  0  0  0  0  0  0  0
   33.1097   14.8661  -11.8677 C   0  0  0  0  0  0  0  0  0  0  0  0
   32.1199   15.3267  -10.9887 C   0  0  0  0  0  0  0  0  0  0  0  0
   30.3025   14.9777  -11.5314 Br  0  0  0  0  0  0  0  0  0  0  0  0
   31.4421   16.3654   -8.9444 O   0  0  0  0  0  0  0  0  0  0  0  0
   31.1398   15.8572   -7.6525 C   0  0  0  0  0  0  0  0  0  0  0  0
   29.3391   14.2932   -8.1014 O   0  0  0  0  0  0  0  0  0  0  0  0
   30.5612   14.5136   -7.8734 C   0  0  0  0  0  0  0  0  0  0  0  0
   31.3635   13.3792   -7.8450 O   0  0  0  0  0  0  0  0  0  0  0  0
   31.8096   12.9860   -7.0577 H   0  0  0  0  0  0  0  0  0  0  0  0
   30.1561   16.7339   -6.8954 C   0  0  0  0  0  0  0  0  0  0  0  0
   30.5264   18.1609   -6.8575 C   0  0  0  0  0  0  0  0  0  0  0  0
   29.7203   19.0900   -7.5431 C   0  0  0  0  0  0  0  0  0  0  0  0
   30.0494   20.4299   -7.4794 C   0  0  0  0  0  0  0  0  0  0  0  0
   31.1443   20.8852   -6.7646 C   0  0  0  0  0  0  0  0  0  0  0  0
   31.9053   19.9351   -6.1080 C   0  0  0  0  0  0  0  0  0  0  0  0
   31.6130   18.5941   -6.1450 C   0  0  0  0  0  0  0  0  0  0  0  0
 33 34  2  0  0  0
 34 35  1  0  0  0
 34 32  1  0  0  0
 32 37  1  0  0  0
 37 38  1  0  0  0
 38 39  2  0  0  0
 39 40  1  0  0  0
 40 41  2  0  0  0
 41 42  1  0  0  0
 42 43  2  0  0  0
 32 31  1  0  0  0
 31 23  1  0  0  0
 23 24  2  0  0  0
 24 25  1  0  0  0
 24 26  1  0  0  0
 26 27  2  0  0  0
 27  1  1  0  0  0
  1  2  2  0  0  0
  2  3  1  0  0  0
  3  4  2  0  0  0
  4  7  1  0  0  0
  7  8  2  0  0  0
  8 16  1  0  0  0
 16 17  1  0  0  0
 17 18  2  0  0  0
 18 19  1  0  0  0
 19 20  2  0  0  0
 20 21  1  0  0  0
 21 22  2  0  0  0
  8  9  1  0  0  0
  9 10  1  0  0  0
 10 11  2  0  0  0
 11 12  1  0  0  0
 12 13  2  0  0  0
 13 14  1  0  0  0
 14 15  2  0  0  0
  4  5  1  0  0  0
  5  6  2  0  0  0
 27 28  1  0  0  0
 28 29  2  0  0  0
 29 30  1  0  0  0
 43 38  1  0  0  0
 29 23  1  0  0  0
  6  1  1  0  0  0
 15  7  1  0  0  0
 22 17  1  0  0  0
 15 10  1  0  0  0
 35 36  1  0  0  0
M  END
> <minimizedAffinity>
-10.63166

> <CNNscore>
0.0739169270

> <CNNaffinity>
6.3138542175

> <CNN_VS>
0.4667007029

> <CNNaffinity_variance>
0.4635941088

$$$$
[H]OC(=O)[C@@]([H])(Oc1c(Br)c([H])c(-c2c([H])c([H])c(-c3c(C([H])([H])c4c([H])c([H])c([H])c([H])c4[H])oc4c([H])c([H])c([H])c([H])c34)c([H])c2[H])c([H])c1Br)C([H])([H])c1c([H])c([H])c([H])c([H])c1[H]


 43 48  0  0  0  0  0  0  0  0999 V2000
   40.6669   13.9033  -14.1550 C   0  0  0  0  0  0  0  0  0  0  0  0
   39.9137   14.9501  -13.6602 C   0  0  0  0  0  0  0  0  0  0  0  0
   38.5508   14.8096  -13.6189 C   0  0  0  0  0  0  0  0  0  0  0  0
   37.8628   13.6955  -14.0359 C   0  0  0  0  0  0  0  0  0  0  0  0
   38.6650   12.6548  -14.5306 C   0  0  0  0  0  0  0  0  0  0  0  0
   40.0240   12.7661  -14.5841 C   0  0  0  0  0  0  0  0  0  0  0  0
   36.4198   13.5510  -14.0238 C   0  0  0  0  0  0  0  0  0  0  0  0
   35.4748   14.1260  -13.2566 C   0  0  0  0  0  0  0  0  0  0  0  0
   34.2800   13.6400  -13.6016 O   0  0  0  0  0  0  0  0  0  0  0  0
   34.3881   12.7657  -14.5679 C   0  0  0  0  0  0  0  0  0  0  0  0
   33.4698   12.0035  -15.2557 C   0  0  0  0  0  0  0  0  0  0  0  0
   33.8608   11.1387  -16.2555 C   0  0  0  0  0  0  0  0  0  0  0  0
   35.2070   11.0640  -16.5437 C   0  0  0  0  0  0  0  0  0  0  0  0
   36.1439   11.8296  -15.8545 C   0  0  0  0  0  0  0  0  0  0  0  0
   35.7235   12.6688  -14.8772 C   0  0  0  0  0  0  0  0  0  0  0  0
   35.5970   15.1381  -12.1865 C   0  0  0  0  0  0  0  0  0  0  0  0
   34.3087   15.3423  -11.4976 C   0  0  0  0  0  0  0  0  0  0  0  0
   34.1428   15.7096  -10.1985 C   0  0  0  0  0  0  0  0  0  0  0  0
   32.8678   15.8787   -9.6351 C   0  0  0  0  0  0  0  0  0  0  0  0
   31.7351   15.6762  -10.3842 C   0  0  0  0  0  0  0  0  0  0  0  0
   31.8797   15.3038  -11.7019 C   0  0  0  0  0  0  0  0  0  0  0  0
   33.1396   15.1415  -12.2454 C   0  0  0  0  0  0  0  0  0  0  0  0
   44.9504   14.0264  -14.4673 C   0  0  0  0  0  0  0  0  0  0  0  0
   44.2659   14.7792  -13.5037 C   0  0  0  0  0  0  0  0  0  0  0  0
   45.2878   15.8510  -12.3116 Br  0  0  0  0  0  0  0  0  0  0  0  0
   42.8889   14.7385  -13.4074 C   0  0  0  0  0  0  0  0  0  0  0  0
   42.1213   13.9630  -14.2435 C   0  0  0  0  0  0  0  0  0  0  0  0
   42.7870   13.2131  -15.2014 C   0  0  0  0  0  0  0  0  0  0  0  0
   44.1845   13.2597  -15.2969 C   0  0  0  0  0  0  0  0  0  0  0  0
   44.9505   12.2385  -16.7425 Br  0  0  0  0  0  0  0  0  0  0  0  0
   46.3152   14.0675  -14.5724 O   0  0  0  0  0  0  0  0  0  0  0  0
   47.2617   13.6387  -13.6033 C   0  0  0  0  0  0  0  0  0  0  0  0
   49.3624   13.8204  -14.8050 O   0  0  0  0  0  0  0  0  0  0  0  0
   48.5382   14.2896  -13.9716 C   0  0  0  0  0  0  0  0  0  0  0  0
   48.9107   15.5009  -13.4010 O   0  0  0  0  0  0  0  0  0  0  0  0
   49.1751   15.6603  -12.4640 H   0  0  0  0  0  0  0  0  0  0  0  0
   47.4304   12.1286  -13.5797 C   0  0  0  0  0  0  0  0  0  0  0  0
   47.0343   11.4980  -12.3069 C   0  0  0  0  0  0  0  0  0  0  0  0
   46.0249   12.1037  -11.5341 C   0  0  0  0  0  0  0  0  0  0  0  0
   45.6318   11.4941  -10.3586 C   0  0  0  0  0  0  0  0  0  0  0  0
   46.1987   10.3100   -9.9188 C   0  0  0  0  0  0  0  0  0  0  0  0
   47.1858    9.7534  -10.7117 C   0  0  0  0  0  0  0  0  0  0  0  0
   47.6055   10.3260  -11.8869 C   0  0  0  0  0  0  0  0  0  0  0  0
 33 34  2  0  0  0
 34 35  1  0  0  0
 34 32  1  0  0  0
 32 37  1  0  0  0
 37 38  1  0  0  0
 38 39  2  0  0  0
 39 40  1  0  0  0
 40 41  2  0  0  0
 41 42  1  0  0  0
 42 43  2  0  0  0
 32 31  1  0  0  0
 31 23  1  0  0  0
 23 24  2  0  0  0
 24 25  1  0  0  0
 24 26  1  0  0  0
 26 27  2  0  0  0
 27  1  1  0  0  0
  1  2  2  0  0  0
  2  3  1  0  0  0
  3  4  2  0  0  0
  4  7  1  0  0  0
  7  8  2  0  0  0
  8 16  1  0  0  0
 16 17  1  0  0  0
 17 18  2  0  0  0
 18 19  1  0  0  0
 19 20  2  0  0  0
 20 21  1  0  0  0
 21 22  2  0  0  0
  8  9  1  0  0  0
  9 10  1  0  0  0
 10 11  2  0  0  0
 11 12  1  0  0  0
 12 13  2  0  0  0
 13 14  1  0  0  0
 14 15  2  0  0  0
  4  5  1  0  0  0
  5  6  2  0  0  0
 27 28  1  0  0  0
 28 29  2  0  0  0
 29 30  1  0  0  0
 43 38  1  0  0  0
 29 23  1  0  0  0
  6  1  1  0  0  0
 15  7  1  0  0  0
 22 17  1  0  0  0
 15 10  1  0  0  0
 35 36  1  0  0  0
M  END
> <minimizedAffinity>
-9.24106

> <CNNscore>
0.0719583929

> <CNNaffinity>
6.4724206924

> <CNN_VS>
0.4657450020

> <CNNaffinity_variance>
0.3394683599

$$$$
[H]OC(=O)[C@@]([H])(Oc1c(Br)c([H])c(-c2c([H])c([H])c(-c3c(C([H])([H])c4c([H])c([H])c([H])c([H])c4[H])oc4c([H])c([H])c([H])c([H])c34)c([H])c2[H])c([H])c1Br)C([H])([H])c1c([H])c([H])c([H])c([H])c1[H]


 43 48  0  0  0  0  0  0  0  0999 V2000
   36.8543   14.7312  -11.9834 C   0  0  0  0  0  0  0  0  0  0  0  0
   36.8799   13.3509  -11.9359 C   0  0  0  0  0  0  0  0  0  0  0  0
   37.3239   12.6692  -13.0391 C   0  0  0  0  0  0  0  0  0  0  0  0
   37.7519   13.2561  -14.2056 C   0  0  0  0  0  0  0  0  0  0  0  0
   37.7111   14.6595  -14.2123 C   0  0  0  0  0  0  0  0  0  0  0  0
   37.2738   15.3650  -13.1292 C   0  0  0  0  0  0  0  0  0  0  0  0
   38.1941   12.5414  -15.3875 C   0  0  0  0  0  0  0  0  0  0  0  0
   37.5356   11.7254  -16.2318 C   0  0  0  0  0  0  0  0  0  0  0  0
   38.3887   11.2754  -17.1552 O   0  0  0  0  0  0  0  0  0  0  0  0
   39.5887   11.7582  -16.9631 C   0  0  0  0  0  0  0  0  0  0  0  0
   40.7851   11.5997  -17.6270 C   0  0  0  0  0  0  0  0  0  0  0  0
   41.9302   12.2403  -17.2040 C   0  0  0  0  0  0  0  0  0  0  0  0
   41.8351   13.0475  -16.0904 C   0  0  0  0  0  0  0  0  0  0  0  0
   40.6308   13.2144  -15.4115 C   0  0  0  0  0  0  0  0  0  0  0  0
   39.5252   12.5688  -15.8554 C   0  0  0  0  0  0  0  0  0  0  0  0
   36.1155   11.3167  -16.2540 C   0  0  0  0  0  0  0  0  0  0  0  0
   35.2741   12.2759  -15.5136 C   0  0  0  0  0  0  0  0  0  0  0  0
   35.1222   13.5970  -15.7990 C   0  0  0  0  0  0  0  0  0  0  0  0
   34.2935   14.4291  -15.0292 C   0  0  0  0  0  0  0  0  0  0  0  0
   33.6028   13.9318  -13.9518 C   0  0  0  0  0  0  0  0  0  0  0  0
   33.7419   12.5968  -13.6447 C   0  0  0  0  0  0  0  0  0  0  0  0
   34.5596   11.7877  -14.4102 C   0  0  0  0  0  0  0  0  0  0  0  0
   35.5589   17.1544   -8.6801 C   0  0  0  0  0  0  0  0  0  0  0  0
   34.7814   16.0893   -9.1544 C   0  0  0  0  0  0  0  0  0  0  0  0
   33.1333   15.7240   -8.2803 Br  0  0  0  0  0  0  0  0  0  0  0  0
   35.2001   15.3137  -10.2175 C   0  0  0  0  0  0  0  0  0  0  0  0
   36.3928   15.5414  -10.8621 C   0  0  0  0  0  0  0  0  0  0  0  0
   37.1715   16.5925  -10.4019 C   0  0  0  0  0  0  0  0  0  0  0  0
   36.7411   17.3785   -9.3243 C   0  0  0  0  0  0  0  0  0  0  0  0
   37.8883   18.8606   -8.8697 Br  0  0  0  0  0  0  0  0  0  0  0  0
   35.1463   17.9315   -7.6307 O   0  0  0  0  0  0  0  0  0  0  0  0
   35.0508   17.5468   -6.2663 C   0  0  0  0  0  0  0  0  0  0  0  0
   33.3037   19.1626   -5.7899 O   0  0  0  0  0  0  0  0  0  0  0  0
   34.4581   18.7049   -5.5618 C   0  0  0  0  0  0  0  0  0  0  0  0
   35.1658   19.3739   -4.5703 O   0  0  0  0  0  0  0  0  0  0  0  0
   35.9659   19.9388   -4.6892 H   0  0  0  0  0  0  0  0  0  0  0  0
   36.4010   17.1997   -5.6614 C   0  0  0  0  0  0  0  0  0  0  0  0
   36.8801   15.8453   -5.9943 C   0  0  0  0  0  0  0  0  0  0  0  0
   35.9849   14.7634   -5.8889 C   0  0  0  0  0  0  0  0  0  0  0  0
   36.4255   13.5003   -6.2327 C   0  0  0  0  0  0  0  0  0  0  0  0
   37.7163   13.2668   -6.6758 C   0  0  0  0  0  0  0  0  0  0  0  0
   38.5583   14.3606   -6.7627 C   0  0  0  0  0  0  0  0  0  0  0  0
   38.1606   15.6323   -6.4315 C   0  0  0  0  0  0  0  0  0  0  0  0
 33 34  2  0  0  0
 34 35  1  0  0  0
 34 32  1  0  0  0
 32 37  1  0  0  0
 37 38  1  0  0  0
 38 39  2  0  0  0
 39 40  1  0  0  0
 40 41  2  0  0  0
 41 42  1  0  0  0
 42 43  2  0  0  0
 32 31  1  0  0  0
 31 23  1  0  0  0
 23 24  2  0  0  0
 24 25  1  0  0  0
 24 26  1  0  0  0
 26 27  2  0  0  0
 27  1  1  0  0  0
  1  2  2  0  0  0
  2  3  1  0  0  0
  3  4  2  0  0  0
  4  7  1  0  0  0
  7  8  2  0  0  0
  8 16  1  0  0  0
 16 17  1  0  0  0
 17 18  2  0  0  0
 18 19  1  0  0  0
 19 20  2  0  0  0
 20 21  1  0  0  0
 21 22  2  0  0  0
  8  9  1  0  0  0
  9 10  1  0  0  0
 10 11  2  0  0  0
 11 12  1  0  0  0
 12 13  2  0  0  0
 13 14  1  0  0  0
 14 15  2  0  0  0
  4  5  1  0  0  0
  5  6  2  0  0  0
 27 28  1  0  0  0
 28 29  2  0  0  0
 29 30  1  0  0  0
 43 38  1  0  0  0
 29 23  1  0  0  0
  6  1  1  0  0  0
 15  7  1  0  0  0
 22 17  1  0  0  0
 15 10  1  0  0  0
 35 36  1  0  0  0
M  END
> <minimizedAffinity>
-8.10708

> <CNNscore>
0.0707284808

> <CNNaffinity>
6.8428382874

> <CNN_VS>
0.4839835465

> <CNNaffinity_variance>
0.3880211711

$$$$
[H]c1c(F)c(C(=O)N([H])S(=O)(=O)C2([H])C([H])([H])C2([H])[H])c([H])c(C2([H])C([H])([H])C2([H])[H])c1OC([H])([H])C1([H])C([H])([H])C([H])([H])C([H])(C(F)(F)F)C([H])([H])C1([H])[H]


 32 35  0  0  0  0  0  0  0  0999 V2000
   43.6342   12.8873  -15.5040 C   0  0  0  0  0  0  0  0  0  0  0  0
   43.6150   13.3783  -14.1937 C   0  0  0  0  0  0  0  0  0  0  0  0
   44.7291   13.5337  -13.4330 C   0  0  0  0  0  0  0  0  0  0  0  0
   46.0109   13.1946  -13.9457 C   0  0  0  0  0  0  0  0  0  0  0  0
   46.0105   12.7128  -15.2400 C   0  0  0  0  0  0  0  0  0  0  0  0
   44.8525   12.5626  -15.9994 C   0  0  0  0  0  0  0  0  0  0  0  0
   44.9715   12.0747  -17.2378 F   0  0  0  0  0  0  0  0  0  0  0  0
   41.3990   13.5267  -15.7561 O   0  0  0  0  0  0  0  0  0  0  0  0
   42.3630   12.7920  -16.1880 C   0  0  0  0  0  0  0  0  0  0  0  0
   42.0468   11.9858  -17.2832 N   0  0  0  0  0  0  0  0  0  0  0  0
   42.7303   11.3671  -17.7271 H   0  0  0  0  0  0  0  0  0  0  0  0
   40.4681   11.9979  -17.9725 S   0  0  0  0  0  0  0  0  0  0  0  0
   40.4558   11.2138  -19.2628 O   0  0  0  0  0  0  0  0  0  0  0  0
   40.0145   13.3905  -18.2894 O   0  0  0  0  0  0  0  0  0  0  0  0
   39.2959   11.2303  -16.8429 C   0  0  0  0  0  0  0  0  0  0  0  0
   38.1089   12.0165  -16.3901 C   0  0  0  0  0  0  0  0  0  0  0  0
   37.9298   11.0276  -17.4735 C   0  0  0  0  0  0  0  0  0  0  0  0
   44.6857   14.0453  -12.0250 C   0  0  0  0  0  0  0  0  0  0  0  0
   43.4253   14.4130  -11.3715 C   0  0  0  0  0  0  0  0  0  0  0  0
   44.0042   13.0881  -11.0405 C   0  0  0  0  0  0  0  0  0  0  0  0
   47.0623   13.3720  -13.1610 O   0  0  0  0  0  0  0  0  0  0  0  0
   47.9754   12.7711  -12.4428 C   0  0  0  0  0  0  0  0  0  0  0  0
   47.7066   11.9628  -11.2331 C   0  0  0  0  0  0  0  0  0  0  0  0
   46.9023   10.7026  -11.4908 C   0  0  0  0  0  0  0  0  0  0  0  0
   46.0951   10.4595  -10.2467 C   0  0  0  0  0  0  0  0  0  0  0  0
   46.9415   10.3599   -9.0404 C   0  0  0  0  0  0  0  0  0  0  0  0
   48.3134   10.8947   -9.0574 C   0  0  0  0  0  0  0  0  0  0  0  0
   48.7702   11.6360  -10.2804 C   0  0  0  0  0  0  0  0  0  0  0  0
   46.1789   10.8685   -7.7904 C   0  0  0  0  0  0  0  0  0  0  0  0
   46.9500   10.8273   -6.6707 F   0  0  0  0  0  0  0  0  0  0  0  0
   45.8091   12.1916   -7.9903 F   0  0  0  0  0  0  0  0  0  0  0  0
   45.0153   10.1607   -7.6273 F   0  0  0  0  0  0  0  0  0  0  0  0
  8  9  2  0  0  0
  9 10  1  0  0  0
 10 12  1  0  0  0
 12 13  2  0  0  0
 12 14  2  0  0  0
 12 15  1  0  0  0
 15 16  1  0  0  0
 16 17  1  0  0  0
  9  1  1  0  0  0
  1  2  2  0  0  0
  2  3  1  0  0  0
  3 18  1  0  0  0
 18 19  1  0  0  0
 19 20  1  0  0  0
  3  4  2  0  0  0
  4 21  1  0  0  0
 21 22  1  0  0  0
 22 23  1  0  0  0
 23 24  1  0  0  0
 24 25  1  0  0  0
 25 26  1  0  0  0
 26 29  1  0  0  0
 29 30  1  0  0  0
 29 31  1  0  0  0
 29 32  1  0  0  0
 26 27  1  0  0  0
 27 28  1  0  0  0
  4  5  1  0  0  0
  5  6  2  0  0  0
  6  7  1  0  0  0
 17 15  1  0  0  0
  6  1  1  0  0  0
 20 18  1  0  0  0
 28 23  1  0  0  0
 10 11  1  0  0  0
M  END
> <minimizedAffinity>
-6.74174

> <CNNscore>
0.3286038041

> <CNNaffinity>
5.7927346230

> <CNN_VS>
1.9035146236

> <CNNaffinity_variance>
0.2470399886

$$$$
[H]c1c(F)c(C(=O)N([H])S(=O)(=O)C2([H])C([H])([H])C2([H])[H])c([H])c(C2([H])C([H])([H])C2([H])[H])c1OC([H])([H])C1([H])C([H])([H])C([H])([H])C([H])(C(F)(F)F)C([H])([H])C1([H])[H]


 32 35  0  0  0  0  0  0  0  0999 V2000
   43.3221   13.4167  -14.9054 C   0  0  0  0  0  0  0  0  0  0  0  0
   42.5048   13.0388  -15.9766 C   0  0  0  0  0  0  0  0  0  0  0  0
   41.1478   13.0407  -15.9238 C   0  0  0  0  0  0  0  0  0  0  0  0
   40.4684   13.4390  -14.7403 C   0  0  0  0  0  0  0  0  0  0  0  0
   41.2908   13.8092  -13.6944 C   0  0  0  0  0  0  0  0  0  0  0  0
   42.6814   13.7981  -13.7744 C   0  0  0  0  0  0  0  0  0  0  0  0
   43.3765   14.1656  -12.6939 F   0  0  0  0  0  0  0  0  0  0  0  0
   45.1640   13.0984  -16.3107 O   0  0  0  0  0  0  0  0  0  0  0  0
   44.7516   13.3723  -15.1230 C   0  0  0  0  0  0  0  0  0  0  0  0
   45.7604   13.5966  -14.1841 N   0  0  0  0  0  0  0  0  0  0  0  0
   45.5620   13.8363  -13.2094 H   0  0  0  0  0  0  0  0  0  0  0  0
   47.4235   13.4979  -14.6221 S   0  0  0  0  0  0  0  0  0  0  0  0
   47.9186   14.8423  -15.0989 O   0  0  0  0  0  0  0  0  0  0  0  0
   47.6445   12.5182  -15.7342 O   0  0  0  0  0  0  0  0  0  0  0  0
   48.4094   13.0150  -13.1958 C   0  0  0  0  0  0  0  0  0  0  0  0
   49.1658   14.0667  -12.4516 C   0  0  0  0  0  0  0  0  0  0  0  0
   47.8780   13.5982  -11.8987 C   0  0  0  0  0  0  0  0  0  0  0  0
   40.2900   12.6159  -17.0768 C   0  0  0  0  0  0  0  0  0  0  0  0
   40.8320   11.8581  -18.2094 C   0  0  0  0  0  0  0  0  0  0  0  0
   40.0909   11.0989  -17.1729 C   0  0  0  0  0  0  0  0  0  0  0  0
   39.1446   13.4262  -14.7480 O   0  0  0  0  0  0  0  0  0  0  0  0
   38.0771   12.8372  -14.2745 C   0  0  0  0  0  0  0  0  0  0  0  0
   36.8942   12.4538  -15.0762 C   0  0  0  0  0  0  0  0  0  0  0  0
   35.7673   13.4690  -15.0506 C   0  0  0  0  0  0  0  0  0  0  0  0
   34.4933   12.6838  -15.1883 C   0  0  0  0  0  0  0  0  0  0  0  0
   34.4801   11.8467  -16.4052 C   0  0  0  0  0  0  0  0  0  0  0  0
   35.7433   11.5199  -17.0877 C   0  0  0  0  0  0  0  0  0  0  0  0
   37.0288   11.9590  -16.4484 C   0  0  0  0  0  0  0  0  0  0  0  0
   33.6397   10.5638  -16.1807 C   0  0  0  0  0  0  0  0  0  0  0  0
   32.5867   10.4873  -17.0382 F   0  0  0  0  0  0  0  0  0  0  0  0
   34.4390    9.4512  -16.4059 F   0  0  0  0  0  0  0  0  0  0  0  0
   33.2313   10.4900  -14.8733 F   0  0  0  0  0  0  0  0  0  0  0  0
  8  9  2  0  0  0
  9 10  1  0  0  0
 10 12  1  0  0  0
 12 13  2  0  0  0
 12 14  2  0  0  0
 12 15  1  0  0  0
 15 16  1  0  0  0
 16 17  1  0  0  0
  9  1  1  0  0  0
  1  2  2  0  0  0
  2  3  1  0  0  0
  3 18  1  0  0  0
 18 19  1  0  0  0
 19 20  1  0  0  0
  3  4  2  0  0  0
  4 21  1  0  0  0
 21 22  1  0  0  0
 22 23  1  0  0  0
 23 24  1  0  0  0
 24 25  1  0  0  0
 25 26  1  0  0  0
 26 29  1  0  0  0
 29 30  1  0  0  0
 29 31  1  0  0  0
 29 32  1  0  0  0
 26 27  1  0  0  0
 27 28  1  0  0  0
  4  5  1  0  0  0
  5  6  2  0  0  0
  6  7  1  0  0  0
 17 15  1  0  0  0
  6  1  1  0  0  0
 20 18  1  0  0  0
 28 23  1  0  0  0
 10 11  1  0  0  0
M  END
> <minimizedAffinity>
-7.95194

> <CNNscore>
0.2356530726

> <CNNaffinity>
6.6358108521

> <CNN_VS>
1.5637491941

> <CNNaffinity_variance>
0.1756300032

$$$$
[H]c1c(F)c(C(=O)N([H])S(=O)(=O)C2([H])C([H])([H])C2([H])[H])c([H])c(C2([H])C([H])([H])C2([H])[H])c1OC([H])([H])C1([H])C([H])([H])C([H])([H])C([H])(C(F)(F)F)C([H])([H])C1([H])[H]


 32 35  0  0  0  0  0  0  0  0999 V2000
   44.4500   14.1434  -12.8595 C   0  0  0  0  0  0  0  0  0  0  0  0
   44.8071   13.7536  -14.1552 C   0  0  0  0  0  0  0  0  0  0  0  0
   43.9053   13.4530  -15.1250 C   0  0  0  0  0  0  0  0  0  0  0  0
   42.5095   13.5213  -14.8642 C   0  0  0  0  0  0  0  0  0  0  0  0
   42.1761   13.9084  -13.5811 C   0  0  0  0  0  0  0  0  0  0  0  0
   43.1214   14.2112  -12.6040 C   0  0  0  0  0  0  0  0  0  0  0  0
   42.6824   14.5632  -11.3919 F   0  0  0  0  0  0  0  0  0  0  0  0
   45.5555   15.6172  -11.4192 O   0  0  0  0  0  0  0  0  0  0  0  0
   45.5288   14.4422  -11.9431 C   0  0  0  0  0  0  0  0  0  0  0  0
   46.5653   13.5948  -11.5471 N   0  0  0  0  0  0  0  0  0  0  0  0
   46.6476   12.6316  -11.8823 H   0  0  0  0  0  0  0  0  0  0  0  0
   47.7757   14.1236  -10.4413 S   0  0  0  0  0  0  0  0  0  0  0  0
   48.2835   12.9583   -9.6265 O   0  0  0  0  0  0  0  0  0  0  0  0
   47.2399   15.1424   -9.4818 O   0  0  0  0  0  0  0  0  0  0  0  0
   49.1688   14.8241  -11.3401 C   0  0  0  0  0  0  0  0  0  0  0  0
   49.0716   14.9685  -12.8240 C   0  0  0  0  0  0  0  0  0  0  0  0
   48.8338   16.1589  -11.9813 C   0  0  0  0  0  0  0  0  0  0  0  0
   44.3081   13.0207  -16.5022 C   0  0  0  0  0  0  0  0  0  0  0  0
   45.6268   12.4417  -16.7791 C   0  0  0  0  0  0  0  0  0  0  0  0
   44.4845   11.5048  -16.6471 C   0  0  0  0  0  0  0  0  0  0  0  0
   41.6766   13.2224  -15.8489 O   0  0  0  0  0  0  0  0  0  0  0  0
   40.5249   13.5061  -16.4000 C   0  0  0  0  0  0  0  0  0  0  0  0
   39.2990   12.6879  -16.2716 C   0  0  0  0  0  0  0  0  0  0  0  0
   39.3864   11.3250  -16.9321 C   0  0  0  0  0  0  0  0  0  0  0  0
   37.9949   10.9930  -17.3925 C   0  0  0  0  0  0  0  0  0  0  0  0
   37.0155   11.0302  -16.2875 C   0  0  0  0  0  0  0  0  0  0  0  0
   37.3367   11.7485  -15.0428 C   0  0  0  0  0  0  0  0  0  0  0  0
   38.6197   12.5260  -14.9839 C   0  0  0  0  0  0  0  0  0  0  0  0
   35.6164   11.4488  -16.8071 C   0  0  0  0  0  0  0  0  0  0  0  0
   35.6309   11.7358  -18.1366 F   0  0  0  0  0  0  0  0  0  0  0  0
   34.7286   10.3980  -16.6198 F   0  0  0  0  0  0  0  0  0  0  0  0
   35.1344   12.5002  -16.0698 F   0  0  0  0  0  0  0  0  0  0  0  0
  8  9  2  0  0  0
  9 10  1  0  0  0
 10 12  1  0  0  0
 12 13  2  0  0  0
 12 14  2  0  0  0
 12 15  1  0  0  0
 15 16  1  0  0  0
 16 17  1  0  0  0
  9  1  1  0  0  0
  1  2  2  0  0  0
  2  3  1  0  0  0
  3 18  1  0  0  0
 18 19  1  0  0  0
 19 20  1  0  0  0
  3  4  2  0  0  0
  4 21  1  0  0  0
 21 22  1  0  0  0
 22 23  1  0  0  0
 23 24  1  0  0  0
 24 25  1  0  0  0
 25 26  1  0  0  0
 26 29  1  0  0  0
 29 30  1  0  0  0
 29 31  1  0  0  0
 29 32  1  0  0  0
 26 27  1  0  0  0
 27 28  1  0  0  0
  4  5  1  0  0  0
  5  6  2  0  0  0
  6  7  1  0  0  0
 17 15  1  0  0  0
  6  1  1  0  0  0
 20 18  1  0  0  0
 28 23  1  0  0  0
 10 11  1  0  0  0
M  END
> <minimizedAffinity>
-6.69677

> <CNNscore>
0.1380511373

> <CNNaffinity>
6.1951265335

> <CNN_VS>
0.8552442789

> <CNNaffinity_variance>
0.2168387473

$$$$
[H]c1c(F)c(C(=O)N([H])S(=O)(=O)C2([H])C([H])([H])C2([H])[H])c([H])c(C2([H])C([H])([H])C2([H])[H])c1OC([H])([H])C1([H])C([H])([H])C([H])([H])C([H])(C(F)(F)F)C([H])([H])C1([H])[H]


 32 35  0  0  0  0  0  0  0  0999 V2000
   38.5153   12.8976  -14.7982 C   0  0  0  0  0  0  0  0  0  0  0  0
   39.0269   12.2850  -15.9476 C   0  0  0  0  0  0  0  0  0  0  0  0
   40.3037   12.4475  -16.3808 C   0  0  0  0  0  0  0  0  0  0  0  0
   41.2128   13.2741  -15.6658 C   0  0  0  0  0  0  0  0  0  0  0  0
   40.6908   13.8692  -14.5342 C   0  0  0  0  0  0  0  0  0  0  0  0
   39.3763   13.6863  -14.1114 C   0  0  0  0  0  0  0  0  0  0  0  0
   38.9767   14.3230  -13.0066 F   0  0  0  0  0  0  0  0  0  0  0  0
   36.9168   11.8199  -13.4745 O   0  0  0  0  0  0  0  0  0  0  0  0
   37.1369   12.6149  -14.4620 C   0  0  0  0  0  0  0  0  0  0  0  0
   35.9917   13.1102  -15.0886 N   0  0  0  0  0  0  0  0  0  0  0  0
   36.0332   13.7614  -15.8768 H   0  0  0  0  0  0  0  0  0  0  0  0
   34.4175   12.6604  -14.5530 S   0  0  0  0  0  0  0  0  0  0  0  0
   33.4094   13.7102  -14.9547 O   0  0  0  0  0  0  0  0  0  0  0  0
   34.3582   12.5289  -13.0614 O   0  0  0  0  0  0  0  0  0  0  0  0
   33.9303   11.1018  -15.3099 C   0  0  0  0  0  0  0  0  0  0  0  0
   33.3903   11.1134  -16.7029 C   0  0  0  0  0  0  0  0  0  0  0  0
   34.8037   10.7348  -16.4963 C   0  0  0  0  0  0  0  0  0  0  0  0
   40.8280   11.7961  -17.6245 C   0  0  0  0  0  0  0  0  0  0  0  0
   40.0062   10.8864  -18.4295 C   0  0  0  0  0  0  0  0  0  0  0  0
   40.1489   12.2824  -18.9100 C   0  0  0  0  0  0  0  0  0  0  0  0
   42.4465   13.3912  -16.1318 O   0  0  0  0  0  0  0  0  0  0  0  0
   43.6780   12.9653  -16.0196 C   0  0  0  0  0  0  0  0  0  0  0  0
   44.7715   13.7005  -15.3468 C   0  0  0  0  0  0  0  0  0  0  0  0
   44.3799   14.3257  -14.0213 C   0  0  0  0  0  0  0  0  0  0  0  0
   45.2131   15.5686  -13.8823 C   0  0  0  0  0  0  0  0  0  0  0  0
   46.6599   15.2863  -13.9751 C   0  0  0  0  0  0  0  0  0  0  0  0
   47.1272   14.0283  -14.5812 C   0  0  0  0  0  0  0  0  0  0  0  0
   46.1061   13.1157  -15.1966 C   0  0  0  0  0  0  0  0  0  0  0  0
   47.4174   16.4936  -14.5845 C   0  0  0  0  0  0  0  0  0  0  0  0
   48.3536   16.1035  -15.4909 F   0  0  0  0  0  0  0  0  0  0  0  0
   46.5124   17.3101  -15.2489 F   0  0  0  0  0  0  0  0  0  0  0  0
   47.9690   17.2567  -13.5871 F   0  0  0  0  0  0  0  0  0  0  0  0
  8  9  2  0  0  0
  9 10  1  0  0  0
 10 12  1  0  0  0
 12 13  2  0  0  0
 12 14  2  0  0  0
 12 15  1  0  0  0
 15 16  1  0  0  0
 16 17  1  0  0  0
  9  1  1  0  0  0
  1  2  2  0  0  0
  2  3  1  0  0  0
  3 18  1  0  0  0
 18 19  1  0  0  0
 19 20  1  0  0  0
  3  4  2  0  0  0
  4 21  1  0  0  0
 21 22  1  0  0  0
 22 23  1  0  0  0
 23 24  1  0  0  0
 24 25  1  0  0  0
 25 26  1  0  0  0
 26 29  1  0  0  0
 29 30  1  0  0  0
 29 31  1  0  0  0
 29 32  1  0  0  0
 26 27  1  0  0  0
 27 28  1  0  0  0
  4  5  1  0  0  0
  5  6  2  0  0  0
  6  7  1  0  0  0
 17 15  1  0  0  0
  6  1  1  0  0  0
 20 18  1  0  0  0
 28 23  1  0  0  0
 10 11  1  0  0  0
M  END
> <minimizedAffinity>
-8.07023

> <CNNscore>
0.1165188327

> <CNNaffinity>
6.2100477219

> <CNN_VS>
0.7235875130

> <CNNaffinity_variance>
0.1432422996

$$$$
[H]c1c(F)c(C(=O)N([H])S(=O)(=O)C2([H])C([H])([H])C2([H])[H])c([H])c(C2([H])C([H])([H])C2([H])[H])c1OC([H])([H])C1([H])C([H])([H])C([H])([H])C([H])(C(F)(F)F)C([H])([H])C1([H])[H]


 32 35  0  0  0  0  0  0  0  0999 V2000
   41.9850   13.1156  -15.6310 C   0  0  0  0  0  0  0  0  0  0  0  0
   41.5947   12.2177  -16.6308 C   0  0  0  0  0  0  0  0  0  0  0  0
   40.2993   11.9207  -16.9103 C   0  0  0  0  0  0  0  0  0  0  0  0
   39.2419   12.5259  -16.1778 C   0  0  0  0  0  0  0  0  0  0  0  0
   39.6459   13.4094  -15.1962 C   0  0  0  0  0  0  0  0  0  0  0  0
   40.9825   13.6966  -14.9293 C   0  0  0  0  0  0  0  0  0  0  0  0
   41.2561   14.5597  -13.9464 F   0  0  0  0  0  0  0  0  0  0  0  0
   44.0534   13.8207  -16.4636 O   0  0  0  0  0  0  0  0  0  0  0  0
   43.4051   13.3351  -15.4638 C   0  0  0  0  0  0  0  0  0  0  0  0
   44.1751   13.0816  -14.3271 N   0  0  0  0  0  0  0  0  0  0  0  0
   43.7747   12.7082  -13.4627 H   0  0  0  0  0  0  0  0  0  0  0  0
   45.8674   13.4029  -14.3071 S   0  0  0  0  0  0  0  0  0  0  0  0
   46.1293   14.8455  -14.6677 O   0  0  0  0  0  0  0  0  0  0  0  0
   46.6028   12.5522  -15.2976 O   0  0  0  0  0  0  0  0  0  0  0  0
   46.5313   13.1111  -12.6598 C   0  0  0  0  0  0  0  0  0  0  0  0
   45.6173   13.2213  -11.4831 C   0  0  0  0  0  0  0  0  0  0  0  0
   45.9377   11.8765  -12.0052 C   0  0  0  0  0  0  0  0  0  0  0  0
   39.9021   10.9429  -17.9742 C   0  0  0  0  0  0  0  0  0  0  0  0
   38.7751   11.1951  -18.8781 C   0  0  0  0  0  0  0  0  0  0  0  0
   40.1393   11.4516  -19.4007 C   0  0  0  0  0  0  0  0  0  0  0  0
   37.9985   12.2027  -16.4973 O   0  0  0  0  0  0  0  0  0  0  0  0
   36.8055   11.9436  -16.0278 C   0  0  0  0  0  0  0  0  0  0  0  0
   36.2350   12.5267  -14.7935 C   0  0  0  0  0  0  0  0  0  0  0  0
   34.7321   12.7286  -14.8357 C   0  0  0  0  0  0  0  0  0  0  0  0
   34.4473   13.9319  -13.9815 C   0  0  0  0  0  0  0  0  0  0  0  0
   34.9643   13.7777  -12.6065 C   0  0  0  0  0  0  0  0  0  0  0  0
   36.0008   12.7723  -12.3181 C   0  0  0  0  0  0  0  0  0  0  0  0
   36.5867   12.0076  -13.4697 C   0  0  0  0  0  0  0  0  0  0  0  0
   35.3650   15.1523  -12.0127 C   0  0  0  0  0  0  0  0  0  0  0  0
   34.2799   15.9259  -11.7401 F   0  0  0  0  0  0  0  0  0  0  0  0
   36.0415   14.9515  -10.8171 F   0  0  0  0  0  0  0  0  0  0  0  0
   36.2416   15.7915  -12.8520 F   0  0  0  0  0  0  0  0  0  0  0  0
  8  9  2  0  0  0
  9 10  1  0  0  0
 10 12  1  0  0  0
 12 13  2  0  0  0
 12 14  2  0  0  0
 12 15  1  0  0  0
 15 16  1  0  0  0
 16 17  1  0  0  0
  9  1  1  0  0  0
  1  2  2  0  0  0
  2  3  1  0  0  0
  3 18  1  0  0  0
 18 19  1  0  0  0
 19 20  1  0  0  0
  3  4  2  0  0  0
  4 21  1  0  0  0
 21 22  1  0  0  0
 22 23  1  0  0  0
 23 24  1  0  0  0
 24 25  1  0  0  0
 25 26  1  0  0  0
 26 29  1  0  0  0
 29 30  1  0  0  0
 29 31  1  0  0  0
 29 32  1  0  0  0
 26 27  1  0  0  0
 27 28  1  0  0  0
  4  5  1  0  0  0
  5  6  2  0  0  0
  6  7  1  0  0  0
 17 15  1  0  0  0
  6  1  1  0  0  0
 20 18  1  0  0  0
 28 23  1  0  0  0
 10 11  1  0  0  0
M  END
> <minimizedAffinity>
-8.03370

> <CNNscore>
0.1127449498

> <CNNaffinity>
6.5667963028

> <CNN_VS>
0.7403731346

> <CNNaffinity_variance>
0.0707196295

$$$$
[H]c1c(F)c(C(=O)N([H])S(=O)(=O)C2([H])C([H])([H])C2([H])[H])c([H])c(C2([H])C([H])([H])C2([H])[H])c1OC([H])([H])C1([H])C([H])([H])C([H])([H])C([H])(C(F)(F)F)C([H])([H])C1([H])[H]


 32 35  0  0  0  0  0  0  0  0999 V2000
   44.0404   13.3911  -14.7450 C   0  0  0  0  0  0  0  0  0  0  0  0
   43.0751   12.8470  -15.5997 C   0  0  0  0  0  0  0  0  0  0  0  0
   41.7419   13.0667  -15.4643 C   0  0  0  0  0  0  0  0  0  0  0  0
   41.2445   13.8859  -14.4144 C   0  0  0  0  0  0  0  0  0  0  0  0
   42.2112   14.4147  -13.5818 C   0  0  0  0  0  0  0  0  0  0  0  0
   43.5736   14.1735  -13.7424 C   0  0  0  0  0  0  0  0  0  0  0  0
   44.4180   14.7287  -12.8680 F   0  0  0  0  0  0  0  0  0  0  0  0
   45.6608   11.9974  -15.6939 O   0  0  0  0  0  0  0  0  0  0  0  0
   45.4228   13.0730  -15.0290 C   0  0  0  0  0  0  0  0  0  0  0  0
   46.5544   13.8053  -14.6647 N   0  0  0  0  0  0  0  0  0  0  0  0
   46.4972   14.6854  -14.1460 H   0  0  0  0  0  0  0  0  0  0  0  0
   48.1363   13.2706  -15.0879 S   0  0  0  0  0  0  0  0  0  0  0  0
   48.2864   13.2211  -16.5895 O   0  0  0  0  0  0  0  0  0  0  0  0
   48.4127   11.8942  -14.5637 O   0  0  0  0  0  0  0  0  0  0  0  0
   49.3672   14.4141  -14.4423 C   0  0  0  0  0  0  0  0  0  0  0  0
   48.9109   15.7086  -13.8524 C   0  0  0  0  0  0  0  0  0  0  0  0
   49.2559   14.5990  -12.9395 C   0  0  0  0  0  0  0  0  0  0  0  0
   40.7223   12.4607  -16.3802 C   0  0  0  0  0  0  0  0  0  0  0  0
   40.3425   13.0951  -17.6468 C   0  0  0  0  0  0  0  0  0  0  0  0
   41.3026   11.9663  -17.7102 C   0  0  0  0  0  0  0  0  0  0  0  0
   39.9358   14.0693  -14.3343 O   0  0  0  0  0  0  0  0  0  0  0  0
   38.9492   14.4124  -13.5471 C   0  0  0  0  0  0  0  0  0  0  0  0
   37.6199   13.7633  -13.5214 C   0  0  0  0  0  0  0  0  0  0  0  0
   37.5584   12.4378  -14.2566 C   0  0  0  0  0  0  0  0  0  0  0  0
   36.1607   12.3232  -14.7967 C   0  0  0  0  0  0  0  0  0  0  0  0
   35.1393   12.4356  -13.7358 C   0  0  0  0  0  0  0  0  0  0  0  0
   35.4888   13.0370  -12.4379 C   0  0  0  0  0  0  0  0  0  0  0  0
   36.8595   13.6282  -12.2767 C   0  0  0  0  0  0  0  0  0  0  0  0
   33.8374   13.0677  -14.2910 C   0  0  0  0  0  0  0  0  0  0  0  0
   32.9568   13.3745  -13.3007 F   0  0  0  0  0  0  0  0  0  0  0  0
   34.1502   14.2499  -14.9482 F   0  0  0  0  0  0  0  0  0  0  0  0
   33.2735   12.2400  -15.2282 F   0  0  0  0  0  0  0  0  0  0  0  0
  8  9  2  0  0  0
  9 10  1  0  0  0
 10 12  1  0  0  0
 12 13  2  0  0  0
 12 14  2  0  0  0
 12 15  1  0  0  0
 15 16  1  0  0  0
 16 17  1  0  0  0
  9  1  1  0  0  0
  1  2  2  0  0  0
  2  3  1  0  0  0
  3 18  1  0  0  0
 18 19  1  0  0  0
 19 20  1  0  0  0
  3  4  2  0  0  0
  4 21  1  0  0  0
 21 22  1  0  0  0
 22 23  1  0  0  0
 23 24  1  0  0  0
 24 25  1  0  0  0
 25 26  1  0  0  0
 26 29  1  0  0  0
 29 30  1  0  0  0
 29 31  1  0  0  0
 29 32  1  0  0  0
 26 27  1  0  0  0
 27 28  1  0  0  0
  4  5  1  0  0  0
  5  6  2  0  0  0
  6  7  1  0  0  0
 17 15  1  0  0  0
  6  1  1  0  0  0
 20 18  1  0  0  0
 28 23  1  0  0  0
 10 11  1  0  0  0
M  END
> <minimizedAffinity>
-7.94211

> <CNNscore>
0.1064316854

> <CNNaffinity>
6.4719877243

> <CNN_VS>
0.6888245344

> <CNNaffinity_variance>
0.1715279520

$$$$
[H]c1c(F)c(C(=O)N([H])S(=O)(=O)C2([H])C([H])([H])C2([H])[H])c([H])c(C2([H])C([H])([H])C2([H])[H])c1OC([H])([H])C1([H])C([H])([H])C([H])([H])C([H])(C(F)(F)F)C([H])([H])C1([H])[H]


 32 35  0  0  0  0  0  0  0  0999 V2000
   38.5657   12.9334  -14.8100 C   0  0  0  0  0  0  0  0  0  0  0  0
   39.0827   12.3244  -15.9589 C   0  0  0  0  0  0  0  0  0  0  0  0
   40.3554   12.5047  -16.3972 C   0  0  0  0  0  0  0  0  0  0  0  0
   41.2541   13.3480  -15.6885 C   0  0  0  0  0  0  0  0  0  0  0  0
   40.7269   13.9395  -14.5574 C   0  0  0  0  0  0  0  0  0  0  0  0
   39.4168   13.7380  -14.1293 C   0  0  0  0  0  0  0  0  0  0  0  0
   39.0112   14.3727  -13.0255 F   0  0  0  0  0  0  0  0  0  0  0  0
   36.9890   11.7996  -13.5071 O   0  0  0  0  0  0  0  0  0  0  0  0
   37.1930   12.6309  -14.4679 C   0  0  0  0  0  0  0  0  0  0  0  0
   36.0377   13.1417  -15.0627 N   0  0  0  0  0  0  0  0  0  0  0  0
   36.0662   13.8209  -15.8274 H   0  0  0  0  0  0  0  0  0  0  0  0
   34.4724   12.6638  -14.5250 S   0  0  0  0  0  0  0  0  0  0  0  0
   33.4465   13.6994  -14.9183 O   0  0  0  0  0  0  0  0  0  0  0  0
   34.4196   12.5236  -13.0340 O   0  0  0  0  0  0  0  0  0  0  0  0
   34.0082   11.1015  -15.2888 C   0  0  0  0  0  0  0  0  0  0  0  0
   33.3524   11.1209  -16.6310 C   0  0  0  0  0  0  0  0  0  0  0  0
   34.7966   10.8176  -16.5548 C   0  0  0  0  0  0  0  0  0  0  0  0
   40.8853   11.8567  -17.6401 C   0  0  0  0  0  0  0  0  0  0  0  0
   40.0889   10.9012  -18.4170 C   0  0  0  0  0  0  0  0  0  0  0  0
   40.1647   12.2943  -18.9205 C   0  0  0  0  0  0  0  0  0  0  0  0
   42.4842   13.4823  -16.1593 O   0  0  0  0  0  0  0  0  0  0  0  0
   43.7429   13.1846  -15.9653 C   0  0  0  0  0  0  0  0  0  0  0  0
   44.4307   13.2206  -14.6560 C   0  0  0  0  0  0  0  0  0  0  0  0
   45.9093   12.8870  -14.7184 C   0  0  0  0  0  0  0  0  0  0  0  0
   46.2447   12.2256  -13.4113 C   0  0  0  0  0  0  0  0  0  0  0  0
   45.8987   13.0711  -12.2507 C   0  0  0  0  0  0  0  0  0  0  0  0
   44.9434   14.1807  -12.4069 C   0  0  0  0  0  0  0  0  0  0  0  0
   44.2571   14.3441  -13.7322 C   0  0  0  0  0  0  0  0  0  0  0  0
   45.5168   12.1974  -11.0287 C   0  0  0  0  0  0  0  0  0  0  0  0
   45.9809   12.7211   -9.8623 F   0  0  0  0  0  0  0  0  0  0  0  0
   44.1335   12.1310  -10.9315 F   0  0  0  0  0  0  0  0  0  0  0  0
   45.9551   10.9108  -11.2131 F   0  0  0  0  0  0  0  0  0  0  0  0
  8  9  2  0  0  0
  9 10  1  0  0  0
 10 12  1  0  0  0
 12 13  2  0  0  0
 12 14  2  0  0  0
 12 15  1  0  0  0
 15 16  1  0  0  0
 16 17  1  0  0  0
  9  1  1  0  0  0
  1  2  2  0  0  0
  2  3  1  0  0  0
  3 18  1  0  0  0
 18 19  1  0  0  0
 19 20  1  0  0  0
  3  4  2  0  0  0
  4 21  1  0  0  0
 21 22  1  0  0  0
 22 23  1  0  0  0
 23 24  1  0  0  0
 24 25  1  0  0  0
 25 26  1  0  0  0
 26 29  1  0  0  0
 29 30  1  0  0  0
 29 31  1  0  0  0
 29 32  1  0  0  0
 26 27  1  0  0  0
 27 28  1  0  0  0
  4  5  1  0  0  0
  5  6  2  0  0  0
  6  7  1  0  0  0
 17 15  1  0  0  0
  6  1  1  0  0  0
 20 18  1  0  0  0
 28 23  1  0  0  0
 10 11  1  0  0  0
M  END
> <minimizedAffinity>
-8.09225

> <CNNscore>
0.1026559398

> <CNNaffinity>
6.2578253746

> <CNN_VS>
0.6424029469

> <CNNaffinity_variance>
0.1894463599

$$$$
[H]c1c(F)c(C(=O)N([H])S(=O)(=O)C2([H])C([H])([H])C2([H])[H])c([H])c(C2([H])C([H])([H])C2([H])[H])c1OC([H])([H])C1([H])C([H])([H])C([H])([H])C([H])(C(F)(F)F)C([H])([H])C1([H])[H]


 32 35  0  0  0  0  0  0  0  0999 V2000
   38.5411   12.8897  -14.7864 C   0  0  0  0  0  0  0  0  0  0  0  0
   39.0553   12.2788  -15.9356 C   0  0  0  0  0  0  0  0  0  0  0  0
   40.3345   12.4378  -16.3630 C   0  0  0  0  0  0  0  0  0  0  0  0
   41.2437   13.2587  -15.6416 C   0  0  0  0  0  0  0  0  0  0  0  0
   40.7192   13.8523  -14.5104 C   0  0  0  0  0  0  0  0  0  0  0  0
   39.4023   13.6731  -14.0936 C   0  0  0  0  0  0  0  0  0  0  0  0
   39.0004   14.3079  -12.9885 F   0  0  0  0  0  0  0  0  0  0  0  0
   36.9330   11.8235  -13.4652 O   0  0  0  0  0  0  0  0  0  0  0  0
   37.1603   12.6113  -14.4569 C   0  0  0  0  0  0  0  0  0  0  0  0
   36.0197   13.1036  -15.0941 N   0  0  0  0  0  0  0  0  0  0  0  0
   36.0671   13.7491  -15.8866 H   0  0  0  0  0  0  0  0  0  0  0  0
   34.4416   12.6596  -14.5652 S   0  0  0  0  0  0  0  0  0  0  0  0
   33.4401   13.7162  -14.9657 O   0  0  0  0  0  0  0  0  0  0  0  0
   34.3770   12.5223  -13.0744 O   0  0  0  0  0  0  0  0  0  0  0  0
   33.9488   11.1066  -15.3300 C   0  0  0  0  0  0  0  0  0  0  0  0
   33.3813   11.1305  -16.7118 C   0  0  0  0  0  0  0  0  0  0  0  0
   34.8007   10.7584  -16.5375 C   0  0  0  0  0  0  0  0  0  0  0  0
   40.8615   11.7883  -17.6064 C   0  0  0  0  0  0  0  0  0  0  0  0
   40.0465   10.8681  -18.4064 C   0  0  0  0  0  0  0  0  0  0  0  0
   40.1736   12.2642  -18.8912 C   0  0  0  0  0  0  0  0  0  0  0  0
   42.4797   13.3726  -16.1020 O   0  0  0  0  0  0  0  0  0  0  0  0
   43.7347   13.5338  -15.7708 C   0  0  0  0  0  0  0  0  0  0  0  0
   44.2082   14.2420  -14.5612 C   0  0  0  0  0  0  0  0  0  0  0  0
   44.1919   13.4006  -13.2991 C   0  0  0  0  0  0  0  0  0  0  0  0
   43.9266   14.3512  -12.1657 C   0  0  0  0  0  0  0  0  0  0  0  0
   44.9166   15.4459  -12.1094 C   0  0  0  0  0  0  0  0  0  0  0  0
   45.7336   15.7613  -13.2932 C   0  0  0  0  0  0  0  0  0  0  0  0
   45.4464   15.0246  -14.5695 C   0  0  0  0  0  0  0  0  0  0  0  0
   44.2774   16.7358  -11.5348 C   0  0  0  0  0  0  0  0  0  0  0  0
   45.1377   17.4169  -10.7309 F   0  0  0  0  0  0  0  0  0  0  0  0
   43.9342   17.5792  -12.5828 F   0  0  0  0  0  0  0  0  0  0  0  0
   43.1098   16.4334  -10.8816 F   0  0  0  0  0  0  0  0  0  0  0  0
  8  9  2  0  0  0
  9 10  1  0  0  0
 10 12  1  0  0  0
 12 13  2  0  0  0
 12 14  2  0  0  0
 12 15  1  0  0  0
 15 16  1  0  0  0
 16 17  1  0  0  0
  9  1  1  0  0  0
  1  2  2  0  0  0
  2  3  1  0  0  0
  3 18  1  0  0  0
 18 19  1  0  0  0
 19 20  1  0  0  0
  3  4  2  0  0  0
  4 21  1  0  0  0
 21 22  1  0  0  0
 22 23  1  0  0  0
 23 24  1  0  0  0
 24 25  1  0  0  0
 25 26  1  0  0  0
 26 29  1  0  0  0
 29 30  1  0  0  0
 29 31  1  0  0  0
 29 32  1  0  0  0
 26 27  1  0  0  0
 27 28  1  0  0  0
  4  5  1  0  0  0
  5  6  2  0  0  0
  6  7  1  0  0  0
 17 15  1  0  0  0
  6  1  1  0  0  0
 20 18  1  0  0  0
 28 23  1  0  0  0
 10 11  1  0  0  0
M  END
> <minimizedAffinity>
-8.10818

> <CNNscore>
0.0978339612

> <CNNaffinity>
6.3345804214

> <CNN_VS>
0.6197370887

> <CNNaffinity_variance>
0.1009794325

$$$$
[H]c1c(F)c(C(=O)N([H])S(=O)(=O)C2([H])C([H])([H])C2([H])[H])c([H])c(C2([H])C([H])([H])C2([H])[H])c1OC([H])([H])C1([H])C([H])([H])C([H])([H])C([H])(C(F)(F)F)C([H])([H])C1([H])[H]


 32 35  0  0  0  0  0  0  0  0999 V2000
   42.0388   15.6186  -11.7602 C   0  0  0  0  0  0  0  0  0  0  0  0
   41.4111   15.1957  -12.9372 C   0  0  0  0  0  0  0  0  0  0  0  0
   40.0680   15.2446  -13.1321 C   0  0  0  0  0  0  0  0  0  0  0  0
   39.2055   15.7434  -12.1181 C   0  0  0  0  0  0  0  0  0  0  0  0
   39.8425   16.1568  -10.9646 C   0  0  0  0  0  0  0  0  0  0  0  0
   41.2230   16.0958  -10.7897 C   0  0  0  0  0  0  0  0  0  0  0  0
   41.7285   16.5129   -9.6252 F   0  0  0  0  0  0  0  0  0  0  0  0
   44.1380   15.8588  -12.7624 O   0  0  0  0  0  0  0  0  0  0  0  0
   43.4809   15.5139  -11.7112 C   0  0  0  0  0  0  0  0  0  0  0  0
   44.2643   15.0775  -10.6411 N   0  0  0  0  0  0  0  0  0  0  0  0
   43.8619   14.7890   -9.7457 H   0  0  0  0  0  0  0  0  0  0  0  0
   45.9816   15.0138  -10.7615 S   0  0  0  0  0  0  0  0  0  0  0  0
   46.5462   16.4057  -10.9151 O   0  0  0  0  0  0  0  0  0  0  0  0
   46.4226   14.2169  -11.9515 O   0  0  0  0  0  0  0  0  0  0  0  0
   46.6784   14.2918   -9.2673 C   0  0  0  0  0  0  0  0  0  0  0  0
   45.8026   13.4530   -8.3947 C   0  0  0  0  0  0  0  0  0  0  0  0
   46.7296   12.7755   -9.3249 C   0  0  0  0  0  0  0  0  0  0  0  0
   39.4131   14.7706  -14.3939 C   0  0  0  0  0  0  0  0  0  0  0  0
   40.1462   14.0074  -15.4093 C   0  0  0  0  0  0  0  0  0  0  0  0
   39.2730   13.2466  -14.4826 C   0  0  0  0  0  0  0  0  0  0  0  0
   37.9053   15.7725  -12.3655 O   0  0  0  0  0  0  0  0  0  0  0  0
   36.7469   15.2432  -12.0677 C   0  0  0  0  0  0  0  0  0  0  0  0
   36.0454   14.2256  -12.8810 C   0  0  0  0  0  0  0  0  0  0  0  0
   36.1876   12.8067  -12.3635 C   0  0  0  0  0  0  0  0  0  0  0  0
   36.1484   11.9145  -13.5722 C   0  0  0  0  0  0  0  0  0  0  0  0
   34.9229   12.1100  -14.3731 C   0  0  0  0  0  0  0  0  0  0  0  0
   34.1265   13.3382  -14.2126 C   0  0  0  0  0  0  0  0  0  0  0  0
   34.6583   14.4152  -13.3118 C   0  0  0  0  0  0  0  0  0  0  0  0
   35.1977   11.8366  -15.8739 C   0  0  0  0  0  0  0  0  0  0  0  0
   35.8127   10.6393  -16.0700 F   0  0  0  0  0  0  0  0  0  0  0  0
   33.9902   11.7991  -16.5580 F   0  0  0  0  0  0  0  0  0  0  0  0
   35.9195   12.8688  -16.4171 F   0  0  0  0  0  0  0  0  0  0  0  0
  8  9  2  0  0  0
  9 10  1  0  0  0
 10 12  1  0  0  0
 12 13  2  0  0  0
 12 14  2  0  0  0
 12 15  1  0  0  0
 15 16  1  0  0  0
 16 17  1  0  0  0
  9  1  1  0  0  0
  1  2  2  0  0  0
  2  3  1  0  0  0
  3 18  1  0  0  0
 18 19  1  0  0  0
 19 20  1  0  0  0
  3  4  2  0  0  0
  4 21  1  0  0  0
 21 22  1  0  0  0
 22 23  1  0  0  0
 23 24  1  0  0  0
 24 25  1  0  0  0
 25 26  1  0  0  0
 26 29  1  0  0  0
 29 30  1  0  0  0
 29 31  1  0  0  0
 29 32  1  0  0  0
 26 27  1  0  0  0
 27 28  1  0  0  0
  4  5  1  0  0  0
  5  6  2  0  0  0
  6  7  1  0  0  0
 17 15  1  0  0  0
  6  1  1  0  0  0
 20 18  1  0  0  0
 28 23  1  0  0  0
 10 11  1  0  0  0
M  END
> <minimizedAffinity>
-6.47581

> <CNNscore>
0.0886083096

> <CNNaffinity>
6.0693316460

> <CNN_VS>
0.5377932191

> <CNNaffinity_variance>
0.0895809680

$$$$
[H]OC(=O)C1=C([H])[C@@]([H])(O[C@@]([H])(C([H])([H])C([H])([H])[H])C([H])([H])C([H])([H])C([H])([H])C([H])([H])C([H])([H])C([H])([H])C([H])([H])[H])[C@]([H])(N([H])C(=O)C([H])([H])[H])[C@@]([H])(N([H])[H])C1([H])[H]


 29 29  0  0  0  0  0  0  0  0999 V2000
   35.2800   13.9688  -12.7738 C   0  0  0  0  0  0  0  0  0  0  0  0
   36.6144   14.0650  -12.0595 C   0  0  0  0  0  0  0  0  0  0  0  0
   37.0300   15.2759  -11.6867 C   0  0  0  0  0  0  0  0  0  0  0  0
   36.0525   16.3741  -12.0388 C   0  0  0  0  0  0  0  0  0  0  0  0
   34.7759   15.9798  -11.3417 C   0  0  0  0  0  0  0  0  0  0  0  0
   34.9624   16.0463   -9.8955 N   0  0  0  0  0  0  0  0  0  0  0  0
   34.3371   14.6097  -11.7796 C   0  0  0  0  0  0  0  0  0  0  0  0
   35.8473   16.5428   -9.6511 H   0  0  0  0  0  0  0  0  0  0  0  0
   34.1495   16.5888   -9.4737 H   0  0  0  0  0  0  0  0  0  0  0  0
   32.9831   14.7649  -12.2593 N   0  0  0  0  0  0  0  0  0  0  0  0
   31.8876   14.9980  -11.4009 C   0  0  0  0  0  0  0  0  0  0  0  0
   30.4962   15.1582  -11.8841 C   0  0  0  0  0  0  0  0  0  0  0  0
   32.0970   15.0742  -10.1657 O   0  0  0  0  0  0  0  0  0  0  0  0
   32.8187   14.7001  -13.2848 H   0  0  0  0  0  0  0  0  0  0  0  0
   38.2521   15.5813  -11.0069 C   0  0  0  0  0  0  0  0  0  0  0  0
   38.9992   16.5498  -11.3219 O   0  0  0  0  0  0  0  0  0  0  0  0
   38.6429   14.7693   -9.9390 O   0  0  0  0  0  0  0  0  0  0  0  0
   39.0838   15.2514   -9.1501 H   0  0  0  0  0  0  0  0  0  0  0  0
   35.0289   12.6630  -13.0221 O   0  0  0  0  0  0  0  0  0  0  0  0
   34.9751   12.2470  -14.3563 C   0  0  0  0  0  0  0  0  0  0  0  0
   33.6250   12.1384  -14.9454 C   0  0  0  0  0  0  0  0  0  0  0  0
   33.5875   11.0631  -16.0330 C   0  0  0  0  0  0  0  0  0  0  0  0
   35.9460   12.9289  -15.2162 C   0  0  0  0  0  0  0  0  0  0  0  0
   37.1925   12.3418  -15.7089 C   0  0  0  0  0  0  0  0  0  0  0  0
   37.1000   11.4167  -16.8457 C   0  0  0  0  0  0  0  0  0  0  0  0
   38.5212   10.8251  -17.1486 C   0  0  0  0  0  0  0  0  0  0  0  0
   39.4799   11.9200  -16.7261 C   0  0  0  0  0  0  0  0  0  0  0  0
   40.1657   11.4125  -19.0051 C   0  0  0  0  0  0  0  0  0  0  0  0
   40.4407   12.2840  -17.8185 C   0  0  0  0  0  0  0  0  0  0  0  0
 28 29  1  0  0  0
 29 27  1  0  0  0
 27 26  1  0  0  0
 26 25  1  0  0  0
 25 24  1  0  0  0
 24 23  1  0  0  0
 23 20  1  0  0  0
 20 21  1  0  0  0
 21 22  1  0  0  0
 20 19  1  0  0  0
 19  1  1  0  0  0
  1  2  1  0  0  0
  2  3  2  0  0  0
  3 15  1  0  0  0
 15 16  2  0  0  0
 15 17  1  0  0  0
  3  4  1  0  0  0
  4  5  1  0  0  0
  5  6  1  0  0  0
  5  7  1  0  0  0
  7 10  1  0  0  0
 10 11  1  0  0  0
 11 12  1  0  0  0
 11 13  2  0  0  0
  7  1  1  0  0  0
 17 18  1  0  0  0
  6  8  1  0  0  0
  6  9  1  0  0  0
 10 14  1  0  0  0
M  END
> <minimizedAffinity>
-6.58036

> <CNNscore>
0.5326026678

> <CNNaffinity>
6.2984013557

> <CNN_VS>
3.3545453548

> <CNNaffinity_variance>
0.2492562979

$$$$
[H]OC(=O)C1=C([H])[C@@]([H])(O[C@@]([H])(C([H])([H])C([H])([H])[H])C([H])([H])C([H])([H])C([H])([H])C([H])([H])C([H])([H])C([H])([H])C([H])([H])[H])[C@]([H])(N([H])C(=O)C([H])([H])[H])[C@@]([H])(N([H])[H])C1([H])[H]


 29 29  0  0  0  0  0  0  0  0999 V2000
   37.0893   14.2488  -12.3824 C   0  0  0  0  0  0  0  0  0  0  0  0
   37.5794   14.7279  -11.0295 C   0  0  0  0  0  0  0  0  0  0  0  0
   37.1437   15.9119  -10.5980 C   0  0  0  0  0  0  0  0  0  0  0  0
   36.1894   16.5808  -11.5611 C   0  0  0  0  0  0  0  0  0  0  0  0
   35.0628   15.5930  -11.7223 C   0  0  0  0  0  0  0  0  0  0  0  0
   34.3417   15.4566  -10.4605 N   0  0  0  0  0  0  0  0  0  0  0  0
   35.5872   14.2686  -12.2048 C   0  0  0  0  0  0  0  0  0  0  0  0
   34.6131   16.2064   -9.7872 H   0  0  0  0  0  0  0  0  0  0  0  0
   33.2990   15.5458  -10.6548 H   0  0  0  0  0  0  0  0  0  0  0  0
   34.8426   13.9644  -13.4049 N   0  0  0  0  0  0  0  0  0  0  0  0
   34.4546   12.6536  -13.7548 C   0  0  0  0  0  0  0  0  0  0  0  0
   33.6911   12.3326  -14.9834 C   0  0  0  0  0  0  0  0  0  0  0  0
   34.7693   11.7089  -12.9906 O   0  0  0  0  0  0  0  0  0  0  0  0
   34.5860   14.7536  -14.0327 H   0  0  0  0  0  0  0  0  0  0  0  0
   37.4854   16.5414   -9.3588 C   0  0  0  0  0  0  0  0  0  0  0  0
   38.2249   17.5622   -9.2787 O   0  0  0  0  0  0  0  0  0  0  0  0
   36.9771   16.0028   -8.1739 O   0  0  0  0  0  0  0  0  0  0  0  0
   36.7037   16.6812   -7.4567 H   0  0  0  0  0  0  0  0  0  0  0  0
   37.6102   13.0210  -12.6079 O   0  0  0  0  0  0  0  0  0  0  0  0
   38.3622   12.8305  -13.7717 C   0  0  0  0  0  0  0  0  0  0  0  0
   37.8625   11.7981  -14.7022 C   0  0  0  0  0  0  0  0  0  0  0  0
   37.2236   12.4372  -15.9367 C   0  0  0  0  0  0  0  0  0  0  0  0
   38.7469   14.0842  -14.4254 C   0  0  0  0  0  0  0  0  0  0  0  0
   40.1217   14.5492  -14.6117 C   0  0  0  0  0  0  0  0  0  0  0  0
   41.1847   13.5360  -14.5992 C   0  0  0  0  0  0  0  0  0  0  0  0
   41.9209   13.5410  -15.9848 C   0  0  0  0  0  0  0  0  0  0  0  0
   41.4444   12.2740  -16.6660 C   0  0  0  0  0  0  0  0  0  0  0  0
   39.9187   11.2401  -18.2550 C   0  0  0  0  0  0  0  0  0  0  0  0
   40.3911   12.5476  -17.6978 C   0  0  0  0  0  0  0  0  0  0  0  0
 28 29  1  0  0  0
 29 27  1  0  0  0
 27 26  1  0  0  0
 26 25  1  0  0  0
 25 24  1  0  0  0
 24 23  1  0  0  0
 23 20  1  0  0  0
 20 21  1  0  0  0
 21 22  1  0  0  0
 20 19  1  0  0  0
 19  1  1  0  0  0
  1  2  1  0  0  0
  2  3  2  0  0  0
  3 15  1  0  0  0
 15 16  2  0  0  0
 15 17  1  0  0  0
  3  4  1  0  0  0
  4  5  1  0  0  0
  5  6  1  0  0  0
  5  7  1  0  0  0
  7 10  1  0  0  0
 10 11  1  0  0  0
 11 12  1  0  0  0
 11 13  2  0  0  0
  7  1  1  0  0  0
 17 18  1  0  0  0
  6  8  1  0  0  0
  6  9  1  0  0  0
 10 14  1  0  0  0
M  END
> <minimizedAffinity>
-6.28402

> <CNNscore>
0.4605407119

> <CNNaffinity>
6.0136880875

> <CNN_VS>
2.7695481777

> <CNNaffinity_variance>
0.1698378623

$$$$
[H]OC(=O)C1=C([H])[C@@]([H])(O[C@@]([H])(C([H])([H])C([H])([H])[H])C([H])([H])C([H])([H])C([H])([H])C([H])([H])C([H])([H])C([H])([H])C([H])([H])[H])[C@]([H])(N([H])C(=O)C([H])([H])[H])[C@@]([H])(N([H])[H])C1([H])[H]


 29 29  0  0  0  0  0  0  0  0999 V2000
   36.7371   13.5312  -14.2566 C   0  0  0  0  0  0  0  0  0  0  0  0
   36.2440   12.7144  -15.4354 C   0  0  0  0  0  0  0  0  0  0  0  0
   35.1436   11.9816  -15.2624 C   0  0  0  0  0  0  0  0  0  0  0  0
   34.5521   12.1156  -13.8776 C   0  0  0  0  0  0  0  0  0  0  0  0
   34.2743   13.5891  -13.7275 C   0  0  0  0  0  0  0  0  0  0  0  0
   33.2262   13.9913  -14.6607 N   0  0  0  0  0  0  0  0  0  0  0  0
   35.5325   14.3868  -13.9328 C   0  0  0  0  0  0  0  0  0  0  0  0
   32.7510   13.1602  -15.0762 H   0  0  0  0  0  0  0  0  0  0  0  0
   32.4992   14.5587  -14.1293 H   0  0  0  0  0  0  0  0  0  0  0  0
   35.6813   15.1988  -12.7470 N   0  0  0  0  0  0  0  0  0  0  0  0
   36.0856   14.6710  -11.5023 C   0  0  0  0  0  0  0  0  0  0  0  0
   36.2406   15.4962  -10.2815 C   0  0  0  0  0  0  0  0  0  0  0  0
   36.3273   13.4421  -11.4200 O   0  0  0  0  0  0  0  0  0  0  0  0
   35.4788   16.2165  -12.8244 H   0  0  0  0  0  0  0  0  0  0  0  0
   34.5191   11.1447  -16.2414 C   0  0  0  0  0  0  0  0  0  0  0  0
   33.2899   11.2060  -16.5257 O   0  0  0  0  0  0  0  0  0  0  0  0
   35.3054   10.2104  -16.9205 O   0  0  0  0  0  0  0  0  0  0  0  0
   35.0820   10.0752  -17.9110 H   0  0  0  0  0  0  0  0  0  0  0  0
   37.8275   14.2266  -14.6534 O   0  0  0  0  0  0  0  0  0  0  0  0
   39.0874   13.7136  -14.3284 C   0  0  0  0  0  0  0  0  0  0  0  0
   39.6947   12.8107  -15.3271 C   0  0  0  0  0  0  0  0  0  0  0  0
   40.7818   13.5313  -16.1268 C   0  0  0  0  0  0  0  0  0  0  0  0
   40.0082   14.7259  -13.8042 C   0  0  0  0  0  0  0  0  0  0  0  0
   39.7683   15.5485  -12.6182 C   0  0  0  0  0  0  0  0  0  0  0  0
   40.8390   16.4643  -12.2038 C   0  0  0  0  0  0  0  0  0  0  0  0
   41.8111   15.7155  -11.2261 C   0  0  0  0  0  0  0  0  0  0  0  0
   43.0508   15.4553  -12.0579 C   0  0  0  0  0  0  0  0  0  0  0  0
   43.3927   13.4641  -13.4145 C   0  0  0  0  0  0  0  0  0  0  0  0
   43.4638   14.0141  -12.0231 C   0  0  0  0  0  0  0  0  0  0  0  0
 28 29  1  0  0  0
 29 27  1  0  0  0
 27 26  1  0  0  0
 26 25  1  0  0  0
 25 24  1  0  0  0
 24 23  1  0  0  0
 23 20  1  0  0  0
 20 21  1  0  0  0
 21 22  1  0  0  0
 20 19  1  0  0  0
 19  1  1  0  0  0
  1  2  1  0  0  0
  2  3  2  0  0  0
  3 15  1  0  0  0
 15 16  2  0  0  0
 15 17  1  0  0  0
  3  4  1  0  0  0
  4  5  1  0  0  0
  5  6  1  0  0  0
  5  7  1  0  0  0
  7 10  1  0  0  0
 10 11  1  0  0  0
 11 12  1  0  0  0
 11 13  2  0  0  0
  7  1  1  0  0  0
 17 18  1  0  0  0
  6  8  1  0  0  0
  6  9  1  0  0  0
 10 14  1  0  0  0
M  END
> <minimizedAffinity>
-6.28536

> <CNNscore>
0.4545677304

> <CNNaffinity>
6.3229703903

> <CNN_VS>
2.8742182255

> <CNNaffinity_variance>
0.0867414922

$$$$
[H]OC(=O)C1=C([H])[C@@]([H])(O[C@@]([H])(C([H])([H])C([H])([H])[H])C([H])([H])C([H])([H])C([H])([H])C([H])([H])C([H])([H])C([H])([H])C([H])([H])[H])[C@]([H])(N([H])C(=O)C([H])([H])[H])[C@@]([H])(N([H])[H])C1([H])[H]


 29 29  0  0  0  0  0  0  0  0999 V2000
   37.6627   12.6172  -14.9336 C   0  0  0  0  0  0  0  0  0  0  0  0
   36.2175   12.5619  -15.3901 C   0  0  0  0  0  0  0  0  0  0  0  0
   35.2877   12.3078  -14.4688 C   0  0  0  0  0  0  0  0  0  0  0  0
   35.8592   12.1325  -13.0802 C   0  0  0  0  0  0  0  0  0  0  0  0
   36.5832   13.4252  -12.8050 C   0  0  0  0  0  0  0  0  0  0  0  0
   35.6219   14.5202  -12.7165 N   0  0  0  0  0  0  0  0  0  0  0  0
   37.6202   13.6848  -13.8628 C   0  0  0  0  0  0  0  0  0  0  0  0
   34.6443   14.1604  -12.6517 H   0  0  0  0  0  0  0  0  0  0  0  0
   35.8284   15.0818  -11.8363 H   0  0  0  0  0  0  0  0  0  0  0  0
   38.8667   13.8672  -13.1552 N   0  0  0  0  0  0  0  0  0  0  0  0
   39.8638   14.7712  -13.5792 C   0  0  0  0  0  0  0  0  0  0  0  0
   41.1446   14.9644  -12.8600 C   0  0  0  0  0  0  0  0  0  0  0  0
   39.6604   15.4477  -14.6167 O   0  0  0  0  0  0  0  0  0  0  0  0
   39.0268   13.3021  -12.2963 H   0  0  0  0  0  0  0  0  0  0  0  0
   33.8770   12.2119  -14.6914 C   0  0  0  0  0  0  0  0  0  0  0  0
   33.3303   11.2333  -15.2735 O   0  0  0  0  0  0  0  0  0  0  0  0
   33.0582   13.2518  -14.2434 O   0  0  0  0  0  0  0  0  0  0  0  0
   32.1503   12.9714  -13.8607 H   0  0  0  0  0  0  0  0  0  0  0  0
   38.4302   12.9275  -16.0034 O   0  0  0  0  0  0  0  0  0  0  0  0
   39.5093   12.0894  -16.3025 C   0  0  0  0  0  0  0  0  0  0  0  0
   39.2149   10.9507  -17.1959 C   0  0  0  0  0  0  0  0  0  0  0  0
   39.8481   11.1580  -18.5731 C   0  0  0  0  0  0  0  0  0  0  0  0
   40.7310   12.8192  -16.6519 C   0  0  0  0  0  0  0  0  0  0  0  0
   41.9883   12.7620  -15.9057 C   0  0  0  0  0  0  0  0  0  0  0  0
   43.1632   12.2232  -16.6028 C   0  0  0  0  0  0  0  0  0  0  0  0
   44.4534   12.9441  -16.0759 C   0  0  0  0  0  0  0  0  0  0  0  0
   44.0230   13.5697  -14.7645 C   0  0  0  0  0  0  0  0  0  0  0  0
   44.8069   14.2949  -12.5778 C   0  0  0  0  0  0  0  0  0  0  0  0
   44.9792   13.2639  -13.6505 C   0  0  0  0  0  0  0  0  0  0  0  0
 28 29  1  0  0  0
 29 27  1  0  0  0
 27 26  1  0  0  0
 26 25  1  0  0  0
 25 24  1  0  0  0
 24 23  1  0  0  0
 23 20  1  0  0  0
 20 21  1  0  0  0
 21 22  1  0  0  0
 20 19  1  0  0  0
 19  1  1  0  0  0
  1  2  1  0  0  0
  2  3  2  0  0  0
  3 15  1  0  0  0
 15 16  2  0  0  0
 15 17  1  0  0  0
  3  4  1  0  0  0
  4  5  1  0  0  0
  5  6  1  0  0  0
  5  7  1  0  0  0
  7 10  1  0  0  0
 10 11  1  0  0  0
 11 12  1  0  0  0
 11 13  2  0  0  0
  7  1  1  0  0  0
 17 18  1  0  0  0
  6  8  1  0  0  0
  6  9  1  0  0  0
 10 14  1  0  0  0
M  END
> <minimizedAffinity>
-6.76857

> <CNNscore>
0.4390470684

> <CNNaffinity>
6.2720208168

> <CNN_VS>
2.7537124157

> <CNNaffinity_variance>
0.0917761773

$$$$
[H]OC(=O)C1=C([H])[C@@]([H])(O[C@@]([H])(C([H])([H])C([H])([H])[H])C([H])([H])C([H])([H])C([H])([H])C([H])([H])C([H])([H])C([H])([H])C([H])([H])[H])[C@]([H])(N([H])C(=O)C([H])([H])[H])[C@@]([H])(N([H])[H])C1([H])[H]


 29 29  0  0  0  0  0  0  0  0999 V2000
   37.3989   14.8326  -12.2708 C   0  0  0  0  0  0  0  0  0  0  0  0
   37.9774   15.2080  -10.9201 C   0  0  0  0  0  0  0  0  0  0  0  0
   37.4541   16.2634  -10.2954 C   0  0  0  0  0  0  0  0  0  0  0  0
   36.3241   16.9091  -11.0645 C   0  0  0  0  0  0  0  0  0  0  0  0
   35.3132   15.8062  -11.2457 C   0  0  0  0  0  0  0  0  0  0  0  0
   34.7606   15.4255   -9.9494 N   0  0  0  0  0  0  0  0  0  0  0  0
   35.9350   14.6307  -11.9479 C   0  0  0  0  0  0  0  0  0  0  0  0
   35.0142   16.1192   -9.2121 H   0  0  0  0  0  0  0  0  0  0  0  0
   33.6995   15.3975  -10.0286 H   0  0  0  0  0  0  0  0  0  0  0  0
   35.1017   14.3751  -13.1003 N   0  0  0  0  0  0  0  0  0  0  0  0
   34.6944   13.0784  -13.4794 C   0  0  0  0  0  0  0  0  0  0  0  0
   33.8403   12.8073  -14.6594 C   0  0  0  0  0  0  0  0  0  0  0  0
   35.0717   12.1026  -12.7859 O   0  0  0  0  0  0  0  0  0  0  0  0
   34.7938   15.1899  -13.6695 H   0  0  0  0  0  0  0  0  0  0  0  0
   37.8554   16.7805   -9.0224 C   0  0  0  0  0  0  0  0  0  0  0  0
   37.0756   16.8734   -8.0331 O   0  0  0  0  0  0  0  0  0  0  0  0
   39.1765   17.2057   -8.8609 O   0  0  0  0  0  0  0  0  0  0  0  0
   39.6028   17.0017   -7.9520 H   0  0  0  0  0  0  0  0  0  0  0  0
   38.0347   13.7209  -12.7065 O   0  0  0  0  0  0  0  0  0  0  0  0
   38.3089   13.6146  -14.0739 C   0  0  0  0  0  0  0  0  0  0  0  0
   39.4074   14.4619  -14.5805 C   0  0  0  0  0  0  0  0  0  0  0  0
   40.7538   14.0104  -14.0112 C   0  0  0  0  0  0  0  0  0  0  0  0
   38.3582   12.2295  -14.5495 C   0  0  0  0  0  0  0  0  0  0  0  0
   37.3678   11.6050  -15.4271 C   0  0  0  0  0  0  0  0  0  0  0  0
   37.3711   12.0037  -16.8404 C   0  0  0  0  0  0  0  0  0  0  0  0
   37.7269   10.7601  -17.7283 C   0  0  0  0  0  0  0  0  0  0  0  0
   39.2378   10.6685  -17.6554 C   0  0  0  0  0  0  0  0  0  0  0  0
   41.0296   12.2624  -17.2420 C   0  0  0  0  0  0  0  0  0  0  0  0
   39.9056   11.9098  -18.1671 C   0  0  0  0  0  0  0  0  0  0  0  0
 28 29  1  0  0  0
 29 27  1  0  0  0
 27 26  1  0  0  0
 26 25  1  0  0  0
 25 24  1  0  0  0
 24 23  1  0  0  0
 23 20  1  0  0  0
 20 21  1  0  0  0
 21 22  1  0  0  0
 20 19  1  0  0  0
 19  1  1  0  0  0
  1  2  1  0  0  0
  2  3  2  0  0  0
  3 15  1  0  0  0
 15 16  2  0  0  0
 15 17  1  0  0  0
  3  4  1  0  0  0
  4  5  1  0  0  0
  5  6  1  0  0  0
  5  7  1  0  0  0
  7 10  1  0  0  0
 10 11  1  0  0  0
 11 12  1  0  0  0
 11 13  2  0  0  0
  7  1  1  0  0  0
 17 18  1  0  0  0
  6  8  1  0  0  0
  6  9  1  0  0  0
 10 14  1  0  0  0
M  END
> <minimizedAffinity>
-6.50477

> <CNNscore>
0.4179861844

> <CNNaffinity>
5.9238104820

> <CNN_VS>
2.4760708809

> <CNNaffinity_variance>
0.1786176711

$$$$
[H]OC(=O)C1=C([H])[C@@]([H])(O[C@@]([H])(C([H])([H])C([H])([H])[H])C([H])([H])C([H])([H])C([H])([H])C([H])([H])C([H])([H])C([H])([H])C([H])([H])[H])[C@]([H])(N([H])C(=O)C([H])([H])[H])[C@@]([H])(N([H])[H])C1([H])[H]


 29 29  0  0  0  0  0  0  0  0999 V2000
   36.6005   14.5352  -12.2153 C   0  0  0  0  0  0  0  0  0  0  0  0
   35.7783   15.5339  -11.4237 C   0  0  0  0  0  0  0  0  0  0  0  0
   36.1991   15.8472  -10.1979 C   0  0  0  0  0  0  0  0  0  0  0  0
   37.4773   15.1395   -9.8094 C   0  0  0  0  0  0  0  0  0  0  0  0
   38.4709   15.5496  -10.8657 C   0  0  0  0  0  0  0  0  0  0  0  0
   38.7454   16.9792  -10.7566 N   0  0  0  0  0  0  0  0  0  0  0  0
   37.9652   15.1872  -12.2348 C   0  0  0  0  0  0  0  0  0  0  0  0
   38.3720   17.3685   -9.8631 H   0  0  0  0  0  0  0  0  0  0  0  0
   39.7999   17.1233  -10.7670 H   0  0  0  0  0  0  0  0  0  0  0  0
   39.0015   14.3793  -12.8357 N   0  0  0  0  0  0  0  0  0  0  0  0
   40.1925   14.9255  -13.3597 C   0  0  0  0  0  0  0  0  0  0  0  0
   41.2600   14.1047  -13.9775 C   0  0  0  0  0  0  0  0  0  0  0  0
   40.3607   16.1680  -13.3019 O   0  0  0  0  0  0  0  0  0  0  0  0
   38.8536   13.3503  -12.8795 H   0  0  0  0  0  0  0  0  0  0  0  0
   35.5702   16.7604   -9.2926 C   0  0  0  0  0  0  0  0  0  0  0  0
   34.4231   16.5703   -8.7991 O   0  0  0  0  0  0  0  0  0  0  0  0
   36.2564   17.9233   -8.9333 O   0  0  0  0  0  0  0  0  0  0  0  0
   36.1483   18.2221   -7.9595 H   0  0  0  0  0  0  0  0  0  0  0  0
   36.0304   14.3930  -13.4338 O   0  0  0  0  0  0  0  0  0  0  0  0
   35.3879   13.1843  -13.7210 C   0  0  0  0  0  0  0  0  0  0  0  0
   34.0619   13.2937  -14.3622 C   0  0  0  0  0  0  0  0  0  0  0  0
   33.6399   11.9581  -14.9776 C   0  0  0  0  0  0  0  0  0  0  0  0
   36.2692   12.1924  -14.3428 C   0  0  0  0  0  0  0  0  0  0  0  0
   37.1058   12.4298  -15.5196 C   0  0  0  0  0  0  0  0  0  0  0  0
   36.9235   11.5344  -16.6693 C   0  0  0  0  0  0  0  0  0  0  0  0
   38.3286   11.1290  -17.2376 C   0  0  0  0  0  0  0  0  0  0  0  0
   39.3137   11.9106  -16.3918 C   0  0  0  0  0  0  0  0  0  0  0  0
   40.7681   11.6537  -18.3259 C   0  0  0  0  0  0  0  0  0  0  0  0
   40.3646   12.5837  -17.2233 C   0  0  0  0  0  0  0  0  0  0  0  0
 28 29  1  0  0  0
 29 27  1  0  0  0
 27 26  1  0  0  0
 26 25  1  0  0  0
 25 24  1  0  0  0
 24 23  1  0  0  0
 23 20  1  0  0  0
 20 21  1  0  0  0
 21 22  1  0  0  0
 20 19  1  0  0  0
 19  1  1  0  0  0
  1  2  1  0  0  0
  2  3  2  0  0  0
  3 15  1  0  0  0
 15 16  2  0  0  0
 15 17  1  0  0  0
  3  4  1  0  0  0
  4  5  1  0  0  0
  5  6  1  0  0  0
  5  7  1  0  0  0
  7 10  1  0  0  0
 10 11  1  0  0  0
 11 12  1  0  0  0
 11 13  2  0  0  0
  7  1  1  0  0  0
 17 18  1  0  0  0
  6  8  1  0  0  0
  6  9  1  0  0  0
 10 14  1  0  0  0
M  END
> <minimizedAffinity>
-7.12224

> <CNNscore>
0.3468219936

> <CNNaffinity>
5.8791971207

> <CNN_VS>
2.0390348434

> <CNNaffinity_variance>
0.1896029115

$$$$
[H]OC(=O)C1=C([H])[C@@]([H])(O[C@@]([H])(C([H])([H])C([H])([H])[H])C([H])([H])C([H])([H])C([H])([H])C([H])([H])C([H])([H])C([H])([H])C([H])([H])[H])[C@]([H])(N([H])C(=O)C([H])([H])[H])[C@@]([H])(N([H])[H])C1([H])[H]


 29 29  0  0  0  0  0  0  0  0999 V2000
   36.5320   14.5517  -11.0825 C   0  0  0  0  0  0  0  0  0  0  0  0
   38.0023   14.7355  -11.4055 C   0  0  0  0  0  0  0  0  0  0  0  0
   38.5521   15.9189  -11.1313 C   0  0  0  0  0  0  0  0  0  0  0  0
   37.5809   16.8951  -10.5074 C   0  0  0  0  0  0  0  0  0  0  0  0
   37.0957   16.1996   -9.2616 C   0  0  0  0  0  0  0  0  0  0  0  0
   38.1976   16.0573   -8.3148 N   0  0  0  0  0  0  0  0  0  0  0  0
   36.4863   14.8680   -9.6041 C   0  0  0  0  0  0  0  0  0  0  0  0
   39.0169   16.6382   -8.5986 H   0  0  0  0  0  0  0  0  0  0  0  0
   37.8684   16.3912   -7.3593 H   0  0  0  0  0  0  0  0  0  0  0  0
   35.1558   14.8879   -9.0411 N   0  0  0  0  0  0  0  0  0  0  0  0
   34.8937   14.6084   -7.6830 C   0  0  0  0  0  0  0  0  0  0  0  0
   33.5328   14.6264   -7.0976 C   0  0  0  0  0  0  0  0  0  0  0  0
   35.8580   14.3301   -6.9293 O   0  0  0  0  0  0  0  0  0  0  0  0
   34.3624   15.1194   -9.6733 H   0  0  0  0  0  0  0  0  0  0  0  0
   39.9143   16.2947  -11.3595 C   0  0  0  0  0  0  0  0  0  0  0  0
   40.7638   16.4241  -10.4337 O   0  0  0  0  0  0  0  0  0  0  0  0
   40.3306   16.5316  -12.6721 O   0  0  0  0  0  0  0  0  0  0  0  0
   41.2766   16.2146  -12.9041 H   0  0  0  0  0  0  0  0  0  0  0  0
   36.1885   13.2810  -11.3941 O   0  0  0  0  0  0  0  0  0  0  0  0
   35.5539   13.0541  -12.6197 C   0  0  0  0  0  0  0  0  0  0  0  0
   34.9616   14.2406  -13.2702 C   0  0  0  0  0  0  0  0  0  0  0  0
   33.6883   13.8682  -14.0322 C   0  0  0  0  0  0  0  0  0  0  0  0
   36.3304   12.2044  -13.5264 C   0  0  0  0  0  0  0  0  0  0  0  0
   37.2021   12.6907  -14.5963 C   0  0  0  0  0  0  0  0  0  0  0  0
   37.0276   12.1010  -15.9299 C   0  0  0  0  0  0  0  0  0  0  0  0
   38.4138   11.5850  -16.4531 C   0  0  0  0  0  0  0  0  0  0  0  0
   39.4041   12.6311  -15.9825 C   0  0  0  0  0  0  0  0  0  0  0  0
   40.4611   12.0324  -18.0911 C   0  0  0  0  0  0  0  0  0  0  0  0
   40.7157   12.5339  -16.7029 C   0  0  0  0  0  0  0  0  0  0  0  0
 28 29  1  0  0  0
 29 27  1  0  0  0
 27 26  1  0  0  0
 26 25  1  0  0  0
 25 24  1  0  0  0
 24 23  1  0  0  0
 23 20  1  0  0  0
 20 21  1  0  0  0
 21 22  1  0  0  0
 20 19  1  0  0  0
 19  1  1  0  0  0
  1  2  1  0  0  0
  2  3  2  0  0  0
  3 15  1  0  0  0
 15 16  2  0  0  0
 15 17  1  0  0  0
  3  4  1  0  0  0
  4  5  1  0  0  0
  5  6  1  0  0  0
  5  7  1  0  0  0
  7 10  1  0  0  0
 10 11  1  0  0  0
 11 12  1  0  0  0
 11 13  2  0  0  0
  7  1  1  0  0  0
 17 18  1  0  0  0
  6  8  1  0  0  0
  6  9  1  0  0  0
 10 14  1  0  0  0
M  END
> <minimizedAffinity>
-6.38217

> <CNNscore>
0.3263083696

> <CNNaffinity>
5.5591802597

> <CNN_VS>
1.8140070438

> <CNNaffinity_variance>
0.1922939718

$$$$
[H]OC(=O)C1=C([H])[C@@]([H])(O[C@@]([H])(C([H])([H])C([H])([H])[H])C([H])([H])C([H])([H])C([H])([H])C([H])([H])C([H])([H])C([H])([H])C([H])([H])[H])[C@]([H])(N([H])C(=O)C([H])([H])[H])[C@@]([H])(N([H])[H])C1([H])[H]


 29 29  0  0  0  0  0  0  0  0999 V2000
   37.8097   13.0761  -14.2958 C   0  0  0  0  0  0  0  0  0  0  0  0
   39.2572   12.6236  -14.2784 C   0  0  0  0  0  0  0  0  0  0  0  0
   40.1992   13.5621  -14.3770 C   0  0  0  0  0  0  0  0  0  0  0  0
   39.6360   14.9618  -14.4729 C   0  0  0  0  0  0  0  0  0  0  0  0
   38.8122   15.1229  -13.2214 C   0  0  0  0  0  0  0  0  0  0  0  0
   39.6849   15.1126  -12.0513 N   0  0  0  0  0  0  0  0  0  0  0  0
   37.7636   14.0482  -13.1378 C   0  0  0  0  0  0  0  0  0  0  0  0
   40.6872   15.2072  -12.3267 H   0  0  0  0  0  0  0  0  0  0  0  0
   39.4309   15.9401  -11.4320 H   0  0  0  0  0  0  0  0  0  0  0  0
   36.5031   14.7391  -12.9914 N   0  0  0  0  0  0  0  0  0  0  0  0
   35.6949   14.6240  -11.8404 C   0  0  0  0  0  0  0  0  0  0  0  0
   34.4012   15.3286  -11.6820 C   0  0  0  0  0  0  0  0  0  0  0  0
   36.0870   13.8894  -10.9012 O   0  0  0  0  0  0  0  0  0  0  0  0
   36.1858   15.3457  -13.7750 H   0  0  0  0  0  0  0  0  0  0  0  0
   41.6143   13.3464  -14.3819 C   0  0  0  0  0  0  0  0  0  0  0  0
   42.2527   12.9464  -15.3957 O   0  0  0  0  0  0  0  0  0  0  0  0
   42.3307   13.5895  -13.2071 O   0  0  0  0  0  0  0  0  0  0  0  0
   43.2579   14.0076  -13.3286 H   0  0  0  0  0  0  0  0  0  0  0  0
   37.0259   11.9844  -14.1419 O   0  0  0  0  0  0  0  0  0  0  0  0
   35.9828   11.7913  -15.0535 C   0  0  0  0  0  0  0  0  0  0  0  0
   34.6431   12.2194  -14.6026 C   0  0  0  0  0  0  0  0  0  0  0  0
   33.5565   11.3041  -15.1702 C   0  0  0  0  0  0  0  0  0  0  0  0
   36.3163   12.2173  -16.4152 C   0  0  0  0  0  0  0  0  0  0  0  0
   36.1405   11.4038  -17.6187 C   0  0  0  0  0  0  0  0  0  0  0  0
   37.0690   10.2836  -17.8181 C   0  0  0  0  0  0  0  0  0  0  0  0
   38.3135   10.7816  -18.6334 C   0  0  0  0  0  0  0  0  0  0  0  0
   39.4203   10.8806  -17.6030 C   0  0  0  0  0  0  0  0  0  0  0  0
   40.3071   13.0901  -18.1065 C   0  0  0  0  0  0  0  0  0  0  0  0
   40.6139   11.6242  -18.1238 C   0  0  0  0  0  0  0  0  0  0  0  0
 28 29  1  0  0  0
 29 27  1  0  0  0
 27 26  1  0  0  0
 26 25  1  0  0  0
 25 24  1  0  0  0
 24 23  1  0  0  0
 23 20  1  0  0  0
 20 21  1  0  0  0
 21 22  1  0  0  0
 20 19  1  0  0  0
 19  1  1  0  0  0
  1  2  1  0  0  0
  2  3  2  0  0  0
  3 15  1  0  0  0
 15 16  2  0  0  0
 15 17  1  0  0  0
  3  4  1  0  0  0
  4  5  1  0  0  0
  5  6  1  0  0  0
  5  7  1  0  0  0
  7 10  1  0  0  0
 10 11  1  0  0  0
 11 12  1  0  0  0
 11 13  2  0  0  0
  7  1  1  0  0  0
 17 18  1  0  0  0
  6  8  1  0  0  0
  6  9  1  0  0  0
 10 14  1  0  0  0
M  END
> <minimizedAffinity>
-6.61471

> <CNNscore>
0.3207300603

> <CNNaffinity>
5.9390745163

> <CNN_VS>
1.9048397541

> <CNNaffinity_variance>
0.1167010665

$$$$
[H]OC(=O)C1=C([H])[C@@]([H])(O[C@@]([H])(C([H])([H])C([H])([H])[H])C([H])([H])C([H])([H])C([H])([H])C([H])([H])C([H])([H])C([H])([H])C([H])([H])[H])[C@]([H])(N([H])C(=O)C([H])([H])[H])[C@@]([H])(N([H])[H])C1([H])[H]


 29 29  0  0  0  0  0  0  0  0999 V2000
   36.3163   15.4099   -9.8202 C   0  0  0  0  0  0  0  0  0  0  0  0
   37.5426   15.2177   -8.9487 C   0  0  0  0  0  0  0  0  0  0  0  0
   37.9088   16.2322   -8.1647 C   0  0  0  0  0  0  0  0  0  0  0  0
   36.9919   17.4292   -8.2748 C   0  0  0  0  0  0  0  0  0  0  0  0
   35.6315   16.8969   -7.9048 C   0  0  0  0  0  0  0  0  0  0  0  0
   35.6215   16.5018   -6.4996 N   0  0  0  0  0  0  0  0  0  0  0  0
   35.2505   15.7526   -8.8031 C   0  0  0  0  0  0  0  0  0  0  0  0
   36.4672   16.8565   -6.0014 H   0  0  0  0  0  0  0  0  0  0  0  0
   34.7613   16.9231   -6.0354 H   0  0  0  0  0  0  0  0  0  0  0  0
   33.9741   16.1114   -9.3773 N   0  0  0  0  0  0  0  0  0  0  0  0
   32.7424   15.8006   -8.7629 C   0  0  0  0  0  0  0  0  0  0  0  0
   31.4293   16.1645   -9.3446 C   0  0  0  0  0  0  0  0  0  0  0  0
   32.7543   15.1853   -7.6689 O   0  0  0  0  0  0  0  0  0  0  0  0
   33.9737   16.6211  -10.2844 H   0  0  0  0  0  0  0  0  0  0  0  0
   39.0292   16.2545   -7.2742 C   0  0  0  0  0  0  0  0  0  0  0  0
   39.4820   15.2239   -6.7012 O   0  0  0  0  0  0  0  0  0  0  0  0
   39.6577   17.4768   -7.0225 O   0  0  0  0  0  0  0  0  0  0  0  0
   40.6775   17.4436   -6.9319 H   0  0  0  0  0  0  0  0  0  0  0  0
   36.0960   14.2590  -10.4960 O   0  0  0  0  0  0  0  0  0  0  0  0
   35.9116   14.3355  -11.8803 C   0  0  0  0  0  0  0  0  0  0  0  0
   36.8316   15.2345  -12.6062 C   0  0  0  0  0  0  0  0  0  0  0  0
   38.1854   14.5606  -12.8380 C   0  0  0  0  0  0  0  0  0  0  0  0
   35.7349   13.0267  -12.5151 C   0  0  0  0  0  0  0  0  0  0  0  0
   34.6879   12.6943  -13.4817 C   0  0  0  0  0  0  0  0  0  0  0  0
   35.0902   11.9563  -14.6859 C   0  0  0  0  0  0  0  0  0  0  0  0
   36.6500   12.0283  -14.8401 C   0  0  0  0  0  0  0  0  0  0  0  0
   36.8735   12.1322  -16.3354 C   0  0  0  0  0  0  0  0  0  0  0  0
   39.2804   12.1097  -15.9773 C   0  0  0  0  0  0  0  0  0  0  0  0
   38.1621   11.4943  -16.7610 C   0  0  0  0  0  0  0  0  0  0  0  0
 28 29  1  0  0  0
 29 27  1  0  0  0
 27 26  1  0  0  0
 26 25  1  0  0  0
 25 24  1  0  0  0
 24 23  1  0  0  0
 23 20  1  0  0  0
 20 21  1  0  0  0
 21 22  1  0  0  0
 20 19  1  0  0  0
 19  1  1  0  0  0
  1  2  1  0  0  0
  2  3  2  0  0  0
  3 15  1  0  0  0
 15 16  2  0  0  0
 15 17  1  0  0  0
  3  4  1  0  0  0
  4  5  1  0  0  0
  5  6  1  0  0  0
  5  7  1  0  0  0
  7 10  1  0  0  0
 10 11  1  0  0  0
 11 12  1  0  0  0
 11 13  2  0  0  0
  7  1  1  0  0  0
 17 18  1  0  0  0
  6  8  1  0  0  0
  6  9  1  0  0  0
 10 14  1  0  0  0
M  END
> <minimizedAffinity>
-5.50908

> <CNNscore>
0.2793827355

> <CNNaffinity>
5.2751331329

> <CNN_VS>
1.4737811089

> <CNNaffinity_variance>
0.1828600019

$$$$
[H]c1c([H])c(-c2c([H])c([H])c(C([H])(C(=O)N([H])C([H])([H])C([H])([H])C([H])([H])C([H])([H])C([H])([H])C([H])([H])N([H])c3c4c(nc5c([H])c([H])c([H])c([H])c35)C([H])([H])C([H])([H])C([H])([H])C4([H])[H])C([H])([H])[H])c([H])c2F)c([H])c([H])c1OC([H])([H])C([H])([H])C([H])([H])C([H])([H])C([H])([H])C([H])([H])O[N+](=O)[O-]


 52 56  0  0  0  0  0  0  0  0999 V2000
   34.3842   11.5681  -15.4117 C   0  0  0  0  0  0  0  0  0  0  0  0
   34.9108   12.9434  -15.0130 C   0  0  0  0  0  0  0  0  0  0  0  0
   36.3796   12.9049  -15.1504 C   0  0  0  0  0  0  0  0  0  0  0  0
   37.1340   13.9121  -14.5965 C   0  0  0  0  0  0  0  0  0  0  0  0
   38.5247   13.9325  -14.7127 C   0  0  0  0  0  0  0  0  0  0  0  0
   39.1477   12.9317  -15.3901 C   0  0  0  0  0  0  0  0  0  0  0  0
   38.4130   11.9159  -15.9512 C   0  0  0  0  0  0  0  0  0  0  0  0
   39.0174   10.9149  -16.6344 F   0  0  0  0  0  0  0  0  0  0  0  0
   37.0168   11.9032  -15.8298 C   0  0  0  0  0  0  0  0  0  0  0  0
   40.5929   12.9239  -15.5220 C   0  0  0  0  0  0  0  0  0  0  0  0
   41.2217   12.4006  -16.6295 C   0  0  0  0  0  0  0  0  0  0  0  0
   42.6163   12.4117  -16.7339 C   0  0  0  0  0  0  0  0  0  0  0  0
   43.4286   12.9342  -15.7568 C   0  0  0  0  0  0  0  0  0  0  0  0
   42.7693   13.4666  -14.6300 C   0  0  0  0  0  0  0  0  0  0  0  0
   41.4061   13.4485  -14.5434 C   0  0  0  0  0  0  0  0  0  0  0  0
   44.7993   12.9792  -15.7790 O   0  0  0  0  0  0  0  0  0  0  0  0
   45.6718   12.6105  -14.7588 C   0  0  0  0  0  0  0  0  0  0  0  0
   46.7393   13.6431  -14.5860 C   0  0  0  0  0  0  0  0  0  0  0  0
   46.7173   14.1966  -13.1917 C   0  0  0  0  0  0  0  0  0  0  0  0
   47.0117   15.6572  -13.2005 C   0  0  0  0  0  0  0  0  0  0  0  0
   46.4765   16.3664  -14.4182 C   0  0  0  0  0  0  0  0  0  0  0  0
   46.7679   17.8354  -14.3160 C   0  0  0  0  0  0  0  0  0  0  0  0
   46.1253   18.3383  -13.1312 O   0  0  0  0  0  0  0  0  0  0  0  0
   44.8800   18.8914  -13.3078 N   0  0  0  0  0  0  0  0  0  0  0  0
   43.8453   18.2016  -13.3683 O   0  0  0  0  0  0  0  0  0  0  0  0
   44.8378   20.2689  -13.4160 O   0  0  0  0  0  0  0  0  0  0  0  0
   34.4087   13.3866  -13.7140 C   0  0  0  0  0  0  0  0  0  0  0  0
   34.7626   12.7759  -12.6444 O   0  0  0  0  0  0  0  0  0  0  0  0
   33.5301   14.4770  -13.5207 N   0  0  0  0  0  0  0  0  0  0  0  0
   33.2157   15.0044  -14.3609 H   0  0  0  0  0  0  0  0  0  0  0  0
   33.0483   14.9036  -12.2352 C   0  0  0  0  0  0  0  0  0  0  0  0
   31.6209   14.4806  -11.9844 C   0  0  0  0  0  0  0  0  0  0  0  0
   30.9912   15.3875  -10.9457 C   0  0  0  0  0  0  0  0  0  0  0  0
   30.5512   14.4906   -9.7870 C   0  0  0  0  0  0  0  0  0  0  0  0
   31.0358   15.0119   -8.4883 C   0  0  0  0  0  0  0  0  0  0  0  0
   31.1739   16.4718   -8.3914 C   0  0  0  0  0  0  0  0  0  0  0  0
   32.3857   17.0117   -7.9417 N   0  0  0  0  0  0  0  0  0  0  0  0
   32.5217   18.0746   -8.1336 H   0  0  0  0  0  0  0  0  0  0  0  0
   33.4810   16.4500   -7.2829 C   0  0  0  0  0  0  0  0  0  0  0  0
   34.5389   15.9536   -8.0185 C   0  0  0  0  0  0  0  0  0  0  0  0
   35.6376   15.4440   -7.3671 C   0  0  0  0  0  0  0  0  0  0  0  0
   35.6636   15.4390   -6.0037 N   0  0  0  0  0  0  0  0  0  0  0  0
   34.6580   15.9120   -5.2528 C   0  0  0  0  0  0  0  0  0  0  0  0
   34.7097   15.8991   -3.8796 C   0  0  0  0  0  0  0  0  0  0  0  0
   33.6791   16.3881   -3.1277 C   0  0  0  0  0  0  0  0  0  0  0  0
   32.5775   16.8989   -3.7822 C   0  0  0  0  0  0  0  0  0  0  0  0
   32.5026   16.9225   -5.1446 C   0  0  0  0  0  0  0  0  0  0  0  0
   33.5525   16.4242   -5.8989 C   0  0  0  0  0  0  0  0  0  0  0  0
   36.7575   14.9049   -8.1460 C   0  0  0  0  0  0  0  0  0  0  0  0
   36.9668   15.5151   -9.4880 C   0  0  0  0  0  0  0  0  0  0  0  0
   35.9171   16.5078   -9.9032 C   0  0  0  0  0  0  0  0  0  0  0  0
   34.5451   15.9600   -9.5015 C   0  0  0  0  0  0  0  0  0  0  0  0
  1  2  1  0  0  0
  2 27  1  0  0  0
 27 28  2  0  0  0
 27 29  1  0  0  0
 29 31  1  0  0  0
 31 32  1  0  0  0
 32 33  1  0  0  0
 33 34  1  0  0  0
 34 35  1  0  0  0
 35 36  1  0  0  0
 36 37  1  0  0  0
 37 39  1  0  0  0
 39 40  2  0  0  0
 40 41  1  0  0  0
 41 42  2  0  0  0
 42 43  1  0  0  0
 43 44  2  0  0  0
 44 45  1  0  0  0
 45 46  2  0  0  0
 46 47  1  0  0  0
 47 48  2  0  0  0
 41 49  1  0  0  0
 49 50  1  0  0  0
 50 51  1  0  0  0
 51 52  1  0  0  0
  2  3  1  0  0  0
  3  4  2  0  0  0
  4  5  1  0  0  0
  5  6  2  0  0  0
  6 10  1  0  0  0
 10 11  2  0  0  0
 11 12  1  0  0  0
 12 13  2  0  0  0
 13 16  1  0  0  0
 16 17  1  0  0  0
 17 18  1  0  0  0
 18 19  1  0  0  0
 19 20  1  0  0  0
 20 21  1  0  0  0
 21 22  1  0  0  0
 22 23  1  0  0  0
 23 24  1  0  0  0
 24 25  2  0  0  0
 24 26  1  0  0  0
 13 14  1  0  0  0
 14 15  2  0  0  0
  6  7  1  0  0  0
  7  8  1  0  0  0
  7  9  2  0  0  0
 48 39  1  0  0  0
  9  3  1  0  0  0
 52 40  1  0  0  0
 15 10  1  0  0  0
 48 43  1  0  0  0
 29 30  1  0  0  0
 37 38  1  0  0  0
M  CHG 1  24   1
M  CHG 1  26  -1
M  END
> <minimizedAffinity>
-8.14852

> <CNNscore>
0.4102651179

> <CNNaffinity>
7.6816301346

> <CNN_VS>
3.1515049934

> <CNNaffinity_variance>
0.2886837125

$$$$
[H]c1c([H])c(-c2c([H])c([H])c(C([H])(C(=O)N([H])C([H])([H])C([H])([H])C([H])([H])C([H])([H])C([H])([H])C([H])([H])N([H])c3c4c(nc5c([H])c([H])c([H])c([H])c35)C([H])([H])C([H])([H])C([H])([H])C4([H])[H])C([H])([H])[H])c([H])c2F)c([H])c([H])c1OC([H])([H])C([H])([H])C([H])([H])C([H])([H])C([H])([H])C([H])([H])O[N+](=O)[O-]


 52 56  0  0  0  0  0  0  0  0999 V2000
   36.2801   11.5357  -16.2556 C   0  0  0  0  0  0  0  0  0  0  0  0
   36.7546   12.8278  -15.5977 C   0  0  0  0  0  0  0  0  0  0  0  0
   38.2295   12.8268  -15.6478 C   0  0  0  0  0  0  0  0  0  0  0  0
   38.8677   12.1677  -16.6720 C   0  0  0  0  0  0  0  0  0  0  0  0
   40.2601   12.1214  -16.7561 C   0  0  0  0  0  0  0  0  0  0  0  0
   41.0026   12.7435  -15.8021 C   0  0  0  0  0  0  0  0  0  0  0  0
   40.3853   13.4076  -14.7704 C   0  0  0  0  0  0  0  0  0  0  0  0
   41.1100   14.0270  -13.8086 F   0  0  0  0  0  0  0  0  0  0  0  0
   38.9865   13.4490  -14.6935 C   0  0  0  0  0  0  0  0  0  0  0  0
   42.4521   12.7168  -15.8673 C   0  0  0  0  0  0  0  0  0  0  0  0
   43.1268   11.9562  -16.7957 C   0  0  0  0  0  0  0  0  0  0  0  0
   44.5247   11.9537  -16.8407 C   0  0  0  0  0  0  0  0  0  0  0  0
   45.2953   12.6947  -15.9778 C   0  0  0  0  0  0  0  0  0  0  0  0
   44.5893   13.4684  -15.0340 C   0  0  0  0  0  0  0  0  0  0  0  0
   43.2237   13.4601  -15.0033 C   0  0  0  0  0  0  0  0  0  0  0  0
   46.6658   12.7441  -15.9519 O   0  0  0  0  0  0  0  0  0  0  0  0
   47.4667   13.4829  -15.0853 C   0  0  0  0  0  0  0  0  0  0  0  0
   48.2293   12.5734  -14.1760 C   0  0  0  0  0  0  0  0  0  0  0  0
   47.6681   12.6254  -12.7855 C   0  0  0  0  0  0  0  0  0  0  0  0
   46.5430   11.6602  -12.6355 C   0  0  0  0  0  0  0  0  0  0  0  0
   45.6547   11.9582  -11.4547 C   0  0  0  0  0  0  0  0  0  0  0  0
   46.3506   11.5594  -10.1858 C   0  0  0  0  0  0  0  0  0  0  0  0
   46.7062   10.1692  -10.2877 O   0  0  0  0  0  0  0  0  0  0  0  0
   47.3669    9.6340   -9.2085 N   0  0  0  0  0  0  0  0  0  0  0  0
   48.0140    8.5728   -9.2807 O   0  0  0  0  0  0  0  0  0  0  0  0
   47.2732   10.3445   -8.0264 O   0  0  0  0  0  0  0  0  0  0  0  0
   36.1670   13.0388  -14.2764 C   0  0  0  0  0  0  0  0  0  0  0  0
   36.0081   12.0498  -13.4770 O   0  0  0  0  0  0  0  0  0  0  0  0
   35.7400   14.2902  -13.7764 N   0  0  0  0  0  0  0  0  0  0  0  0
   35.8500   15.1233  -14.3901 H   0  0  0  0  0  0  0  0  0  0  0  0
   35.1675   14.4822  -12.4718 C   0  0  0  0  0  0  0  0  0  0  0  0
   35.7397   15.6854  -11.7617 C   0  0  0  0  0  0  0  0  0  0  0  0
   34.8849   16.0257  -10.5571 C   0  0  0  0  0  0  0  0  0  0  0  0
   35.4203   15.1958   -9.3887 C   0  0  0  0  0  0  0  0  0  0  0  0
   34.5357   15.2981   -8.2054 C   0  0  0  0  0  0  0  0  0  0  0  0
   33.2221   15.9157   -8.4348 C   0  0  0  0  0  0  0  0  0  0  0  0
   32.3077   15.9818   -7.3757 N   0  0  0  0  0  0  0  0  0  0  0  0
   32.7458   16.1386   -6.3914 H   0  0  0  0  0  0  0  0  0  0  0  0
   30.9160   15.8840   -7.3243 C   0  0  0  0  0  0  0  0  0  0  0  0
   30.3141   14.6467   -7.4391 C   0  0  0  0  0  0  0  0  0  0  0  0
   28.9460   14.5465   -7.3408 C   0  0  0  0  0  0  0  0  0  0  0  0
   28.2068   15.6729   -7.1302 N   0  0  0  0  0  0  0  0  0  0  0  0
   28.7523   16.8925   -7.0123 C   0  0  0  0  0  0  0  0  0  0  0  0
   27.9856   18.0124   -6.7964 C   0  0  0  0  0  0  0  0  0  0  0  0
   28.5557   19.2479   -6.6744 C   0  0  0  0  0  0  0  0  0  0  0  0
   29.9280   19.3472   -6.7734 C   0  0  0  0  0  0  0  0  0  0  0  0
   30.7107   18.2499   -6.9876 C   0  0  0  0  0  0  0  0  0  0  0  0
   30.1235   17.0010   -7.1102 C   0  0  0  0  0  0  0  0  0  0  0  0
   28.3031   13.2350   -7.4746 C   0  0  0  0  0  0  0  0  0  0  0  0
   29.1179   12.0664   -7.0414 C   0  0  0  0  0  0  0  0  0  0  0  0
   30.5328   12.3908   -6.6507 C   0  0  0  0  0  0  0  0  0  0  0  0
   31.0932   13.4031   -7.6532 C   0  0  0  0  0  0  0  0  0  0  0  0
  1  2  1  0  0  0
  2 27  1  0  0  0
 27 28  2  0  0  0
 27 29  1  0  0  0
 29 31  1  0  0  0
 31 32  1  0  0  0
 32 33  1  0  0  0
 33 34  1  0  0  0
 34 35  1  0  0  0
 35 36  1  0  0  0
 36 37  1  0  0  0
 37 39  1  0  0  0
 39 40  2  0  0  0
 40 41  1  0  0  0
 41 42  2  0  0  0
 42 43  1  0  0  0
 43 44  2  0  0  0
 44 45  1  0  0  0
 45 46  2  0  0  0
 46 47  1  0  0  0
 47 48  2  0  0  0
 41 49  1  0  0  0
 49 50  1  0  0  0
 50 51  1  0  0  0
 51 52  1  0  0  0
  2  3  1  0  0  0
  3  4  2  0  0  0
  4  5  1  0  0  0
  5  6  2  0  0  0
  6 10  1  0  0  0
 10 11  2  0  0  0
 11 12  1  0  0  0
 12 13  2  0  0  0
 13 16  1  0  0  0
 16 17  1  0  0  0
 17 18  1  0  0  0
 18 19  1  0  0  0
 19 20  1  0  0  0
 20 21  1  0  0  0
 21 22  1  0  0  0
 22 23  1  0  0  0
 23 24  1  0  0  0
 24 25  2  0  0  0
 24 26  1  0  0  0
 13 14  1  0  0  0
 14 15  2  0  0  0
  6  7  1  0  0  0
  7  8  1  0  0  0
  7  9  2  0  0  0
 48 39  1  0  0  0
  9  3  1  0  0  0
 52 40  1  0  0  0
 15 10  1  0  0  0
 48 43  1  0  0  0
 29 30  1  0  0  0
 37 38  1  0  0  0
M  CHG 1  24   1
M  CHG 1  26  -1
M  END
> <minimizedAffinity>
-8.61332

> <CNNscore>
0.2342148721

> <CNNaffinity>
6.5894823074

> <CNN_VS>
1.5433547497

> <CNNaffinity_variance>
0.2511208355

$$$$
[H]c1c([H])c(-c2c([H])c([H])c(C([H])(C(=O)N([H])C([H])([H])C([H])([H])C([H])([H])C([H])([H])C([H])([H])C([H])([H])N([H])c3c4c(nc5c([H])c([H])c([H])c([H])c35)C([H])([H])C([H])([H])C([H])([H])C4([H])[H])C([H])([H])[H])c([H])c2F)c([H])c([H])c1OC([H])([H])C([H])([H])C([H])([H])C([H])([H])C([H])([H])C([H])([H])O[N+](=O)[O-]


 52 56  0  0  0  0  0  0  0  0999 V2000
   36.2563   11.4921  -16.3463 C   0  0  0  0  0  0  0  0  0  0  0  0
   36.7270   12.7879  -15.6928 C   0  0  0  0  0  0  0  0  0  0  0  0
   38.2020   12.7892  -15.7390 C   0  0  0  0  0  0  0  0  0  0  0  0
   38.8438   12.1290  -16.7602 C   0  0  0  0  0  0  0  0  0  0  0  0
   40.2366   12.0849  -16.8406 C   0  0  0  0  0  0  0  0  0  0  0  0
   40.9756   12.7100  -15.8858 C   0  0  0  0  0  0  0  0  0  0  0  0
   40.3545   13.3751  -14.8572 C   0  0  0  0  0  0  0  0  0  0  0  0
   41.0757   13.9976  -13.8947 F   0  0  0  0  0  0  0  0  0  0  0  0
   38.9554   13.4145  -14.7839 C   0  0  0  0  0  0  0  0  0  0  0  0
   42.4253   12.6854  -15.9472 C   0  0  0  0  0  0  0  0  0  0  0  0
   43.1040   11.9065  -16.8573 C   0  0  0  0  0  0  0  0  0  0  0  0
   44.5019   11.9065  -16.8991 C   0  0  0  0  0  0  0  0  0  0  0  0
   45.2687   12.6680  -16.0508 C   0  0  0  0  0  0  0  0  0  0  0  0
   44.5587   13.4603  -15.1256 C   0  0  0  0  0  0  0  0  0  0  0  0
   43.1930   13.4493  -15.0979 C   0  0  0  0  0  0  0  0  0  0  0  0
   46.6391   12.7214  -16.0229 O   0  0  0  0  0  0  0  0  0  0  0  0
   47.4356   13.5104  -15.1975 C   0  0  0  0  0  0  0  0  0  0  0  0
   48.1352   12.6639  -14.1828 C   0  0  0  0  0  0  0  0  0  0  0  0
   47.6674   13.0046  -12.7985 C   0  0  0  0  0  0  0  0  0  0  0  0
   46.5729   12.0879  -12.3722 C   0  0  0  0  0  0  0  0  0  0  0  0
   45.4434   12.7946  -11.6673 C   0  0  0  0  0  0  0  0  0  0  0  0
   45.7945   14.2414  -11.4752 C   0  0  0  0  0  0  0  0  0  0  0  0
   44.7629   15.0375  -12.0848 O   0  0  0  0  0  0  0  0  0  0  0  0
   43.9230   15.7007  -11.2232 N   0  0  0  0  0  0  0  0  0  0  0  0
   44.3372   16.2881  -10.2066 O   0  0  0  0  0  0  0  0  0  0  0  0
   42.5798   15.6799  -11.5492 O   0  0  0  0  0  0  0  0  0  0  0  0
   36.1355   13.0037  -14.3740 C   0  0  0  0  0  0  0  0  0  0  0  0
   35.9453   12.0131  -13.5836 O   0  0  0  0  0  0  0  0  0  0  0  0
   35.7374   14.2619  -13.8671 N   0  0  0  0  0  0  0  0  0  0  0  0
   35.8732   15.0966  -14.4734 H   0  0  0  0  0  0  0  0  0  0  0  0
   35.1606   14.4585  -12.5650 C   0  0  0  0  0  0  0  0  0  0  0  0
   35.7399   15.6566  -11.8521 C   0  0  0  0  0  0  0  0  0  0  0  0
   34.8638   16.0248  -10.6711 C   0  0  0  0  0  0  0  0  0  0  0  0
   35.3208   15.1576   -9.4966 C   0  0  0  0  0  0  0  0  0  0  0  0
   34.4456   15.3442   -8.3167 C   0  0  0  0  0  0  0  0  0  0  0  0
   33.1833   16.0572   -8.5575 C   0  0  0  0  0  0  0  0  0  0  0  0
   32.2762   16.2093   -7.5009 N   0  0  0  0  0  0  0  0  0  0  0  0
   32.7170   16.4867   -6.5450 H   0  0  0  0  0  0  0  0  0  0  0  0
   30.8889   16.0729   -7.4226 C   0  0  0  0  0  0  0  0  0  0  0  0
   30.3188   14.8205   -7.5358 C   0  0  0  0  0  0  0  0  0  0  0  0
   28.9562   14.6821   -7.4110 C   0  0  0  0  0  0  0  0  0  0  0  0
   28.1910   15.7860   -7.1760 N   0  0  0  0  0  0  0  0  0  0  0  0
   28.7053   17.0191   -7.0586 C   0  0  0  0  0  0  0  0  0  0  0  0
   27.9129   18.1158   -6.8179 C   0  0  0  0  0  0  0  0  0  0  0  0
   28.4515   19.3655   -6.6969 C   0  0  0  0  0  0  0  0  0  0  0  0
   29.8182   19.5032   -6.8224 C   0  0  0  0  0  0  0  0  0  0  0  0
   30.6261   18.4295   -7.0616 C   0  0  0  0  0  0  0  0  0  0  0  0
   30.0708   17.1660   -7.1831 C   0  0  0  0  0  0  0  0  0  0  0  0
   28.3467   13.3545   -7.5431 C   0  0  0  0  0  0  0  0  0  0  0  0
   29.2017   12.2053   -7.1362 C   0  0  0  0  0  0  0  0  0  0  0  0
   30.6149   12.5652   -6.7712 C   0  0  0  0  0  0  0  0  0  0  0  0
   31.1271   13.6005   -7.7760 C   0  0  0  0  0  0  0  0  0  0  0  0
  1  2  1  0  0  0
  2 27  1  0  0  0
 27 28  2  0  0  0
 27 29  1  0  0  0
 29 31  1  0  0  0
 31 32  1  0  0  0
 32 33  1  0  0  0
 33 34  1  0  0  0
 34 35  1  0  0  0
 35 36  1  0  0  0
 36 37  1  0  0  0
 37 39  1  0  0  0
 39 40  2  0  0  0
 40 41  1  0  0  0
 41 42  2  0  0  0
 42 43  1  0  0  0
 43 44  2  0  0  0
 44 45  1  0  0  0
 45 46  2  0  0  0
 46 47  1  0  0  0
 47 48  2  0  0  0
 41 49  1  0  0  0
 49 50  1  0  0  0
 50 51  1  0  0  0
 51 52  1  0  0  0
  2  3  1  0  0  0
  3  4  2  0  0  0
  4  5  1  0  0  0
  5  6  2  0  0  0
  6 10  1  0  0  0
 10 11  2  0  0  0
 11 12  1  0  0  0
 12 13  2  0  0  0
 13 16  1  0  0  0
 16 17  1  0  0  0
 17 18  1  0  0  0
 18 19  1  0  0  0
 19 20  1  0  0  0
 20 21  1  0  0  0
 21 22  1  0  0  0
 22 23  1  0  0  0
 23 24  1  0  0  0
 24 25  2  0  0  0
 24 26  1  0  0  0
 13 14  1  0  0  0
 14 15  2  0  0  0
  6  7  1  0  0  0
  7  8  1  0  0  0
  7  9  2  0  0  0
 48 39  1  0  0  0
  9  3  1  0  0  0
 52 40  1  0  0  0
 15 10  1  0  0  0
 48 43  1  0  0  0
 29 30  1  0  0  0
 37 38  1  0  0  0
M  CHG 1  24   1
M  CHG 1  26  -1
M  END
> <minimizedAffinity>
-8.29188

> <CNNscore>
0.1738616526

> <CNNaffinity>
6.6063141823

> <CNN_VS>
1.1485847235

> <CNNaffinity_variance>
0.3870965242

$$$$
[H]c1c([H])c(-c2c([H])c([H])c(C([H])(C(=O)N([H])C([H])([H])C([H])([H])C([H])([H])C([H])([H])C([H])([H])C([H])([H])N([H])c3c4c(nc5c([H])c([H])c([H])c([H])c35)C([H])([H])C([H])([H])C([H])([H])C4([H])[H])C([H])([H])[H])c([H])c2F)c([H])c([H])c1OC([H])([H])C([H])([H])C([H])([H])C([H])([H])C([H])([H])C([H])([H])O[N+](=O)[O-]


 52 56  0  0  0  0  0  0  0  0999 V2000
   34.3427   12.0138  -15.2320 C   0  0  0  0  0  0  0  0  0  0  0  0
   34.8573   13.4014  -14.8612 C   0  0  0  0  0  0  0  0  0  0  0  0
   36.3315   13.3422  -14.8901 C   0  0  0  0  0  0  0  0  0  0  0  0
   37.0572   14.4256  -14.4541 C   0  0  0  0  0  0  0  0  0  0  0  0
   38.4528   14.4278  -14.4769 C   0  0  0  0  0  0  0  0  0  0  0  0
   39.1097   13.3318  -14.9414 C   0  0  0  0  0  0  0  0  0  0  0  0
   38.4040   12.2388  -15.3816 C   0  0  0  0  0  0  0  0  0  0  0  0
   39.0426   11.1415  -15.8531 F   0  0  0  0  0  0  0  0  0  0  0  0
   37.0028   12.2450  -15.3554 C   0  0  0  0  0  0  0  0  0  0  0  0
   40.5603   13.3038  -14.9713 C   0  0  0  0  0  0  0  0  0  0  0  0
   41.3207   13.7523  -13.9148 C   0  0  0  0  0  0  0  0  0  0  0  0
   42.7176   13.7080  -13.9673 C   0  0  0  0  0  0  0  0  0  0  0  0
   43.4034   13.2247  -15.0552 C   0  0  0  0  0  0  0  0  0  0  0  0
   42.6103   12.7687  -16.1281 C   0  0  0  0  0  0  0  0  0  0  0  0
   41.2469   12.8184  -16.0610 C   0  0  0  0  0  0  0  0  0  0  0  0
   44.7666   13.1516  -15.1884 O   0  0  0  0  0  0  0  0  0  0  0  0
   45.7272   13.6616  -14.3195 C   0  0  0  0  0  0  0  0  0  0  0  0
   46.3504   12.5591  -13.5247 C   0  0  0  0  0  0  0  0  0  0  0  0
   46.2395   12.8401  -12.0551 C   0  0  0  0  0  0  0  0  0  0  0  0
   45.0041   12.2250  -11.4933 C   0  0  0  0  0  0  0  0  0  0  0  0
   44.1238   13.2104  -10.7679 C   0  0  0  0  0  0  0  0  0  0  0  0
   44.8824   14.4831  -10.5266 C   0  0  0  0  0  0  0  0  0  0  0  0
   43.9514   15.5781  -10.5882 O   0  0  0  0  0  0  0  0  0  0  0  0
   43.9427   16.2986  -11.7580 N   0  0  0  0  0  0  0  0  0  0  0  0
   42.8948   16.7492  -12.2571 O   0  0  0  0  0  0  0  0  0  0  0  0
   45.1726   16.4980  -12.3568 O   0  0  0  0  0  0  0  0  0  0  0  0
   34.2691   13.9110  -13.6242 C   0  0  0  0  0  0  0  0  0  0  0  0
   33.1679   13.4232  -13.1861 O   0  0  0  0  0  0  0  0  0  0  0  0
   34.8295   14.9377  -12.8303 N   0  0  0  0  0  0  0  0  0  0  0  0
   35.7247   15.3640  -13.1460 H   0  0  0  0  0  0  0  0  0  0  0  0
   34.2405   15.4252  -11.6129 C   0  0  0  0  0  0  0  0  0  0  0  0
   35.2493   15.5621  -10.4981 C   0  0  0  0  0  0  0  0  0  0  0  0
   36.5906   15.0191  -10.9493 C   0  0  0  0  0  0  0  0  0  0  0  0
   37.5404   16.2147  -11.0438 C   0  0  0  0  0  0  0  0  0  0  0  0
   38.9423   15.8103  -10.7909 C   0  0  0  0  0  0  0  0  0  0  0  0
   39.6813   16.6238   -9.8153 C   0  0  0  0  0  0  0  0  0  0  0  0
   39.6808   16.2375   -8.4688 N   0  0  0  0  0  0  0  0  0  0  0  0
   39.9318   17.0236   -7.7587 H   0  0  0  0  0  0  0  0  0  0  0  0
   39.4188   15.0201   -7.8375 C   0  0  0  0  0  0  0  0  0  0  0  0
   40.4329   14.0944   -7.6923 C   0  0  0  0  0  0  0  0  0  0  0  0
   40.1851   12.9158   -7.0284 C   0  0  0  0  0  0  0  0  0  0  0  0
   38.9402   12.6823   -6.5231 N   0  0  0  0  0  0  0  0  0  0  0  0
   37.9288   13.5551   -6.6418 C   0  0  0  0  0  0  0  0  0  0  0  0
   36.6836   13.2980   -6.1203 C   0  0  0  0  0  0  0  0  0  0  0  0
   35.6639   14.1984   -6.2456 C   0  0  0  0  0  0  0  0  0  0  0  0
   35.9135   15.3801   -6.9119 C   0  0  0  0  0  0  0  0  0  0  0  0
   37.1414   15.6584   -7.4386 C   0  0  0  0  0  0  0  0  0  0  0  0
   38.1695   14.7390   -7.3068 C   0  0  0  0  0  0  0  0  0  0  0  0
   41.2572   11.9255   -6.8834 C   0  0  0  0  0  0  0  0  0  0  0  0
   42.6418   12.4713   -6.8364 C   0  0  0  0  0  0  0  0  0  0  0  0
   42.7476   13.9516   -7.0757 C   0  0  0  0  0  0  0  0  0  0  0  0
   41.8000   14.3275   -8.2178 C   0  0  0  0  0  0  0  0  0  0  0  0
  1  2  1  0  0  0
  2 27  1  0  0  0
 27 28  2  0  0  0
 27 29  1  0  0  0
 29 31  1  0  0  0
 31 32  1  0  0  0
 32 33  1  0  0  0
 33 34  1  0  0  0
 34 35  1  0  0  0
 35 36  1  0  0  0
 36 37  1  0  0  0
 37 39  1  0  0  0
 39 40  2  0  0  0
 40 41  1  0  0  0
 41 42  2  0  0  0
 42 43  1  0  0  0
 43 44  2  0  0  0
 44 45  1  0  0  0
 45 46  2  0  0  0
 46 47  1  0  0  0
 47 48  2  0  0  0
 41 49  1  0  0  0
 49 50  1  0  0  0
 50 51  1  0  0  0
 51 52  1  0  0  0
  2  3  1  0  0  0
  3  4  2  0  0  0
  4  5  1  0  0  0
  5  6  2  0  0  0
  6 10  1  0  0  0
 10 11  2  0  0  0
 11 12  1  0  0  0
 12 13  2  0  0  0
 13 16  1  0  0  0
 16 17  1  0  0  0
 17 18  1  0  0  0
 18 19  1  0  0  0
 19 20  1  0  0  0
 20 21  1  0  0  0
 21 22  1  0  0  0
 22 23  1  0  0  0
 23 24  1  0  0  0
 24 25  2  0  0  0
 24 26  1  0  0  0
 13 14  1  0  0  0
 14 15  2  0  0  0
  6  7  1  0  0  0
  7  8  1  0  0  0
  7  9  2  0  0  0
 48 39  1  0  0  0
  9  3  1  0  0  0
 52 40  1  0  0  0
 15 10  1  0  0  0
 48 43  1  0  0  0
 29 30  1  0  0  0
 37 38  1  0  0  0
M  CHG 1  24   1
M  CHG 1  26  -1
M  END
> <minimizedAffinity>
-7.60396

> <CNNscore>
0.1434116960

> <CNNaffinity>
7.0064697266

> <CNN_VS>
1.0048097372

> <CNNaffinity_variance>
2.6423759460

$$$$
[H]c1c([H])c(-c2c([H])c([H])c(C([H])(C(=O)N([H])C([H])([H])C([H])([H])C([H])([H])C([H])([H])C([H])([H])C([H])([H])N([H])c3c4c(nc5c([H])c([H])c([H])c([H])c35)C([H])([H])C([H])([H])C([H])([H])C4([H])[H])C([H])([H])[H])c([H])c2F)c([H])c([H])c1OC([H])([H])C([H])([H])C([H])([H])C([H])([H])C([H])([H])C([H])([H])O[N+](=O)[O-]


 52 56  0  0  0  0  0  0  0  0999 V2000
   28.8567   14.6281   -9.6717 C   0  0  0  0  0  0  0  0  0  0  0  0
   30.3653   14.4272   -9.5645 C   0  0  0  0  0  0  0  0  0  0  0  0
   30.8504   15.3255   -8.4989 C   0  0  0  0  0  0  0  0  0  0  0  0
   31.5862   14.8029   -7.4615 C   0  0  0  0  0  0  0  0  0  0  0  0
   32.0537   15.6057   -6.4198 C   0  0  0  0  0  0  0  0  0  0  0  0
   31.7745   16.9363   -6.4320 C   0  0  0  0  0  0  0  0  0  0  0  0
   31.0411   17.4786   -7.4588 C   0  0  0  0  0  0  0  0  0  0  0  0
   30.7489   18.8008   -7.4829 F   0  0  0  0  0  0  0  0  0  0  0  0
   30.5754   16.6653   -8.5009 C   0  0  0  0  0  0  0  0  0  0  0  0
   32.2526   17.7960   -5.3651 C   0  0  0  0  0  0  0  0  0  0  0  0
   31.4997   18.0512   -4.2409 C   0  0  0  0  0  0  0  0  0  0  0  0
   31.9873   18.8788   -3.2244 C   0  0  0  0  0  0  0  0  0  0  0  0
   33.2227   19.4768   -3.2842 C   0  0  0  0  0  0  0  0  0  0  0  0
   33.9813   19.2048   -4.4411 C   0  0  0  0  0  0  0  0  0  0  0  0
   33.4908   18.3939   -5.4249 C   0  0  0  0  0  0  0  0  0  0  0  0
   33.7713   20.3029   -2.3366 O   0  0  0  0  0  0  0  0  0  0  0  0
   34.7196   19.9687   -1.3737 C   0  0  0  0  0  0  0  0  0  0  0  0
   34.2071   18.8738   -0.4939 C   0  0  0  0  0  0  0  0  0  0  0  0
   34.8667   17.5702   -0.8351 C   0  0  0  0  0  0  0  0  0  0  0  0
   33.8517   16.4896   -0.9839 C   0  0  0  0  0  0  0  0  0  0  0  0
   33.8080   15.8989   -2.3700 C   0  0  0  0  0  0  0  0  0  0  0  0
   35.1297   15.2631   -2.6900 C   0  0  0  0  0  0  0  0  0  0  0  0
   34.9376   13.8388   -2.7549 O   0  0  0  0  0  0  0  0  0  0  0  0
   36.0741   13.0823   -2.9089 N   0  0  0  0  0  0  0  0  0  0  0  0
   37.0226   13.4413   -3.6312 O   0  0  0  0  0  0  0  0  0  0  0  0
   36.1078   11.8891   -2.2116 O   0  0  0  0  0  0  0  0  0  0  0  0
   31.0451   14.5492  -10.8524 C   0  0  0  0  0  0  0  0  0  0  0  0
   30.4290   14.2528  -11.9364 O   0  0  0  0  0  0  0  0  0  0  0  0
   32.3794   14.9851  -11.0196 N   0  0  0  0  0  0  0  0  0  0  0  0
   32.9199   15.2379  -10.1671 H   0  0  0  0  0  0  0  0  0  0  0  0
   33.0330   15.1039  -12.2945 C   0  0  0  0  0  0  0  0  0  0  0  0
   34.4698   14.6424  -12.2518 C   0  0  0  0  0  0  0  0  0  0  0  0
   35.3335   15.7099  -11.6099 C   0  0  0  0  0  0  0  0  0  0  0  0
   36.7240   15.0991  -11.4255 C   0  0  0  0  0  0  0  0  0  0  0  0
   36.7785   13.7155  -11.9506 C   0  0  0  0  0  0  0  0  0  0  0  0
   37.7857   13.4602  -12.9898 C   0  0  0  0  0  0  0  0  0  0  0  0
   37.4056   13.5282  -14.3363 N   0  0  0  0  0  0  0  0  0  0  0  0
   37.1019   14.5137  -14.6852 H   0  0  0  0  0  0  0  0  0  0  0  0
   37.3341   12.5660  -15.3454 C   0  0  0  0  0  0  0  0  0  0  0  0
   36.1478   11.8946  -15.5654 C   0  0  0  0  0  0  0  0  0  0  0  0
   36.0657   10.9814  -16.5904 C   0  0  0  0  0  0  0  0  0  0  0  0
   37.1589   10.7556  -17.3736 N   0  0  0  0  0  0  0  0  0  0  0  0
   38.3285   11.3869  -17.1938 C   0  0  0  0  0  0  0  0  0  0  0  0
   39.4152   11.1444  -17.9994 C   0  0  0  0  0  0  0  0  0  0  0  0
   40.5992   11.7981  -17.8067 C   0  0  0  0  0  0  0  0  0  0  0  0
   40.6805   12.7136  -16.7782 C   0  0  0  0  0  0  0  0  0  0  0  0
   39.6155   12.9716  -15.9647 C   0  0  0  0  0  0  0  0  0  0  0  0
   38.4187   12.3037  -16.1676 C   0  0  0  0  0  0  0  0  0  0  0  0
   34.8104   10.2578  -16.8186 C   0  0  0  0  0  0  0  0  0  0  0  0
   33.5669   10.9783  -16.4290 C   0  0  0  0  0  0  0  0  0  0  0  0
   33.7877   12.2939  -15.7361 C   0  0  0  0  0  0  0  0  0  0  0  0
   34.9386   12.1306  -14.7398 C   0  0  0  0  0  0  0  0  0  0  0  0
  1  2  1  0  0  0
  2 27  1  0  0  0
 27 28  2  0  0  0
 27 29  1  0  0  0
 29 31  1  0  0  0
 31 32  1  0  0  0
 32 33  1  0  0  0
 33 34  1  0  0  0
 34 35  1  0  0  0
 35 36  1  0  0  0
 36 37  1  0  0  0
 37 39  1  0  0  0
 39 40  2  0  0  0
 40 41  1  0  0  0
 41 42  2  0  0  0
 42 43  1  0  0  0
 43 44  2  0  0  0
 44 45  1  0  0  0
 45 46  2  0  0  0
 46 47  1  0  0  0
 47 48  2  0  0  0
 41 49  1  0  0  0
 49 50  1  0  0  0
 50 51  1  0  0  0
 51 52  1  0  0  0
  2  3  1  0  0  0
  3  4  2  0  0  0
  4  5  1  0  0  0
  5  6  2  0  0  0
  6 10  1  0  0  0
 10 11  2  0  0  0
 11 12  1  0  0  0
 12 13  2  0  0  0
 13 16  1  0  0  0
 16 17  1  0  0  0
 17 18  1  0  0  0
 18 19  1  0  0  0
 19 20  1  0  0  0
 20 21  1  0  0  0
 21 22  1  0  0  0
 22 23  1  0  0  0
 23 24  1  0  0  0
 24 25  2  0  0  0
 24 26  1  0  0  0
 13 14  1  0  0  0
 14 15  2  0  0  0
  6  7  1  0  0  0
  7  8  1  0  0  0
  7  9  2  0  0  0
 48 39  1  0  0  0
  9  3  1  0  0  0
 52 40  1  0  0  0
 15 10  1  0  0  0
 48 43  1  0  0  0
 29 30  1  0  0  0
 37 38  1  0  0  0
M  CHG 1  24   1
M  CHG 1  26  -1
M  END
> <minimizedAffinity>
-8.78012

> <CNNscore>
0.1250807047

> <CNNaffinity>
7.0912199020

> <CNN_VS>
0.8869748116

> <CNNaffinity_variance>
0.1751427054

$$$$
[H]c1c([H])c(-c2c([H])c([H])c(C([H])(C(=O)N([H])C([H])([H])C([H])([H])C([H])([H])C([H])([H])C([H])([H])C([H])([H])N([H])c3c4c(nc5c([H])c([H])c([H])c([H])c35)C([H])([H])C([H])([H])C([H])([H])C4([H])[H])C([H])([H])[H])c([H])c2F)c([H])c([H])c1OC([H])([H])C([H])([H])C([H])([H])C([H])([H])C([H])([H])C([H])([H])O[N+](=O)[O-]


 52 56  0  0  0  0  0  0  0  0999 V2000
   36.3999   11.5688  -15.9992 C   0  0  0  0  0  0  0  0  0  0  0  0
   36.9174   12.9441  -15.5887 C   0  0  0  0  0  0  0  0  0  0  0  0
   38.3913   12.8868  -15.6332 C   0  0  0  0  0  0  0  0  0  0  0  0
   39.1180   13.4564  -14.6144 C   0  0  0  0  0  0  0  0  0  0  0  0
   40.5137   13.4452  -14.6169 C   0  0  0  0  0  0  0  0  0  0  0  0
   41.1698   12.8566  -15.6522 C   0  0  0  0  0  0  0  0  0  0  0  0
   40.4631   12.2817  -16.6801 C   0  0  0  0  0  0  0  0  0  0  0  0
   41.1010   11.6968  -17.7217 F   0  0  0  0  0  0  0  0  0  0  0  0
   39.0617   12.2975  -16.6696 C   0  0  0  0  0  0  0  0  0  0  0  0
   42.6203   12.8249  -15.6784 C   0  0  0  0  0  0  0  0  0  0  0  0
   43.3815   13.4610  -14.7235 C   0  0  0  0  0  0  0  0  0  0  0  0
   44.7783   13.4091  -14.7689 C   0  0  0  0  0  0  0  0  0  0  0  0
   45.4634   12.7345  -15.7503 C   0  0  0  0  0  0  0  0  0  0  0  0
   44.6697   12.0881  -16.7198 C   0  0  0  0  0  0  0  0  0  0  0  0
   43.3062   12.1480  -16.6611 C   0  0  0  0  0  0  0  0  0  0  0  0
   46.8266   12.6394  -15.8696 O   0  0  0  0  0  0  0  0  0  0  0  0
   47.7834   13.4716  -15.2950 C   0  0  0  0  0  0  0  0  0  0  0  0
   48.8977   12.6621  -14.7132 C   0  0  0  0  0  0  0  0  0  0  0  0
   48.9970   12.8877  -13.2333 C   0  0  0  0  0  0  0  0  0  0  0  0
   49.8514   11.8453  -12.5980 C   0  0  0  0  0  0  0  0  0  0  0  0
   49.1768   11.1394  -11.4497 C   0  0  0  0  0  0  0  0  0  0  0  0
   47.8866   10.5316  -11.9184 C   0  0  0  0  0  0  0  0  0  0  0  0
   47.7453    9.2434  -11.2936 O   0  0  0  0  0  0  0  0  0  0  0  0
   47.4486    9.2519   -9.9521 N   0  0  0  0  0  0  0  0  0  0  0  0
   46.4737    9.8717   -9.4876 O   0  0  0  0  0  0  0  0  0  0  0  0
   48.2995    8.5280   -9.1379 O   0  0  0  0  0  0  0  0  0  0  0  0
   36.3406   13.4132  -14.3306 C   0  0  0  0  0  0  0  0  0  0  0  0
   35.7774   12.5843  -13.5318 O   0  0  0  0  0  0  0  0  0  0  0  0
   36.3486   14.7577  -13.8939 N   0  0  0  0  0  0  0  0  0  0  0  0
   36.7959   15.4674  -14.5095 H   0  0  0  0  0  0  0  0  0  0  0  0
   35.7803   15.2029  -12.6506 C   0  0  0  0  0  0  0  0  0  0  0  0
   36.7028   14.9704  -11.4783 C   0  0  0  0  0  0  0  0  0  0  0  0
   36.9297   16.2728  -10.7369 C   0  0  0  0  0  0  0  0  0  0  0  0
   38.4439   16.4445  -10.6019 C   0  0  0  0  0  0  0  0  0  0  0  0
   39.0573   15.2890   -9.9080 C   0  0  0  0  0  0  0  0  0  0  0  0
   39.9940   15.6125   -8.8228 C   0  0  0  0  0  0  0  0  0  0  0  0
   41.3218   15.1765   -8.9183 N   0  0  0  0  0  0  0  0  0  0  0  0
   41.4615   14.0975   -8.8811 H   0  0  0  0  0  0  0  0  0  0  0  0
   42.5312   15.8608   -9.0534 C   0  0  0  0  0  0  0  0  0  0  0  0
   43.1184   15.9697  -10.2983 C   0  0  0  0  0  0  0  0  0  0  0  0
   44.2850   16.6845  -10.4375 C   0  0  0  0  0  0  0  0  0  0  0  0
   44.8417   17.2753   -9.3418 N   0  0  0  0  0  0  0  0  0  0  0  0
   44.3030   17.1943   -8.1162 C   0  0  0  0  0  0  0  0  0  0  0  0
   44.8816   17.8020   -7.0278 C   0  0  0  0  0  0  0  0  0  0  0  0
   44.3192   17.7142   -5.7859 C   0  0  0  0  0  0  0  0  0  0  0  0
   43.1492   16.9968   -5.6474 C   0  0  0  0  0  0  0  0  0  0  0  0
   42.5557   16.3844   -6.7128 C   0  0  0  0  0  0  0  0  0  0  0  0
   43.1334   16.4788   -7.9686 C   0  0  0  0  0  0  0  0  0  0  0  0
   44.9174   16.7914  -11.7566 C   0  0  0  0  0  0  0  0  0  0  0  0
   43.9952   16.7329  -12.9242 C   0  0  0  0  0  0  0  0  0  0  0  0
   42.5602   16.4414  -12.5841 C   0  0  0  0  0  0  0  0  0  0  0  0
   42.5280   15.3510  -11.5099 C   0  0  0  0  0  0  0  0  0  0  0  0
  1  2  1  0  0  0
  2 27  1  0  0  0
 27 28  2  0  0  0
 27 29  1  0  0  0
 29 31  1  0  0  0
 31 32  1  0  0  0
 32 33  1  0  0  0
 33 34  1  0  0  0
 34 35  1  0  0  0
 35 36  1  0  0  0
 36 37  1  0  0  0
 37 39  1  0  0  0
 39 40  2  0  0  0
 40 41  1  0  0  0
 41 42  2  0  0  0
 42 43  1  0  0  0
 43 44  2  0  0  0
 44 45  1  0  0  0
 45 46  2  0  0  0
 46 47  1  0  0  0
 47 48  2  0  0  0
 41 49  1  0  0  0
 49 50  1  0  0  0
 50 51  1  0  0  0
 51 52  1  0  0  0
  2  3  1  0  0  0
  3  4  2  0  0  0
  4  5  1  0  0  0
  5  6  2  0  0  0
  6 10  1  0  0  0
 10 11  2  0  0  0
 11 12  1  0  0  0
 12 13  2  0  0  0
 13 16  1  0  0  0
 16 17  1  0  0  0
 17 18  1  0  0  0
 18 19  1  0  0  0
 19 20  1  0  0  0
 20 21  1  0  0  0
 21 22  1  0  0  0
 22 23  1  0  0  0
 23 24  1  0  0  0
 24 25  2  0  0  0
 24 26  1  0  0  0
 13 14  1  0  0  0
 14 15  2  0  0  0
  6  7  1  0  0  0
  7  8  1  0  0  0
  7  9  2  0  0  0
 48 39  1  0  0  0
  9  3  1  0  0  0
 52 40  1  0  0  0
 15 10  1  0  0  0
 48 43  1  0  0  0
 29 30  1  0  0  0
 37 38  1  0  0  0
M  CHG 1  24   1
M  CHG 1  26  -1
M  END
> <minimizedAffinity>
-7.64648

> <CNNscore>
0.1091894284

> <CNNaffinity>
7.0518951416

> <CNN_VS>
0.7699924111

> <CNNaffinity_variance>
1.1121356487

$$$$
[H]c1c([H])c(-c2c([H])c([H])c(C([H])(C(=O)N([H])C([H])([H])C([H])([H])C([H])([H])C([H])([H])C([H])([H])C([H])([H])N([H])c3c4c(nc5c([H])c([H])c([H])c([H])c35)C([H])([H])C([H])([H])C([H])([H])C4([H])[H])C([H])([H])[H])c([H])c2F)c([H])c([H])c1OC([H])([H])C([H])([H])C([H])([H])C([H])([H])C([H])([H])C([H])([H])O[N+](=O)[O-]


 52 56  0  0  0  0  0  0  0  0999 V2000
   36.2778   11.7845  -15.9842 C   0  0  0  0  0  0  0  0  0  0  0  0
   36.8178   13.0512  -15.3272 C   0  0  0  0  0  0  0  0  0  0  0  0
   38.2901   12.9905  -15.4071 C   0  0  0  0  0  0  0  0  0  0  0  0
   39.0430   13.6749  -14.4822 C   0  0  0  0  0  0  0  0  0  0  0  0
   40.4381   13.6647  -14.5235 C   0  0  0  0  0  0  0  0  0  0  0  0
   41.0669   12.9609  -15.5022 C   0  0  0  0  0  0  0  0  0  0  0  0
   40.3338   12.2704  -16.4360 C   0  0  0  0  0  0  0  0  0  0  0  0
   40.9444   11.5695  -17.4210 F   0  0  0  0  0  0  0  0  0  0  0  0
   38.9333   12.2859  -16.3873 C   0  0  0  0  0  0  0  0  0  0  0  0
   42.5163   12.9278  -15.5663 C   0  0  0  0  0  0  0  0  0  0  0  0
   43.3028   13.5551  -14.6262 C   0  0  0  0  0  0  0  0  0  0  0  0
   44.6979   13.5020  -14.7082 C   0  0  0  0  0  0  0  0  0  0  0  0
   45.3565   12.8347  -15.7124 C   0  0  0  0  0  0  0  0  0  0  0  0
   44.5370   12.1972  -16.6663 C   0  0  0  0  0  0  0  0  0  0  0  0
   43.1756   12.2582  -16.5719 C   0  0  0  0  0  0  0  0  0  0  0  0
   46.7159   12.7391  -15.8678 O   0  0  0  0  0  0  0  0  0  0  0  0
   47.6980   13.3590  -15.1002 C   0  0  0  0  0  0  0  0  0  0  0  0
   48.6638   12.3472  -14.5718 C   0  0  0  0  0  0  0  0  0  0  0  0
   50.0152   12.9653  -14.3649 C   0  0  0  0  0  0  0  0  0  0  0  0
   50.6401   12.4573  -13.1113 C   0  0  0  0  0  0  0  0  0  0  0  0
   49.7824   12.6673  -11.8896 C   0  0  0  0  0  0  0  0  0  0  0  0
   49.6279   11.3692  -11.1518 C   0  0  0  0  0  0  0  0  0  0  0  0
   48.2387   11.2084  -10.8142 O   0  0  0  0  0  0  0  0  0  0  0  0
   47.4543   10.5938  -11.7601 N   0  0  0  0  0  0  0  0  0  0  0  0
   47.7443    9.4873  -12.2517 O   0  0  0  0  0  0  0  0  0  0  0  0
   46.3145   11.2774  -12.1403 O   0  0  0  0  0  0  0  0  0  0  0  0
   36.2657   13.2759  -13.9929 C   0  0  0  0  0  0  0  0  0  0  0  0
   36.2489   12.3246  -13.1344 O   0  0  0  0  0  0  0  0  0  0  0  0
   35.7255   14.5019  -13.5418 N   0  0  0  0  0  0  0  0  0  0  0  0
   35.7183   15.3043  -14.2043 H   0  0  0  0  0  0  0  0  0  0  0  0
   35.1898   14.7084  -12.2239 C   0  0  0  0  0  0  0  0  0  0  0  0
   35.6760   15.9933  -11.5979 C   0  0  0  0  0  0  0  0  0  0  0  0
   35.6350   15.8766  -10.0872 C   0  0  0  0  0  0  0  0  0  0  0  0
   36.9395   16.4805   -9.5635 C   0  0  0  0  0  0  0  0  0  0  0  0
   38.0909   15.5876   -9.8284 C   0  0  0  0  0  0  0  0  0  0  0  0
   39.1556   15.5919   -8.8154 C   0  0  0  0  0  0  0  0  0  0  0  0
   40.3549   14.9209   -9.0869 N   0  0  0  0  0  0  0  0  0  0  0  0
   40.2513   13.8688   -9.3465 H   0  0  0  0  0  0  0  0  0  0  0  0
   41.6876   15.3368   -9.0910 C   0  0  0  0  0  0  0  0  0  0  0  0
   42.4395   15.2300   -7.9379 C   0  0  0  0  0  0  0  0  0  0  0  0
   43.7651   15.5958   -7.9565 C   0  0  0  0  0  0  0  0  0  0  0  0
   44.3149   16.0572   -9.1159 N   0  0  0  0  0  0  0  0  0  0  0  0
   43.6199   16.1752  -10.2569 C   0  0  0  0  0  0  0  0  0  0  0  0
   44.1981   16.6397  -11.4139 C   0  0  0  0  0  0  0  0  0  0  0  0
   43.4784   16.7508  -12.5698 C   0  0  0  0  0  0  0  0  0  0  0  0
   42.1489   16.3839  -12.5499 C   0  0  0  0  0  0  0  0  0  0  0  0
   41.5521   15.9200  -11.4136 C   0  0  0  0  0  0  0  0  0  0  0  0
   42.2899   15.8109  -10.2459 C   0  0  0  0  0  0  0  0  0  0  0  0
   44.5628   15.4949   -6.7298 C   0  0  0  0  0  0  0  0  0  0  0  0
   44.1492   14.4315   -5.7732 C   0  0  0  0  0  0  0  0  0  0  0  0
   42.8902   13.6993   -6.1455 C   0  0  0  0  0  0  0  0  0  0  0  0
   41.8727   14.7176   -6.6668 C   0  0  0  0  0  0  0  0  0  0  0  0
  1  2  1  0  0  0
  2 27  1  0  0  0
 27 28  2  0  0  0
 27 29  1  0  0  0
 29 31  1  0  0  0
 31 32  1  0  0  0
 32 33  1  0  0  0
 33 34  1  0  0  0
 34 35  1  0  0  0
 35 36  1  0  0  0
 36 37  1  0  0  0
 37 39  1  0  0  0
 39 40  2  0  0  0
 40 41  1  0  0  0
 41 42  2  0  0  0
 42 43  1  0  0  0
 43 44  2  0  0  0
 44 45  1  0  0  0
 45 46  2  0  0  0
 46 47  1  0  0  0
 47 48  2  0  0  0
 41 49  1  0  0  0
 49 50  1  0  0  0
 50 51  1  0  0  0
 51 52  1  0  0  0
  2  3  1  0  0  0
  3  4  2  0  0  0
  4  5  1  0  0  0
  5  6  2  0  0  0
  6 10  1  0  0  0
 10 11  2  0  0  0
 11 12  1  0  0  0
 12 13  2  0  0  0
 13 16  1  0  0  0
 16 17  1  0  0  0
 17 18  1  0  0  0
 18 19  1  0  0  0
 19 20  1  0  0  0
 20 21  1  0  0  0
 21 22  1  0  0  0
 22 23  1  0  0  0
 23 24  1  0  0  0
 24 25  2  0  0  0
 24 26  1  0  0  0
 13 14  1  0  0  0
 14 15  2  0  0  0
  6  7  1  0  0  0
  7  8  1  0  0  0
  7  9  2  0  0  0
 48 39  1  0  0  0
  9  3  1  0  0  0
 52 40  1  0  0  0
 15 10  1  0  0  0
 48 43  1  0  0  0
 29 30  1  0  0  0
 37 38  1  0  0  0
M  CHG 1  24   1
M  CHG 1  26  -1
M  END
> <minimizedAffinity>
-7.51052

> <CNNscore>
0.1065614596

> <CNNaffinity>
7.0472383499

> <CNN_VS>
0.7509639859

> <CNNaffinity_variance>
1.1864367723

$$$$
[H]c1c([H])c(-c2c([H])c([H])c(C([H])(C(=O)N([H])C([H])([H])C([H])([H])C([H])([H])C([H])([H])C([H])([H])C([H])([H])N([H])c3c4c(nc5c([H])c([H])c([H])c([H])c35)C([H])([H])C([H])([H])C([H])([H])C4([H])[H])C([H])([H])[H])c([H])c2F)c([H])c([H])c1OC([H])([H])C([H])([H])C([H])([H])C([H])([H])C([H])([H])C([H])([H])O[N+](=O)[O-]


 52 56  0  0  0  0  0  0  0  0999 V2000
   30.2659   14.7820  -11.7244 C   0  0  0  0  0  0  0  0  0  0  0  0
   31.3411   15.6446  -11.0705 C   0  0  0  0  0  0  0  0  0  0  0  0
   32.6408   15.2133  -11.6207 C   0  0  0  0  0  0  0  0  0  0  0  0
   33.8014   15.6552  -11.0306 C   0  0  0  0  0  0  0  0  0  0  0  0
   35.0560   15.2913  -11.5221 C   0  0  0  0  0  0  0  0  0  0  0  0
   35.1314   14.4801  -12.6106 C   0  0  0  0  0  0  0  0  0  0  0  0
   33.9843   14.0273  -13.2152 C   0  0  0  0  0  0  0  0  0  0  0  0
   34.0418   13.2238  -14.3039 F   0  0  0  0  0  0  0  0  0  0  0  0
   32.7285   14.3977  -12.7152 C   0  0  0  0  0  0  0  0  0  0  0  0
   36.4222   14.0808  -13.1399 C   0  0  0  0  0  0  0  0  0  0  0  0
   37.3487   15.0015  -13.5755 C   0  0  0  0  0  0  0  0  0  0  0  0
   38.5882   14.5896  -14.0754 C   0  0  0  0  0  0  0  0  0  0  0  0
   38.9501   13.2670  -14.1618 C   0  0  0  0  0  0  0  0  0  0  0  0
   37.9909   12.3372  -13.7112 C   0  0  0  0  0  0  0  0  0  0  0  0
   36.7848   12.7558  -13.2253 C   0  0  0  0  0  0  0  0  0  0  0  0
   40.1391   12.7806  -14.6425 O   0  0  0  0  0  0  0  0  0  0  0  0
   40.7922   13.1563  -15.8131 C   0  0  0  0  0  0  0  0  0  0  0  0
   40.4641   12.2078  -16.9215 C   0  0  0  0  0  0  0  0  0  0  0  0
   38.9781   12.0724  -17.0776 C   0  0  0  0  0  0  0  0  0  0  0  0
   38.6442   10.9163  -17.9563 C   0  0  0  0  0  0  0  0  0  0  0  0
   37.1680   10.6173  -18.0136 C   0  0  0  0  0  0  0  0  0  0  0  0
   36.5226   11.0086  -16.7159 C   0  0  0  0  0  0  0  0  0  0  0  0
   35.2061   11.5120  -17.0042 O   0  0  0  0  0  0  0  0  0  0  0  0
   34.2032   10.5755  -17.0742 N   0  0  0  0  0  0  0  0  0  0  0  0
   33.0722   10.8403  -17.5224 O   0  0  0  0  0  0  0  0  0  0  0  0
   34.5210    9.3108  -16.6151 O   0  0  0  0  0  0  0  0  0  0  0  0
   31.2453   15.6592   -9.6123 C   0  0  0  0  0  0  0  0  0  0  0  0
   31.0491   14.5684   -8.9689 O   0  0  0  0  0  0  0  0  0  0  0  0
   31.3556   16.8183   -8.8105 N   0  0  0  0  0  0  0  0  0  0  0  0
   31.5163   17.7283   -9.2890 H   0  0  0  0  0  0  0  0  0  0  0  0
   31.2634   16.8156   -7.3759 C   0  0  0  0  0  0  0  0  0  0  0  0
   31.3096   18.2071   -6.7920 C   0  0  0  0  0  0  0  0  0  0  0  0
   32.2696   18.2406   -5.6193 C   0  0  0  0  0  0  0  0  0  0  0  0
   32.9283   19.6213   -5.6290 C   0  0  0  0  0  0  0  0  0  0  0  0
   33.8420   19.7742   -6.7844 C   0  0  0  0  0  0  0  0  0  0  0  0
   34.9852   18.8517   -6.8279 C   0  0  0  0  0  0  0  0  0  0  0  0
   34.9296   17.7400   -7.6783 N   0  0  0  0  0  0  0  0  0  0  0  0
   34.1264   17.7553   -8.4130 H   0  0  0  0  0  0  0  0  0  0  0  0
   35.7129   16.5885   -7.7768 C   0  0  0  0  0  0  0  0  0  0  0  0
   36.6900   16.5089   -8.7491 C   0  0  0  0  0  0  0  0  0  0  0  0
   37.4922   15.3937   -8.8145 C   0  0  0  0  0  0  0  0  0  0  0  0
   37.3089   14.3849   -7.9155 N   0  0  0  0  0  0  0  0  0  0  0  0
   36.3725   14.4236   -6.9560 C   0  0  0  0  0  0  0  0  0  0  0  0
   36.2099   13.3951   -6.0590 C   0  0  0  0  0  0  0  0  0  0  0  0
   35.2543   13.4503   -5.0843 C   0  0  0  0  0  0  0  0  0  0  0  0
   34.4502   14.5692   -5.0199 C   0  0  0  0  0  0  0  0  0  0  0  0
   34.5920   15.6032   -5.8991 C   0  0  0  0  0  0  0  0  0  0  0  0
   35.5639   15.5384   -6.8844 C   0  0  0  0  0  0  0  0  0  0  0  0
   38.5228   15.3012   -9.8540 C   0  0  0  0  0  0  0  0  0  0  0  0
   39.0942   16.5957  -10.3174 C   0  0  0  0  0  0  0  0  0  0  0  0
   38.4369   17.8198   -9.7434 C   0  0  0  0  0  0  0  0  0  0  0  0
   36.9224   17.5965   -9.7303 C   0  0  0  0  0  0  0  0  0  0  0  0
  1  2  1  0  0  0
  2 27  1  0  0  0
 27 28  2  0  0  0
 27 29  1  0  0  0
 29 31  1  0  0  0
 31 32  1  0  0  0
 32 33  1  0  0  0
 33 34  1  0  0  0
 34 35  1  0  0  0
 35 36  1  0  0  0
 36 37  1  0  0  0
 37 39  1  0  0  0
 39 40  2  0  0  0
 40 41  1  0  0  0
 41 42  2  0  0  0
 42 43  1  0  0  0
 43 44  2  0  0  0
 44 45  1  0  0  0
 45 46  2  0  0  0
 46 47  1  0  0  0
 47 48  2  0  0  0
 41 49  1  0  0  0
 49 50  1  0  0  0
 50 51  1  0  0  0
 51 52  1  0  0  0
  2  3  1  0  0  0
  3  4  2  0  0  0
  4  5  1  0  0  0
  5  6  2  0  0  0
  6 10  1  0  0  0
 10 11  2  0  0  0
 11 12  1  0  0  0
 12 13  2  0  0  0
 13 16  1  0  0  0
 16 17  1  0  0  0
 17 18  1  0  0  0
 18 19  1  0  0  0
 19 20  1  0  0  0
 20 21  1  0  0  0
 21 22  1  0  0  0
 22 23  1  0  0  0
 23 24  1  0  0  0
 24 25  2  0  0  0
 24 26  1  0  0  0
 13 14  1  0  0  0
 14 15  2  0  0  0
  6  7  1  0  0  0
  7  8  1  0  0  0
  7  9  2  0  0  0
 48 39  1  0  0  0
  9  3  1  0  0  0
 52 40  1  0  0  0
 15 10  1  0  0  0
 48 43  1  0  0  0
 29 30  1  0  0  0
 37 38  1  0  0  0
M  CHG 1  24   1
M  CHG 1  26  -1
M  END
> <minimizedAffinity>
-8.07356

> <CNNscore>
0.1037338749

> <CNNaffinity>
7.3748297691

> <CNN_VS>
0.7650196552

> <CNNaffinity_variance>
0.9783971906

$$$$
[H]c1c([H])c(-c2c([H])c([H])c(C([H])(C(=O)N([H])C([H])([H])C([H])([H])C([H])([H])C([H])([H])C([H])([H])C([H])([H])N([H])c3c4c(nc5c([H])c([H])c([H])c([H])c35)C([H])([H])C([H])([H])C([H])([H])C4([H])[H])C([H])([H])[H])c([H])c2F)c([H])c([H])c1OC([H])([H])C([H])([H])C([H])([H])C([H])([H])C([H])([H])C([H])([H])O[N+](=O)[O-]


 52 56  0  0  0  0  0  0  0  0999 V2000
   37.9325   18.8737   -9.3375 C   0  0  0  0  0  0  0  0  0  0  0  0
   38.1571   17.4294   -8.9001 C   0  0  0  0  0  0  0  0  0  0  0  0
   37.6036   16.5621   -9.9580 C   0  0  0  0  0  0  0  0  0  0  0  0
   38.3991   15.5886  -10.5148 C   0  0  0  0  0  0  0  0  0  0  0  0
   37.9302   14.7535  -11.5302 C   0  0  0  0  0  0  0  0  0  0  0  0
   36.6560   14.9070  -11.9788 C   0  0  0  0  0  0  0  0  0  0  0  0
   35.8445   15.8733  -11.4363 C   0  0  0  0  0  0  0  0  0  0  0  0
   34.5749   16.0435  -11.8760 F   0  0  0  0  0  0  0  0  0  0  0  0
   36.3234   16.7076  -10.4171 C   0  0  0  0  0  0  0  0  0  0  0  0
   36.1398   14.0493  -13.0294 C   0  0  0  0  0  0  0  0  0  0  0  0
   36.2485   14.3808  -14.3613 C   0  0  0  0  0  0  0  0  0  0  0  0
   35.7478   13.5326  -15.3542 C   0  0  0  0  0  0  0  0  0  0  0  0
   35.1281   12.3404  -15.0673 C   0  0  0  0  0  0  0  0  0  0  0  0
   35.0255   12.0154  -13.6992 C   0  0  0  0  0  0  0  0  0  0  0  0
   35.5201   12.8545  -12.7415 C   0  0  0  0  0  0  0  0  0  0  0  0
   34.6068   11.4569  -15.9777 O   0  0  0  0  0  0  0  0  0  0  0  0
   35.3006   10.5105  -16.7269 C   0  0  0  0  0  0  0  0  0  0  0  0
   36.2589   11.1819  -17.6579 C   0  0  0  0  0  0  0  0  0  0  0  0
   37.6467   10.6462  -17.4633 C   0  0  0  0  0  0  0  0  0  0  0  0
   38.4749   11.6031  -16.6769 C   0  0  0  0  0  0  0  0  0  0  0  0
   39.7175   12.0526  -17.4023 C   0  0  0  0  0  0  0  0  0  0  0  0
   40.6864   12.6486  -16.4228 C   0  0  0  0  0  0  0  0  0  0  0  0
   39.9620   12.9912  -15.2280 O   0  0  0  0  0  0  0  0  0  0  0  0
   40.4893   14.0110  -14.4733 N   0  0  0  0  0  0  0  0  0  0  0  0
   41.5710   13.9025  -13.8665 O   0  0  0  0  0  0  0  0  0  0  0  0
   39.7463   15.1757  -14.4235 O   0  0  0  0  0  0  0  0  0  0  0  0
   37.6707   17.1658   -7.5475 C   0  0  0  0  0  0  0  0  0  0  0  0
   38.0216   17.9262   -6.5774 O   0  0  0  0  0  0  0  0  0  0  0  0
   36.8087   16.1021   -7.1957 N   0  0  0  0  0  0  0  0  0  0  0  0
   36.4961   15.4581   -7.9509 H   0  0  0  0  0  0  0  0  0  0  0  0
   36.3353   15.8585   -5.8603 C   0  0  0  0  0  0  0  0  0  0  0  0
   36.0481   14.3981   -5.6071 C   0  0  0  0  0  0  0  0  0  0  0  0
   35.3500   14.2358   -4.2714 C   0  0  0  0  0  0  0  0  0  0  0  0
   33.9070   14.7042   -4.4691 C   0  0  0  0  0  0  0  0  0  0  0  0
   33.3002   14.0868   -5.6706 C   0  0  0  0  0  0  0  0  0  0  0  0
   32.3940   14.9444   -6.4473 C   0  0  0  0  0  0  0  0  0  0  0  0
   31.1588   15.3054   -5.8939 N   0  0  0  0  0  0  0  0  0  0  0  0
   31.0741   15.1714   -4.8169 H   0  0  0  0  0  0  0  0  0  0  0  0
   29.9862   15.8129   -6.4565 C   0  0  0  0  0  0  0  0  0  0  0  0
   29.7544   17.1739   -6.4393 C   0  0  0  0  0  0  0  0  0  0  0  0
   28.6217   17.6764   -7.0357 C   0  0  0  0  0  0  0  0  0  0  0  0
   27.7463   16.8201   -7.6358 N   0  0  0  0  0  0  0  0  0  0  0  0
   27.9348   15.4928   -7.6752 C   0  0  0  0  0  0  0  0  0  0  0  0
   27.0392   14.6508   -8.2896 C   0  0  0  0  0  0  0  0  0  0  0  0
   27.2464   13.3009   -8.3253 C   0  0  0  0  0  0  0  0  0  0  0  0
   28.3827   12.7981   -7.7265 C   0  0  0  0  0  0  0  0  0  0  0  0
   29.2868   13.6136   -7.1100 C   0  0  0  0  0  0  0  0  0  0  0  0
   29.0681   14.9814   -7.0788 C   0  0  0  0  0  0  0  0  0  0  0  0
   28.3670   19.1206   -7.0082 C   0  0  0  0  0  0  0  0  0  0  0  0
   29.5743   19.9911   -6.9665 C   0  0  0  0  0  0  0  0  0  0  0  0
   30.8793   19.2580   -6.8269 C   0  0  0  0  0  0  0  0  0  0  0  0
   30.6958   18.1303   -5.8078 C   0  0  0  0  0  0  0  0  0  0  0  0
  1  2  1  0  0  0
  2 27  1  0  0  0
 27 28  2  0  0  0
 27 29  1  0  0  0
 29 31  1  0  0  0
 31 32  1  0  0  0
 32 33  1  0  0  0
 33 34  1  0  0  0
 34 35  1  0  0  0
 35 36  1  0  0  0
 36 37  1  0  0  0
 37 39  1  0  0  0
 39 40  2  0  0  0
 40 41  1  0  0  0
 41 42  2  0  0  0
 42 43  1  0  0  0
 43 44  2  0  0  0
 44 45  1  0  0  0
 45 46  2  0  0  0
 46 47  1  0  0  0
 47 48  2  0  0  0
 41 49  1  0  0  0
 49 50  1  0  0  0
 50 51  1  0  0  0
 51 52  1  0  0  0
  2  3  1  0  0  0
  3  4  2  0  0  0
  4  5  1  0  0  0
  5  6  2  0  0  0
  6 10  1  0  0  0
 10 11  2  0  0  0
 11 12  1  0  0  0
 12 13  2  0  0  0
 13 16  1  0  0  0
 16 17  1  0  0  0
 17 18  1  0  0  0
 18 19  1  0  0  0
 19 20  1  0  0  0
 20 21  1  0  0  0
 21 22  1  0  0  0
 22 23  1  0  0  0
 23 24  1  0  0  0
 24 25  2  0  0  0
 24 26  1  0  0  0
 13 14  1  0  0  0
 14 15  2  0  0  0
  6  7  1  0  0  0
  7  8  1  0  0  0
  7  9  2  0  0  0
 48 39  1  0  0  0
  9  3  1  0  0  0
 52 40  1  0  0  0
 15 10  1  0  0  0
 48 43  1  0  0  0
 29 30  1  0  0  0
 37 38  1  0  0  0
M  CHG 1  24   1
M  CHG 1  26  -1
M  END
> <minimizedAffinity>
-8.68721

> <CNNscore>
0.1028363034

> <CNNaffinity>
6.6833600998

> <CNN_VS>
0.6872920394

> <CNNaffinity_variance>
1.3523957729

$$$$
[H]OC(=O)[C@@]([H])(N([H])[H])C([H])([H])OP(=O)(O[H])O[C@]1([H])C([H])([H])C([H])([H])C([H])([H])O[C@]1([H])C([H])([H])OC(=O)C([H])([H])C([H])([H])c1c([H])c([H])c([H])c([H])c1OC([H])([H])c1c([H])c([H])c([H])c(Oc2c([H])c([H])c(C([H])([H])[H])c([H])c2[H])c1[H]


 49 52  0  0  0  0  0  0  0  0999 V2000
   38.7353   15.5510  -12.0782 C   0  0  0  0  0  0  0  0  0  0  0  0
   39.7784   16.2234  -12.1255 O   0  0  0  0  0  0  0  0  0  0  0  0
   37.8159   15.8583  -11.0471 O   0  0  0  0  0  0  0  0  0  0  0  0
   38.1411   16.2300   -9.7810 C   0  0  0  0  0  0  0  0  0  0  0  0
   39.2874   15.5594   -9.0861 C   0  0  0  0  0  0  0  0  0  0  0  0
   40.1803   16.4323   -8.5229 O   0  0  0  0  0  0  0  0  0  0  0  0
   40.7752   16.0296   -7.3534 C   0  0  0  0  0  0  0  0  0  0  0  0
   41.0603   14.5659   -7.2384 C   0  0  0  0  0  0  0  0  0  0  0  0
   39.9603   13.6820   -7.7088 C   0  0  0  0  0  0  0  0  0  0  0  0
   38.7610   14.5431   -8.0645 C   0  0  0  0  0  0  0  0  0  0  0  0
   38.1635   15.1025   -6.9746 O   0  0  0  0  0  0  0  0  0  0  0  0
   37.3722   14.0511   -5.9503 P   0  0  0  0  0  0  0  0  0  0  0  0
   37.0497   12.7206   -6.5454 O   0  0  0  0  0  0  0  0  0  0  0  0
   38.3002   13.7358   -4.5455 O   0  0  0  0  0  0  0  0  0  0  0  0
   38.0886   14.3963   -3.8683 H   0  0  0  0  0  0  0  0  0  0  0  0
   35.9630   14.8410   -5.4049 O   0  0  0  0  0  0  0  0  0  0  0  0
   34.8060   14.1453   -5.7452 C   0  0  0  0  0  0  0  0  0  0  0  0
   33.6814   14.7850   -4.9458 C   0  0  0  0  0  0  0  0  0  0  0  0
   33.8631   14.4427   -3.5634 N   0  0  0  0  0  0  0  0  0  0  0  0
   34.5364   15.0419   -3.0811 H   0  0  0  0  0  0  0  0  0  0  0  0
   32.9951   14.2281   -3.0557 H   0  0  0  0  0  0  0  0  0  0  0  0
   32.3455   14.4848   -5.4689 C   0  0  0  0  0  0  0  0  0  0  0  0
   31.6517   15.3638   -6.0245 O   0  0  0  0  0  0  0  0  0  0  0  0
   31.8241   13.2104   -5.3549 O   0  0  0  0  0  0  0  0  0  0  0  0
   32.1443   12.3894   -5.8113 H   0  0  0  0  0  0  0  0  0  0  0  0
   38.4101   14.4728  -13.0059 C   0  0  0  0  0  0  0  0  0  0  0  0
   37.4665   13.4174  -12.6013 C   0  0  0  0  0  0  0  0  0  0  0  0
   35.7434   12.6276  -14.2760 C   0  0  0  0  0  0  0  0  0  0  0  0
   34.4369   12.6370  -14.6828 C   0  0  0  0  0  0  0  0  0  0  0  0
   33.4624   13.4443  -14.0817 C   0  0  0  0  0  0  0  0  0  0  0  0
   33.8587   14.2512  -13.0427 C   0  0  0  0  0  0  0  0  0  0  0  0
   35.1590   14.2585  -12.6144 C   0  0  0  0  0  0  0  0  0  0  0  0
   36.1110   13.4549  -13.2154 C   0  0  0  0  0  0  0  0  0  0  0  0
   36.6680   11.8507  -14.8825 O   0  0  0  0  0  0  0  0  0  0  0  0
   36.8446   11.4201  -16.1688 C   0  0  0  0  0  0  0  0  0  0  0  0
   40.3262   12.7604  -16.8375 C   0  0  0  0  0  0  0  0  0  0  0  0
   40.7908   11.9141  -17.8475 C   0  0  0  0  0  0  0  0  0  0  0  0
   39.9251   10.9340  -18.2676 C   0  0  0  0  0  0  0  0  0  0  0  0
   38.6688   10.7859  -17.7293 C   0  0  0  0  0  0  0  0  0  0  0  0
   38.2314   11.6380  -16.7271 C   0  0  0  0  0  0  0  0  0  0  0  0
   39.0734   12.6190  -16.2942 C   0  0  0  0  0  0  0  0  0  0  0  0
   41.2074   13.7470  -16.4269 O   0  0  0  0  0  0  0  0  0  0  0  0
   45.2107   13.1059  -12.5536 C   0  0  0  0  0  0  0  0  0  0  0  0
   44.1519   13.2793  -13.5676 C   0  0  0  0  0  0  0  0  0  0  0  0
   42.8567   13.5848  -13.1716 C   0  0  0  0  0  0  0  0  0  0  0  0
   41.8829   13.7387  -14.1551 C   0  0  0  0  0  0  0  0  0  0  0  0
   42.1717   13.5958  -15.4874 C   0  0  0  0  0  0  0  0  0  0  0  0
   43.4808   13.2890  -15.8585 C   0  0  0  0  0  0  0  0  0  0  0  0
   44.4680   13.1304  -14.9159 C   0  0  0  0  0  0  0  0  0  0  0  0
 43 44  1  0  0  0
 44 45  2  0  0  0
 45 46  1  0  0  0
 46 47  2  0  0  0
 47 42  1  0  0  0
 42 36  1  0  0  0
 36 37  2  0  0  0
 37 38  1  0  0  0
 38 39  2  0  0  0
 39 40  1  0  0  0
 40 35  1  0  0  0
 35 34  1  0  0  0
 34 28  1  0  0  0
 28 29  2  0  0  0
 29 30  1  0  0  0
 30 31  2  0  0  0
 31 32  1  0  0  0
 32 33  2  0  0  0
 33 27  1  0  0  0
 27 26  1  0  0  0
 26  1  1  0  0  0
  1  2  2  0  0  0
  1  3  1  0  0  0
  3  4  1  0  0  0
  4  5  1  0  0  0
  5  6  1  0  0  0
  6  7  1  0  0  0
  7  8  1  0  0  0
  8  9  1  0  0  0
  9 10  1  0  0  0
 10 11  1  0  0  0
 11 12  1  0  0  0
 12 13  2  0  0  0
 12 14  1  0  0  0
 12 16  1  0  0  0
 16 17  1  0  0  0
 17 18  1  0  0  0
 18 19  1  0  0  0
 18 22  1  0  0  0
 22 23  2  0  0  0
 22 24  1  0  0  0
 40 41  2  0  0  0
 47 48  1  0  0  0
 48 49  2  0  0  0
 49 44  1  0  0  0
 41 36  1  0  0  0
 33 28  1  0  0  0
 10  5  1  0  0  0
 14 15  1  0  0  0
 19 20  1  0  0  0
 19 21  1  0  0  0
 24 25  1  0  0  0
M  END
> <minimizedAffinity>
-8.95574

> <CNNscore>
0.5128089190

> <CNNaffinity>
6.8426694870

> <CNN_VS>
3.5089819431

> <CNNaffinity_variance>
0.1220315695

$$$$
[H]OC(=O)[C@@]([H])(N([H])[H])C([H])([H])OP(=O)(O[H])O[C@]1([H])C([H])([H])C([H])([H])C([H])([H])O[C@]1([H])C([H])([H])OC(=O)C([H])([H])C([H])([H])c1c([H])c([H])c([H])c([H])c1OC([H])([H])c1c([H])c([H])c([H])c(Oc2c([H])c([H])c(C([H])([H])[H])c([H])c2[H])c1[H]


 49 52  0  0  0  0  0  0  0  0999 V2000
   36.3333   14.4827  -11.7042 C   0  0  0  0  0  0  0  0  0  0  0  0
   36.3455   13.2424  -11.6415 O   0  0  0  0  0  0  0  0  0  0  0  0
   35.1711   15.1409  -11.2362 O   0  0  0  0  0  0  0  0  0  0  0  0
   35.1510   16.2548  -10.4580 C   0  0  0  0  0  0  0  0  0  0  0  0
   35.3670   16.1272   -8.9803 C   0  0  0  0  0  0  0  0  0  0  0  0
   35.8317   17.2715   -8.3880 O   0  0  0  0  0  0  0  0  0  0  0  0
   35.3987   17.5181   -7.1091 C   0  0  0  0  0  0  0  0  0  0  0  0
   35.2015   16.3134   -6.2449 C   0  0  0  0  0  0  0  0  0  0  0  0
   34.5244   15.1727   -6.9179 C   0  0  0  0  0  0  0  0  0  0  0  0
   34.0892   15.6132   -8.3046 C   0  0  0  0  0  0  0  0  0  0  0  0
   33.0663   16.5138   -8.2820 O   0  0  0  0  0  0  0  0  0  0  0  0
   31.5969   15.9708   -8.8535 P   0  0  0  0  0  0  0  0  0  0  0  0
   30.4193   16.7812   -8.4234 O   0  0  0  0  0  0  0  0  0  0  0  0
   31.5653   15.9506  -10.5660 O   0  0  0  0  0  0  0  0  0  0  0  0
   31.8911   15.0936  -10.8812 H   0  0  0  0  0  0  0  0  0  0  0  0
   31.4361   14.3438   -8.3696 O   0  0  0  0  0  0  0  0  0  0  0  0
   30.2063   13.8053   -8.7386 C   0  0  0  0  0  0  0  0  0  0  0  0
   29.5880   13.2576   -7.4615 C   0  0  0  0  0  0  0  0  0  0  0  0
   28.9795   14.3487   -6.7543 N   0  0  0  0  0  0  0  0  0  0  0  0
   28.0454   14.5845   -7.0962 H   0  0  0  0  0  0  0  0  0  0  0  0
   29.0998   14.3203   -5.7336 H   0  0  0  0  0  0  0  0  0  0  0  0
   30.5174   12.4618   -6.6544 C   0  0  0  0  0  0  0  0  0  0  0  0
   30.5079   11.2124   -6.6940 O   0  0  0  0  0  0  0  0  0  0  0  0
   31.4298   13.0864   -5.8260 O   0  0  0  0  0  0  0  0  0  0  0  0
   32.2053   13.6417   -6.1002 H   0  0  0  0  0  0  0  0  0  0  0  0
   37.4286   15.2894  -12.2318 C   0  0  0  0  0  0  0  0  0  0  0  0
   38.3506   14.7136  -13.2250 C   0  0  0  0  0  0  0  0  0  0  0  0
   40.7875   14.3603  -13.8035 C   0  0  0  0  0  0  0  0  0  0  0  0
   42.0872   14.7473  -13.6210 C   0  0  0  0  0  0  0  0  0  0  0  0
   42.4658   15.7067  -12.6729 C   0  0  0  0  0  0  0  0  0  0  0  0
   41.4733   16.2683  -11.9065 C   0  0  0  0  0  0  0  0  0  0  0  0
   40.1648   15.9009  -12.0711 C   0  0  0  0  0  0  0  0  0  0  0  0
   39.8043   14.9537  -13.0125 C   0  0  0  0  0  0  0  0  0  0  0  0
   40.4497   13.4212  -14.7147 O   0  0  0  0  0  0  0  0  0  0  0  0
   41.0429   12.9541  -15.8555 C   0  0  0  0  0  0  0  0  0  0  0  0
   38.0529   11.1818  -17.3667 C   0  0  0  0  0  0  0  0  0  0  0  0
   38.5170   10.8276  -18.6361 C   0  0  0  0  0  0  0  0  0  0  0  0
   39.8074   11.1897  -18.9363 C   0  0  0  0  0  0  0  0  0  0  0  0
   40.6059   11.8643  -18.0432 C   0  0  0  0  0  0  0  0  0  0  0  0
   40.1216   12.2054  -16.7899 C   0  0  0  0  0  0  0  0  0  0  0  0
   38.8434   11.8560  -16.4693 C   0  0  0  0  0  0  0  0  0  0  0  0
   36.7518   10.8063  -17.0756 O   0  0  0  0  0  0  0  0  0  0  0  0
   33.2335   13.6559  -13.7678 C   0  0  0  0  0  0  0  0  0  0  0  0
   34.1531   12.9012  -14.6420 C   0  0  0  0  0  0  0  0  0  0  0  0
   33.7628   11.6753  -15.1642 C   0  0  0  0  0  0  0  0  0  0  0  0
   34.6567   10.9898  -15.9829 C   0  0  0  0  0  0  0  0  0  0  0  0
   35.8971   11.4922  -16.2792 C   0  0  0  0  0  0  0  0  0  0  0  0
   36.2645   12.7259  -15.7419 C   0  0  0  0  0  0  0  0  0  0  0  0
   35.4084   13.4311  -14.9306 C   0  0  0  0  0  0  0  0  0  0  0  0
 43 44  1  0  0  0
 44 45  2  0  0  0
 45 46  1  0  0  0
 46 47  2  0  0  0
 47 42  1  0  0  0
 42 36  1  0  0  0
 36 37  2  0  0  0
 37 38  1  0  0  0
 38 39  2  0  0  0
 39 40  1  0  0  0
 40 35  1  0  0  0
 35 34  1  0  0  0
 34 28  1  0  0  0
 28 29  2  0  0  0
 29 30  1  0  0  0
 30 31  2  0  0  0
 31 32  1  0  0  0
 32 33  2  0  0  0
 33 27  1  0  0  0
 27 26  1  0  0  0
 26  1  1  0  0  0
  1  2  2  0  0  0
  1  3  1  0  0  0
  3  4  1  0  0  0
  4  5  1  0  0  0
  5  6  1  0  0  0
  6  7  1  0  0  0
  7  8  1  0  0  0
  8  9  1  0  0  0
  9 10  1  0  0  0
 10 11  1  0  0  0
 11 12  1  0  0  0
 12 13  2  0  0  0
 12 14  1  0  0  0
 12 16  1  0  0  0
 16 17  1  0  0  0
 17 18  1  0  0  0
 18 19  1  0  0  0
 18 22  1  0  0  0
 22 23  2  0  0  0
 22 24  1  0  0  0
 40 41  2  0  0  0
 47 48  1  0  0  0
 48 49  2  0  0  0
 49 44  1  0  0  0
 41 36  1  0  0  0
 33 28  1  0  0  0
 10  5  1  0  0  0
 14 15  1  0  0  0
 19 20  1  0  0  0
 19 21  1  0  0  0
 24 25  1  0  0  0
M  END
> <minimizedAffinity>
-9.21631

> <CNNscore>
0.4525764287

> <CNNaffinity>
6.9237108231

> <CNN_VS>
3.1335082054

> <CNNaffinity_variance>
0.1269895881

$$$$
[H]OC(=O)[C@@]([H])(N([H])[H])C([H])([H])OP(=O)(O[H])O[C@]1([H])C([H])([H])C([H])([H])C([H])([H])O[C@]1([H])C([H])([H])OC(=O)C([H])([H])C([H])([H])c1c([H])c([H])c([H])c([H])c1OC([H])([H])c1c([H])c([H])c([H])c(Oc2c([H])c([H])c(C([H])([H])[H])c([H])c2[H])c1[H]


 49 52  0  0  0  0  0  0  0  0999 V2000
   36.0244   12.6774  -12.7558 C   0  0  0  0  0  0  0  0  0  0  0  0
   34.8958   12.4601  -13.2263 O   0  0  0  0  0  0  0  0  0  0  0  0
   36.0855   13.3207  -11.4968 O   0  0  0  0  0  0  0  0  0  0  0  0
   36.8015   14.4406  -11.2136 C   0  0  0  0  0  0  0  0  0  0  0  0
   36.1935   15.5081  -10.3551 C   0  0  0  0  0  0  0  0  0  0  0  0
   34.8283   15.5783  -10.4428 O   0  0  0  0  0  0  0  0  0  0  0  0
   34.1584   15.9284   -9.2972 C   0  0  0  0  0  0  0  0  0  0  0  0
   34.8541   16.9126   -8.4114 C   0  0  0  0  0  0  0  0  0  0  0  0
   36.3077   16.6582   -8.2246 C   0  0  0  0  0  0  0  0  0  0  0  0
   36.6646   15.3476   -8.9039 C   0  0  0  0  0  0  0  0  0  0  0  0
   36.1511   14.2584   -8.2655 O   0  0  0  0  0  0  0  0  0  0  0  0
   36.8355   13.8799   -6.7927 P   0  0  0  0  0  0  0  0  0  0  0  0
   37.1117   12.4277   -6.5849 O   0  0  0  0  0  0  0  0  0  0  0  0
   38.3303   14.6880   -6.5762 O   0  0  0  0  0  0  0  0  0  0  0  0
   38.1698   15.5518   -6.1665 H   0  0  0  0  0  0  0  0  0  0  0  0
   35.8012   14.4907   -5.5826 O   0  0  0  0  0  0  0  0  0  0  0  0
   35.7468   13.6572   -4.4686 C   0  0  0  0  0  0  0  0  0  0  0  0
   35.1472   14.4929   -3.3483 C   0  0  0  0  0  0  0  0  0  0  0  0
   35.1570   13.7061   -2.1475 N   0  0  0  0  0  0  0  0  0  0  0  0
   36.0568   13.7153   -1.6625 H   0  0  0  0  0  0  0  0  0  0  0  0
   34.3191   13.8069   -1.5602 H   0  0  0  0  0  0  0  0  0  0  0  0
   33.8401   15.0673   -3.6800 C   0  0  0  0  0  0  0  0  0  0  0  0
   33.4959   16.1907   -3.2532 O   0  0  0  0  0  0  0  0  0  0  0  0
   32.9556   14.3682   -4.4788 O   0  0  0  0  0  0  0  0  0  0  0  0
   33.0609   14.1518   -5.4416 H   0  0  0  0  0  0  0  0  0  0  0  0
   37.2738   12.3200  -13.4194 C   0  0  0  0  0  0  0  0  0  0  0  0
   37.6663   13.0062  -14.6615 C   0  0  0  0  0  0  0  0  0  0  0  0
   38.8270   11.7391  -16.5176 C   0  0  0  0  0  0  0  0  0  0  0  0
   38.7141   10.8873  -17.5826 C   0  0  0  0  0  0  0  0  0  0  0  0
   37.4771   10.4630  -18.0853 C   0  0  0  0  0  0  0  0  0  0  0  0
   36.3447   10.9350  -17.4669 C   0  0  0  0  0  0  0  0  0  0  0  0
   36.4299   11.7857  -16.3977 C   0  0  0  0  0  0  0  0  0  0  0  0
   37.6578   12.1954  -15.9099 C   0  0  0  0  0  0  0  0  0  0  0  0
   40.0321   12.1457  -16.0609 O   0  0  0  0  0  0  0  0  0  0  0  0
   40.8439   13.2079  -16.3510 C   0  0  0  0  0  0  0  0  0  0  0  0
   44.3365   13.3456  -14.8853 C   0  0  0  0  0  0  0  0  0  0  0  0
   45.0387   12.4386  -15.6831 C   0  0  0  0  0  0  0  0  0  0  0  0
   44.3223   11.8207  -16.6787 C   0  0  0  0  0  0  0  0  0  0  0  0
   42.9870   12.0741  -16.8862 C   0  0  0  0  0  0  0  0  0  0  0  0
   42.3123   12.9778  -16.0801 C   0  0  0  0  0  0  0  0  0  0  0  0
   43.0030   13.6039  -15.0853 C   0  0  0  0  0  0  0  0  0  0  0  0
   45.0721   13.9649  -13.8885 O   0  0  0  0  0  0  0  0  0  0  0  0
   42.9682   16.2103   -9.2011 C   0  0  0  0  0  0  0  0  0  0  0  0
   43.5180   15.6117  -10.4334 C   0  0  0  0  0  0  0  0  0  0  0  0
   43.6050   14.2312  -10.5538 C   0  0  0  0  0  0  0  0  0  0  0  0
   44.1314   13.7012  -11.7292 C   0  0  0  0  0  0  0  0  0  0  0  0
   44.5605   14.5025  -12.7551 C   0  0  0  0  0  0  0  0  0  0  0  0
   44.4619   15.8862  -12.6088 C   0  0  0  0  0  0  0  0  0  0  0  0
   43.9473   16.4449  -11.4637 C   0  0  0  0  0  0  0  0  0  0  0  0
 43 44  1  0  0  0
 44 45  2  0  0  0
 45 46  1  0  0  0
 46 47  2  0  0  0
 47 42  1  0  0  0
 42 36  1  0  0  0
 36 37  2  0  0  0
 37 38  1  0  0  0
 38 39  2  0  0  0
 39 40  1  0  0  0
 40 35  1  0  0  0
 35 34  1  0  0  0
 34 28  1  0  0  0
 28 29  2  0  0  0
 29 30  1  0  0  0
 30 31  2  0  0  0
 31 32  1  0  0  0
 32 33  2  0  0  0
 33 27  1  0  0  0
 27 26  1  0  0  0
 26  1  1  0  0  0
  1  2  2  0  0  0
  1  3  1  0  0  0
  3  4  1  0  0  0
  4  5  1  0  0  0
  5  6  1  0  0  0
  6  7  1  0  0  0
  7  8  1  0  0  0
  8  9  1  0  0  0
  9 10  1  0  0  0
 10 11  1  0  0  0
 11 12  1  0  0  0
 12 13  2  0  0  0
 12 14  1  0  0  0
 12 16  1  0  0  0
 16 17  1  0  0  0
 17 18  1  0  0  0
 18 19  1  0  0  0
 18 22  1  0  0  0
 22 23  2  0  0  0
 22 24  1  0  0  0
 40 41  2  0  0  0
 47 48  1  0  0  0
 48 49  2  0  0  0
 49 44  1  0  0  0
 41 36  1  0  0  0
 33 28  1  0  0  0
 10  5  1  0  0  0
 14 15  1  0  0  0
 19 20  1  0  0  0
 19 21  1  0  0  0
 24 25  1  0  0  0
M  END
> <minimizedAffinity>
-9.12447

> <CNNscore>
0.4269395769

> <CNNaffinity>
6.5290641785

> <CNN_VS>
2.7875158787

> <CNNaffinity_variance>
0.1944230497

$$$$
[H]OC(=O)[C@@]([H])(N([H])[H])C([H])([H])OP(=O)(O[H])O[C@]1([H])C([H])([H])C([H])([H])C([H])([H])O[C@]1([H])C([H])([H])OC(=O)C([H])([H])C([H])([H])c1c([H])c([H])c([H])c([H])c1OC([H])([H])c1c([H])c([H])c([H])c(Oc2c([H])c([H])c(C([H])([H])[H])c([H])c2[H])c1[H]


 49 52  0  0  0  0  0  0  0  0999 V2000
   36.2393   15.6634  -11.5470 C   0  0  0  0  0  0  0  0  0  0  0  0
   36.1446   16.7877  -12.0660 O   0  0  0  0  0  0  0  0  0  0  0  0
   35.2989   15.3358  -10.5415 O   0  0  0  0  0  0  0  0  0  0  0  0
   35.4092   15.6456   -9.2229 C   0  0  0  0  0  0  0  0  0  0  0  0
   36.6639   16.2923   -8.7189 C   0  0  0  0  0  0  0  0  0  0  0  0
   36.4709   17.5454   -8.2003 O   0  0  0  0  0  0  0  0  0  0  0  0
   37.2696   17.8996   -7.1419 C   0  0  0  0  0  0  0  0  0  0  0  0
   38.6649   17.3617   -7.1707 C   0  0  0  0  0  0  0  0  0  0  0  0
   38.7699   15.9338   -7.5740 C   0  0  0  0  0  0  0  0  0  0  0  0
   37.3697   15.3645   -7.7216 C   0  0  0  0  0  0  0  0  0  0  0  0
   36.7217   15.2255   -6.5305 O   0  0  0  0  0  0  0  0  0  0  0  0
   36.8812   13.7471   -5.7758 P   0  0  0  0  0  0  0  0  0  0  0  0
   37.2217   12.6132   -6.6850 O   0  0  0  0  0  0  0  0  0  0  0  0
   38.1080   13.7886   -4.5810 O   0  0  0  0  0  0  0  0  0  0  0  0
   37.7214   14.0655   -3.7362 H   0  0  0  0  0  0  0  0  0  0  0  0
   35.4281   13.4492   -4.9351 O   0  0  0  0  0  0  0  0  0  0  0  0
   35.4032   14.0747   -3.6914 C   0  0  0  0  0  0  0  0  0  0  0  0
   34.2026   15.0079   -3.7152 C   0  0  0  0  0  0  0  0  0  0  0  0
   33.5423   14.9214   -2.4433 N   0  0  0  0  0  0  0  0  0  0  0  0
   33.9715   15.5044   -1.7217 H   0  0  0  0  0  0  0  0  0  0  0  0
   32.5152   14.9325   -2.4901 H   0  0  0  0  0  0  0  0  0  0  0  0
   33.3197   14.7987   -4.8663 C   0  0  0  0  0  0  0  0  0  0  0  0
   33.3203   15.5851   -5.8381 O   0  0  0  0  0  0  0  0  0  0  0  0
   32.4612   13.7165   -4.8969 O   0  0  0  0  0  0  0  0  0  0  0  0
   32.7087   12.7576   -4.9624 H   0  0  0  0  0  0  0  0  0  0  0  0
   37.2539   14.6770  -11.9030 C   0  0  0  0  0  0  0  0  0  0  0  0
   38.1618   14.9346  -13.0332 C   0  0  0  0  0  0  0  0  0  0  0  0
   40.6241   14.5714  -13.4836 C   0  0  0  0  0  0  0  0  0  0  0  0
   41.9162   14.9109  -13.1876 C   0  0  0  0  0  0  0  0  0  0  0  0
   42.2501   15.7802  -12.1409 C   0  0  0  0  0  0  0  0  0  0  0  0
   41.2205   16.3009  -11.3949 C   0  0  0  0  0  0  0  0  0  0  0  0
   39.9189   15.9797  -11.6720 C   0  0  0  0  0  0  0  0  0  0  0  0
   39.6028   15.1215  -12.7098 C   0  0  0  0  0  0  0  0  0  0  0  0
   40.3289   13.7184  -14.4893 O   0  0  0  0  0  0  0  0  0  0  0  0
   41.0450   13.2081  -15.5373 C   0  0  0  0  0  0  0  0  0  0  0  0
   38.2474   11.3302  -17.2727 C   0  0  0  0  0  0  0  0  0  0  0  0
   38.8574   10.8941  -18.4517 C   0  0  0  0  0  0  0  0  0  0  0  0
   40.1760   11.2396  -18.6196 C   0  0  0  0  0  0  0  0  0  0  0  0
   40.8659   11.9745  -17.6846 C   0  0  0  0  0  0  0  0  0  0  0  0
   40.2377   12.3963  -16.5230 C   0  0  0  0  0  0  0  0  0  0  0  0
   38.9289   12.0648  -16.3343 C   0  0  0  0  0  0  0  0  0  0  0  0
   36.9192   10.9707  -17.1142 O   0  0  0  0  0  0  0  0  0  0  0  0
   33.2179   13.5381  -13.7753 C   0  0  0  0  0  0  0  0  0  0  0  0
   34.1989   12.8663  -14.6503 C   0  0  0  0  0  0  0  0  0  0  0  0
   35.4604   13.4182  -14.8285 C   0  0  0  0  0  0  0  0  0  0  0  0
   36.3594   12.7589  -15.6630 C   0  0  0  0  0  0  0  0  0  0  0  0
   36.0294   11.5933  -16.3043 C   0  0  0  0  0  0  0  0  0  0  0  0
   34.7556   11.0599  -16.1082 C   0  0  0  0  0  0  0  0  0  0  0  0
   33.8425   11.6823  -15.2915 C   0  0  0  0  0  0  0  0  0  0  0  0
 43 44  1  0  0  0
 44 45  2  0  0  0
 45 46  1  0  0  0
 46 47  2  0  0  0
 47 42  1  0  0  0
 42 36  1  0  0  0
 36 37  2  0  0  0
 37 38  1  0  0  0
 38 39  2  0  0  0
 39 40  1  0  0  0
 40 35  1  0  0  0
 35 34  1  0  0  0
 34 28  1  0  0  0
 28 29  2  0  0  0
 29 30  1  0  0  0
 30 31  2  0  0  0
 31 32  1  0  0  0
 32 33  2  0  0  0
 33 27  1  0  0  0
 27 26  1  0  0  0
 26  1  1  0  0  0
  1  2  2  0  0  0
  1  3  1  0  0  0
  3  4  1  0  0  0
  4  5  1  0  0  0
  5  6  1  0  0  0
  6  7  1  0  0  0
  7  8  1  0  0  0
  8  9  1  0  0  0
  9 10  1  0  0  0
 10 11  1  0  0  0
 11 12  1  0  0  0
 12 13  2  0  0  0
 12 14  1  0  0  0
 12 16  1  0  0  0
 16 17  1  0  0  0
 17 18  1  0  0  0
 18 19  1  0  0  0
 18 22  1  0  0  0
 22 23  2  0  0  0
 22 24  1  0  0  0
 40 41  2  0  0  0
 47 48  1  0  0  0
 48 49  2  0  0  0
 49 44  1  0  0  0
 41 36  1  0  0  0
 33 28  1  0  0  0
 10  5  1  0  0  0
 14 15  1  0  0  0
 19 20  1  0  0  0
 19 21  1  0  0  0
 24 25  1  0  0  0
M  END
> <minimizedAffinity>
-9.08506

> <CNNscore>
0.4116810262

> <CNNaffinity>
6.6867113113

> <CNN_VS>
2.7527921200

> <CNNaffinity_variance>
0.3320917487

$$$$
[H]OC(=O)[C@@]([H])(N([H])[H])C([H])([H])OP(=O)(O[H])O[C@]1([H])C([H])([H])C([H])([H])C([H])([H])O[C@]1([H])C([H])([H])OC(=O)C([H])([H])C([H])([H])c1c([H])c([H])c([H])c([H])c1OC([H])([H])c1c([H])c([H])c([H])c(Oc2c([H])c([H])c(C([H])([H])[H])c([H])c2[H])c1[H]


 49 52  0  0  0  0  0  0  0  0999 V2000
   36.6622   15.3573  -11.7397 C   0  0  0  0  0  0  0  0  0  0  0  0
   36.4095   16.4943  -12.1709 O   0  0  0  0  0  0  0  0  0  0  0  0
   35.6837   14.7461  -10.9201 O   0  0  0  0  0  0  0  0  0  0  0  0
   34.6092   15.3704  -10.3699 C   0  0  0  0  0  0  0  0  0  0  0  0
   34.8170   16.3599   -9.2635 C   0  0  0  0  0  0  0  0  0  0  0  0
   33.6890   16.6137   -8.5289 O   0  0  0  0  0  0  0  0  0  0  0  0
   33.8726   16.8636   -7.1918 C   0  0  0  0  0  0  0  0  0  0  0  0
   35.1221   17.6034   -6.8335 C   0  0  0  0  0  0  0  0  0  0  0  0
   36.3417   17.1426   -7.5496 C   0  0  0  0  0  0  0  0  0  0  0  0
   35.9884   15.9187   -8.3765 C   0  0  0  0  0  0  0  0  0  0  0  0
   35.7315   14.8170   -7.6163 O   0  0  0  0  0  0  0  0  0  0  0  0
   37.0248   14.1907   -6.7701 P   0  0  0  0  0  0  0  0  0  0  0  0
   37.2071   14.7520   -5.3990 O   0  0  0  0  0  0  0  0  0  0  0  0
   36.8791   12.4948   -6.5784 O   0  0  0  0  0  0  0  0  0  0  0  0
   37.2894   12.0514   -7.3366 H   0  0  0  0  0  0  0  0  0  0  0  0
   38.4171   14.4294   -7.7249 O   0  0  0  0  0  0  0  0  0  0  0  0
   39.4599   14.9994   -6.9994 C   0  0  0  0  0  0  0  0  0  0  0  0
   40.7004   14.1882   -7.3399 C   0  0  0  0  0  0  0  0  0  0  0  0
   40.9813   14.3636   -8.7368 N   0  0  0  0  0  0  0  0  0  0  0  0
   41.4956   15.2224   -8.9435 H   0  0  0  0  0  0  0  0  0  0  0  0
   41.2954   13.5135   -9.2225 H   0  0  0  0  0  0  0  0  0  0  0  0
   40.6208   12.7880   -6.9139 C   0  0  0  0  0  0  0  0  0  0  0  0
   41.1745   11.8768   -7.5666 O   0  0  0  0  0  0  0  0  0  0  0  0
   39.9237   12.4472   -5.7707 O   0  0  0  0  0  0  0  0  0  0  0  0
   40.1596   12.6776   -4.8345 H   0  0  0  0  0  0  0  0  0  0  0  0
   37.8949   14.6282  -12.0184 C   0  0  0  0  0  0  0  0  0  0  0  0
   38.7063   14.9830  -13.1947 C   0  0  0  0  0  0  0  0  0  0  0  0
   41.0881   14.3798  -13.7954 C   0  0  0  0  0  0  0  0  0  0  0  0
   42.4226   14.6295  -13.6242 C   0  0  0  0  0  0  0  0  0  0  0  0
   42.9070   15.5427  -12.6785 C   0  0  0  0  0  0  0  0  0  0  0  0
   41.9850   16.2028  -11.9028 C   0  0  0  0  0  0  0  0  0  0  0  0
   40.6440   15.9735  -12.0560 C   0  0  0  0  0  0  0  0  0  0  0  0
   40.1789   15.0705  -12.9950 C   0  0  0  0  0  0  0  0  0  0  0  0
   40.6467   13.4825  -14.7044 O   0  0  0  0  0  0  0  0  0  0  0  0
   41.2161   12.8818  -15.7936 C   0  0  0  0  0  0  0  0  0  0  0  0
   38.1253   11.2463  -17.2556 C   0  0  0  0  0  0  0  0  0  0  0  0
   38.5388   10.9114  -18.5475 C   0  0  0  0  0  0  0  0  0  0  0  0
   39.8306   11.2402  -18.8785 C   0  0  0  0  0  0  0  0  0  0  0  0
   40.6775   11.8651  -17.9938 C   0  0  0  0  0  0  0  0  0  0  0  0
   40.2429   12.1880  -16.7176 C   0  0  0  0  0  0  0  0  0  0  0  0
   38.9643   11.8709  -16.3663 C   0  0  0  0  0  0  0  0  0  0  0  0
   36.8222   10.9048  -16.9337 O   0  0  0  0  0  0  0  0  0  0  0  0
   33.4039   13.8493  -13.6043 C   0  0  0  0  0  0  0  0  0  0  0  0
   34.3108   13.0777  -14.4770 C   0  0  0  0  0  0  0  0  0  0  0  0
   35.6124   13.5151  -14.6829 C   0  0  0  0  0  0  0  0  0  0  0  0
   36.4392   12.7638  -15.5144 C   0  0  0  0  0  0  0  0  0  0  0  0
   36.0010   11.6182  -16.1262 C   0  0  0  0  0  0  0  0  0  0  0  0
   34.6890   11.2006  -15.9025 C   0  0  0  0  0  0  0  0  0  0  0  0
   33.8447   11.9160  -15.0879 C   0  0  0  0  0  0  0  0  0  0  0  0
 43 44  1  0  0  0
 44 45  2  0  0  0
 45 46  1  0  0  0
 46 47  2  0  0  0
 47 42  1  0  0  0
 42 36  1  0  0  0
 36 37  2  0  0  0
 37 38  1  0  0  0
 38 39  2  0  0  0
 39 40  1  0  0  0
 40 35  1  0  0  0
 35 34  1  0  0  0
 34 28  1  0  0  0
 28 29  2  0  0  0
 29 30  1  0  0  0
 30 31  2  0  0  0
 31 32  1  0  0  0
 32 33  2  0  0  0
 33 27  1  0  0  0
 27 26  1  0  0  0
 26  1  1  0  0  0
  1  2  2  0  0  0
  1  3  1  0  0  0
  3  4  1  0  0  0
  4  5  1  0  0  0
  5  6  1  0  0  0
  6  7  1  0  0  0
  7  8  1  0  0  0
  8  9  1  0  0  0
  9 10  1  0  0  0
 10 11  1  0  0  0
 11 12  1  0  0  0
 12 13  2  0  0  0
 12 14  1  0  0  0
 12 16  1  0  0  0
 16 17  1  0  0  0
 17 18  1  0  0  0
 18 19  1  0  0  0
 18 22  1  0  0  0
 22 23  2  0  0  0
 22 24  1  0  0  0
 40 41  2  0  0  0
 47 48  1  0  0  0
 48 49  2  0  0  0
 49 44  1  0  0  0
 41 36  1  0  0  0
 33 28  1  0  0  0
 10  5  1  0  0  0
 14 15  1  0  0  0
 19 20  1  0  0  0
 19 21  1  0  0  0
 24 25  1  0  0  0
M  END
> <minimizedAffinity>
-8.58287

> <CNNscore>
0.3943002522

> <CNNaffinity>
6.9320478439

> <CNN_VS>
2.7333083153

> <CNNaffinity_variance>
0.1964949369

$$$$
[H]OC(=O)[C@@]([H])(N([H])[H])C([H])([H])OP(=O)(O[H])O[C@]1([H])C([H])([H])C([H])([H])C([H])([H])O[C@]1([H])C([H])([H])OC(=O)C([H])([H])C([H])([H])c1c([H])c([H])c([H])c([H])c1OC([H])([H])c1c([H])c([H])c([H])c(Oc2c([H])c([H])c(C([H])([H])[H])c([H])c2[H])c1[H]


 49 52  0  0  0  0  0  0  0  0999 V2000
   40.4876   15.6956  -12.4524 C   0  0  0  0  0  0  0  0  0  0  0  0
   40.5928   16.1911  -11.3185 O   0  0  0  0  0  0  0  0  0  0  0  0
   41.6822   15.5070  -13.1874 O   0  0  0  0  0  0  0  0  0  0  0  0
   42.8863   15.1551  -12.6647 C   0  0  0  0  0  0  0  0  0  0  0  0
   44.1110   15.9315  -13.0438 C   0  0  0  0  0  0  0  0  0  0  0  0
   44.6674   16.6296  -12.0049 O   0  0  0  0  0  0  0  0  0  0  0  0
   46.0352   16.7439  -12.0071 C   0  0  0  0  0  0  0  0  0  0  0  0
   46.6762   16.8634  -13.3531 C   0  0  0  0  0  0  0  0  0  0  0  0
   46.1313   15.9386  -14.3829 C   0  0  0  0  0  0  0  0  0  0  0  0
   45.1309   15.0070  -13.7213 C   0  0  0  0  0  0  0  0  0  0  0  0
   45.7149   14.1062  -12.8815 O   0  0  0  0  0  0  0  0  0  0  0  0
   46.6041   12.8959  -13.6061 P   0  0  0  0  0  0  0  0  0  0  0  0
   45.9149   12.2015  -14.7336 O   0  0  0  0  0  0  0  0  0  0  0  0
   48.0744   13.5014  -14.2430 O   0  0  0  0  0  0  0  0  0  0  0  0
   48.7602   13.4582  -13.5592 H   0  0  0  0  0  0  0  0  0  0  0  0
   47.0497   11.7945  -12.3832 O   0  0  0  0  0  0  0  0  0  0  0  0
   46.0836   11.6988  -11.3852 C   0  0  0  0  0  0  0  0  0  0  0  0
   45.9764   10.2203  -11.0453 C   0  0  0  0  0  0  0  0  0  0  0  0
   45.7110   10.1016   -9.6394 N   0  0  0  0  0  0  0  0  0  0  0  0
   44.7243   10.2202   -9.4003 H   0  0  0  0  0  0  0  0  0  0  0  0
   46.2062    9.3314   -9.1717 H   0  0  0  0  0  0  0  0  0  0  0  0
   47.1178    9.4273  -11.5107 C   0  0  0  0  0  0  0  0  0  0  0  0
   47.0111    8.6354  -12.4721 O   0  0  0  0  0  0  0  0  0  0  0  0
   48.3453    9.5423  -10.8870 O   0  0  0  0  0  0  0  0  0  0  0  0
   48.9451   10.3330  -10.8868 H   0  0  0  0  0  0  0  0  0  0  0  0
   39.2214   15.3089  -13.0657 C   0  0  0  0  0  0  0  0  0  0  0  0
   38.2967   14.4216  -12.3408 C   0  0  0  0  0  0  0  0  0  0  0  0
   35.8024   14.8343  -12.2630 C   0  0  0  0  0  0  0  0  0  0  0  0
   34.7356   15.3443  -11.5743 C   0  0  0  0  0  0  0  0  0  0  0  0
   34.8794   16.0747  -10.3875 C   0  0  0  0  0  0  0  0  0  0  0  0
   36.1540   16.2739   -9.9150 C   0  0  0  0  0  0  0  0  0  0  0  0
   37.2382   15.7718  -10.5832 C   0  0  0  0  0  0  0  0  0  0  0  0
   37.0821   15.0506  -11.7532 C   0  0  0  0  0  0  0  0  0  0  0  0
   35.6382   14.1459  -13.4143 O   0  0  0  0  0  0  0  0  0  0  0  0
   34.5426   13.7558  -14.1347 C   0  0  0  0  0  0  0  0  0  0  0  0
   36.1401   11.3817  -16.6199 C   0  0  0  0  0  0  0  0  0  0  0  0
   35.1128   10.4696  -16.8751 C   0  0  0  0  0  0  0  0  0  0  0  0
   33.9290   10.6838  -16.2125 C   0  0  0  0  0  0  0  0  0  0  0  0
   33.7553   11.7350  -15.3436 C   0  0  0  0  0  0  0  0  0  0  0  0
   34.7906   12.6259  -15.1064 C   0  0  0  0  0  0  0  0  0  0  0  0
   35.9751   12.4336  -15.7533 C   0  0  0  0  0  0  0  0  0  0  0  0
   37.3265   11.1565  -17.2983 O   0  0  0  0  0  0  0  0  0  0  0  0
   42.3497   13.1866  -15.8540 C   0  0  0  0  0  0  0  0  0  0  0  0
   41.0234   12.6575  -16.2285 C   0  0  0  0  0  0  0  0  0  0  0  0
   39.9496   12.8018  -15.3603 C   0  0  0  0  0  0  0  0  0  0  0  0
   38.7137   12.2883  -15.7452 C   0  0  0  0  0  0  0  0  0  0  0  0
   38.5375   11.6512  -16.9459 C   0  0  0  0  0  0  0  0  0  0  0  0
   39.6325   11.5196  -17.7999 C   0  0  0  0  0  0  0  0  0  0  0  0
   40.8670   12.0144  -17.4541 C   0  0  0  0  0  0  0  0  0  0  0  0
 43 44  1  0  0  0
 44 45  2  0  0  0
 45 46  1  0  0  0
 46 47  2  0  0  0
 47 42  1  0  0  0
 42 36  1  0  0  0
 36 37  2  0  0  0
 37 38  1  0  0  0
 38 39  2  0  0  0
 39 40  1  0  0  0
 40 35  1  0  0  0
 35 34  1  0  0  0
 34 28  1  0  0  0
 28 29  2  0  0  0
 29 30  1  0  0  0
 30 31  2  0  0  0
 31 32  1  0  0  0
 32 33  2  0  0  0
 33 27  1  0  0  0
 27 26  1  0  0  0
 26  1  1  0  0  0
  1  2  2  0  0  0
  1  3  1  0  0  0
  3  4  1  0  0  0
  4  5  1  0  0  0
  5  6  1  0  0  0
  6  7  1  0  0  0
  7  8  1  0  0  0
  8  9  1  0  0  0
  9 10  1  0  0  0
 10 11  1  0  0  0
 11 12  1  0  0  0
 12 13  2  0  0  0
 12 14  1  0  0  0
 12 16  1  0  0  0
 16 17  1  0  0  0
 17 18  1  0  0  0
 18 19  1  0  0  0
 18 22  1  0  0  0
 22 23  2  0  0  0
 22 24  1  0  0  0
 40 41  2  0  0  0
 47 48  1  0  0  0
 48 49  2  0  0  0
 49 44  1  0  0  0
 41 36  1  0  0  0
 33 28  1  0  0  0
 10  5  1  0  0  0
 14 15  1  0  0  0
 19 20  1  0  0  0
 19 21  1  0  0  0
 24 25  1  0  0  0
M  END
> <minimizedAffinity>
-8.64433

> <CNNscore>
0.3544135392

> <CNNaffinity>
6.8096466064

> <CNN_VS>
2.4134309292

> <CNNaffinity_variance>
0.1366023123

$$$$
[H]OC(=O)[C@@]([H])(N([H])[H])C([H])([H])OP(=O)(O[H])O[C@]1([H])C([H])([H])C([H])([H])C([H])([H])O[C@]1([H])C([H])([H])OC(=O)C([H])([H])C([H])([H])c1c([H])c([H])c([H])c([H])c1OC([H])([H])c1c([H])c([H])c([H])c(Oc2c([H])c([H])c(C([H])([H])[H])c([H])c2[H])c1[H]


 49 52  0  0  0  0  0  0  0  0999 V2000
   36.8001   14.6344  -13.5783 C   0  0  0  0  0  0  0  0  0  0  0  0
   35.8349   14.5426  -14.3545 O   0  0  0  0  0  0  0  0  0  0  0  0
   36.6981   15.5811  -12.5313 O   0  0  0  0  0  0  0  0  0  0  0  0
   36.9271   15.3336  -11.2148 C   0  0  0  0  0  0  0  0  0  0  0  0
   36.1452   16.0799  -10.1764 C   0  0  0  0  0  0  0  0  0  0  0  0
   34.7939   15.8653  -10.2407 O   0  0  0  0  0  0  0  0  0  0  0  0
   34.1174   15.8596   -9.0465 C   0  0  0  0  0  0  0  0  0  0  0  0
   34.6269   16.8047   -8.0052 C   0  0  0  0  0  0  0  0  0  0  0  0
   36.1083   16.8444   -7.8767 C   0  0  0  0  0  0  0  0  0  0  0  0
   36.7049   15.7793   -8.7799 C   0  0  0  0  0  0  0  0  0  0  0  0
   36.4646   14.5115   -8.3411 O   0  0  0  0  0  0  0  0  0  0  0  0
   37.3243   14.0238   -6.9980 P   0  0  0  0  0  0  0  0  0  0  0  0
   37.3637   12.5473   -6.7816 O   0  0  0  0  0  0  0  0  0  0  0  0
   38.9555   14.5396   -7.0834 O   0  0  0  0  0  0  0  0  0  0  0  0
   39.0324   15.4215   -6.6884 H   0  0  0  0  0  0  0  0  0  0  0  0
   36.6561   14.8273   -5.6508 O   0  0  0  0  0  0  0  0  0  0  0  0
   37.2309   14.4111   -4.4529 C   0  0  0  0  0  0  0  0  0  0  0  0
   36.0883   13.8784   -3.6021 C   0  0  0  0  0  0  0  0  0  0  0  0
   35.5308   12.7341   -4.2658 N   0  0  0  0  0  0  0  0  0  0  0  0
   36.0508   11.8709   -4.0942 H   0  0  0  0  0  0  0  0  0  0  0  0
   34.5057   12.6677   -4.2210 H   0  0  0  0  0  0  0  0  0  0  0  0
   35.1033   14.9004   -3.2366 C   0  0  0  0  0  0  0  0  0  0  0  0
   34.0581   14.6048   -2.6177 O   0  0  0  0  0  0  0  0  0  0  0  0
   35.3153   16.2233   -3.5743 O   0  0  0  0  0  0  0  0  0  0  0  0
   36.0167   16.8276   -3.2165 H   0  0  0  0  0  0  0  0  0  0  0  0
   38.0191   13.8398  -13.6856 C   0  0  0  0  0  0  0  0  0  0  0  0
   37.9301   12.3894  -13.9230 C   0  0  0  0  0  0  0  0  0  0  0  0
   38.9764   11.8136  -16.1527 C   0  0  0  0  0  0  0  0  0  0  0  0
   38.8191   11.2666  -17.3971 C   0  0  0  0  0  0  0  0  0  0  0  0
   37.5773   10.8394  -17.8852 C   0  0  0  0  0  0  0  0  0  0  0  0
   36.4870   10.9857  -17.0620 C   0  0  0  0  0  0  0  0  0  0  0  0
   36.6176   11.5271  -15.8114 C   0  0  0  0  0  0  0  0  0  0  0  0
   37.8500   11.9432  -15.3409 C   0  0  0  0  0  0  0  0  0  0  0  0
   40.1830   12.2322  -15.7107 O   0  0  0  0  0  0  0  0  0  0  0  0
   41.0152   13.2587  -16.0639 C   0  0  0  0  0  0  0  0  0  0  0  0
   44.5913   13.0356  -14.8282 C   0  0  0  0  0  0  0  0  0  0  0  0
   45.2172   12.2964  -15.8353 C   0  0  0  0  0  0  0  0  0  0  0  0
   44.4244   11.9054  -16.8865 C   0  0  0  0  0  0  0  0  0  0  0  0
   43.0875   12.2189  -16.9526 C   0  0  0  0  0  0  0  0  0  0  0  0
   42.4895   12.9528  -15.9398 C   0  0  0  0  0  0  0  0  0  0  0  0
   43.2568   13.3525  -14.8861 C   0  0  0  0  0  0  0  0  0  0  0  0
   45.4034   13.4275  -13.7768 O   0  0  0  0  0  0  0  0  0  0  0  0
   46.5026   10.3773   -9.2021 C   0  0  0  0  0  0  0  0  0  0  0  0
   46.2183   11.1750  -10.4112 C   0  0  0  0  0  0  0  0  0  0  0  0
   47.0857   11.1247  -11.4942 C   0  0  0  0  0  0  0  0  0  0  0  0
   46.7875   11.8924  -12.6172 C   0  0  0  0  0  0  0  0  0  0  0  0
   45.6719   12.6865  -12.6749 C   0  0  0  0  0  0  0  0  0  0  0  0
   44.8167   12.7190  -11.5734 C   0  0  0  0  0  0  0  0  0  0  0  0
   45.0783   11.9745  -10.4484 C   0  0  0  0  0  0  0  0  0  0  0  0
 43 44  1  0  0  0
 44 45  2  0  0  0
 45 46  1  0  0  0
 46 47  2  0  0  0
 47 42  1  0  0  0
 42 36  1  0  0  0
 36 37  2  0  0  0
 37 38  1  0  0  0
 38 39  2  0  0  0
 39 40  1  0  0  0
 40 35  1  0  0  0
 35 34  1  0  0  0
 34 28  1  0  0  0
 28 29  2  0  0  0
 29 30  1  0  0  0
 30 31  2  0  0  0
 31 32  1  0  0  0
 32 33  2  0  0  0
 33 27  1  0  0  0
 27 26  1  0  0  0
 26  1  1  0  0  0
  1  2  2  0  0  0
  1  3  1  0  0  0
  3  4  1  0  0  0
  4  5  1  0  0  0
  5  6  1  0  0  0
  6  7  1  0  0  0
  7  8  1  0  0  0
  8  9  1  0  0  0
  9 10  1  0  0  0
 10 11  1  0  0  0
 11 12  1  0  0  0
 12 13  2  0  0  0
 12 14  1  0  0  0
 12 16  1  0  0  0
 16 17  1  0  0  0
 17 18  1  0  0  0
 18 19  1  0  0  0
 18 22  1  0  0  0
 22 23  2  0  0  0
 22 24  1  0  0  0
 40 41  2  0  0  0
 47 48  1  0  0  0
 48 49  2  0  0  0
 49 44  1  0  0  0
 41 36  1  0  0  0
 33 28  1  0  0  0
 10  5  1  0  0  0
 14 15  1  0  0  0
 19 20  1  0  0  0
 19 21  1  0  0  0
 24 25  1  0  0  0
M  END
> <minimizedAffinity>
-8.50513

> <CNNscore>
0.2920233011

> <CNNaffinity>
6.2353739738

> <CNN_VS>
1.8208744526

> <CNNaffinity_variance>
0.2878413796

$$$$
[H]OC(=O)[C@@]([H])(N([H])[H])C([H])([H])OP(=O)(O[H])O[C@]1([H])C([H])([H])C([H])([H])C([H])([H])O[C@]1([H])C([H])([H])OC(=O)C([H])([H])C([H])([H])c1c([H])c([H])c([H])c([H])c1OC([H])([H])c1c([H])c([H])c([H])c(Oc2c([H])c([H])c(C([H])([H])[H])c([H])c2[H])c1[H]


 49 52  0  0  0  0  0  0  0  0999 V2000
   39.6174   15.7548  -12.4378 C   0  0  0  0  0  0  0  0  0  0  0  0
   40.4633   16.6488  -12.6040 O   0  0  0  0  0  0  0  0  0  0  0  0
   38.5762   16.0153  -11.5153 O   0  0  0  0  0  0  0  0  0  0  0  0
   38.6145   15.7514  -10.1827 C   0  0  0  0  0  0  0  0  0  0  0  0
   38.5489   16.8844   -9.2036 C   0  0  0  0  0  0  0  0  0  0  0  0
   38.5670   18.1229   -9.7883 O   0  0  0  0  0  0  0  0  0  0  0  0
   37.8321   19.1029   -9.1691 C   0  0  0  0  0  0  0  0  0  0  0  0
   37.7838   19.0349   -7.6758 C   0  0  0  0  0  0  0  0  0  0  0  0
   37.5810   17.6683   -7.1244 C   0  0  0  0  0  0  0  0  0  0  0  0
   37.3394   16.7086   -8.2763 C   0  0  0  0  0  0  0  0  0  0  0  0
   36.1347   16.8979   -8.8851 O   0  0  0  0  0  0  0  0  0  0  0  0
   34.9814   15.7248   -8.6118 P   0  0  0  0  0  0  0  0  0  0  0  0
   33.7374   15.8682   -9.4244 O   0  0  0  0  0  0  0  0  0  0  0  0
   35.5947   14.1608   -8.9460 O   0  0  0  0  0  0  0  0  0  0  0  0
   36.0057   13.8012   -8.1450 H   0  0  0  0  0  0  0  0  0  0  0  0
   34.6331   15.7371   -6.9428 O   0  0  0  0  0  0  0  0  0  0  0  0
   33.3501   15.2699   -6.6707 C   0  0  0  0  0  0  0  0  0  0  0  0
   33.5307   13.9958   -5.8602 C   0  0  0  0  0  0  0  0  0  0  0  0
   32.4145   13.8713   -4.9660 N   0  0  0  0  0  0  0  0  0  0  0  0
   31.5851   13.4655   -5.4046 H   0  0  0  0  0  0  0  0  0  0  0  0
   32.6518   13.5252   -4.0273 H   0  0  0  0  0  0  0  0  0  0  0  0
   34.8388   13.8970   -5.2063 C   0  0  0  0  0  0  0  0  0  0  0  0
   34.9980   14.2399   -4.0147 O   0  0  0  0  0  0  0  0  0  0  0  0
   35.9309   13.4183   -5.9042 O   0  0  0  0  0  0  0  0  0  0  0  0
   36.0710   12.4935   -6.2361 H   0  0  0  0  0  0  0  0  0  0  0  0
   39.6381   14.4666  -13.1228 C   0  0  0  0  0  0  0  0  0  0  0  0
   40.2620   14.3531  -14.4516 C   0  0  0  0  0  0  0  0  0  0  0  0
   42.1899   13.2482  -15.6600 C   0  0  0  0  0  0  0  0  0  0  0  0
   43.5106   12.8902  -15.6463 C   0  0  0  0  0  0  0  0  0  0  0  0
   44.3269   13.0499  -14.5189 C   0  0  0  0  0  0  0  0  0  0  0  0
   43.7554   13.5907  -13.3926 C   0  0  0  0  0  0  0  0  0  0  0  0
   42.4372   13.9600  -13.3809 C   0  0  0  0  0  0  0  0  0  0  0  0
   41.6427   13.7987  -14.5016 C   0  0  0  0  0  0  0  0  0  0  0  0
   41.4195   13.0698  -16.7559 O   0  0  0  0  0  0  0  0  0  0  0  0
   41.2439   12.0319  -17.6295 C   0  0  0  0  0  0  0  0  0  0  0  0
   37.6399   11.0947  -16.9238 C   0  0  0  0  0  0  0  0  0  0  0  0
   37.1940   10.6374  -18.1665 C   0  0  0  0  0  0  0  0  0  0  0  0
   38.1119   10.6561  -19.1880 C   0  0  0  0  0  0  0  0  0  0  0  0
   39.4008   11.0992  -19.0072 C   0  0  0  0  0  0  0  0  0  0  0  0
   39.8187   11.5491  -17.7643 C   0  0  0  0  0  0  0  0  0  0  0  0
   38.9249   11.5394  -16.7349 C   0  0  0  0  0  0  0  0  0  0  0  0
   36.7055   11.0659  -15.9017 O   0  0  0  0  0  0  0  0  0  0  0  0
   35.6279   15.2673  -12.3482 C   0  0  0  0  0  0  0  0  0  0  0  0
   35.9114   14.1668  -13.2905 C   0  0  0  0  0  0  0  0  0  0  0  0
   35.5857   14.3032  -14.6333 C   0  0  0  0  0  0  0  0  0  0  0  0
   35.8650   13.2439  -15.4930 C   0  0  0  0  0  0  0  0  0  0  0  0
   36.4457   12.0850  -15.0476 C   0  0  0  0  0  0  0  0  0  0  0  0
   36.7632   11.9735  -13.6940 C   0  0  0  0  0  0  0  0  0  0  0  0
   36.5029   12.9983  -12.8163 C   0  0  0  0  0  0  0  0  0  0  0  0
 43 44  1  0  0  0
 44 45  2  0  0  0
 45 46  1  0  0  0
 46 47  2  0  0  0
 47 42  1  0  0  0
 42 36  1  0  0  0
 36 37  2  0  0  0
 37 38  1  0  0  0
 38 39  2  0  0  0
 39 40  1  0  0  0
 40 35  1  0  0  0
 35 34  1  0  0  0
 34 28  1  0  0  0
 28 29  2  0  0  0
 29 30  1  0  0  0
 30 31  2  0  0  0
 31 32  1  0  0  0
 32 33  2  0  0  0
 33 27  1  0  0  0
 27 26  1  0  0  0
 26  1  1  0  0  0
  1  2  2  0  0  0
  1  3  1  0  0  0
  3  4  1  0  0  0
  4  5  1  0  0  0
  5  6  1  0  0  0
  6  7  1  0  0  0
  7  8  1  0  0  0
  8  9  1  0  0  0
  9 10  1  0  0  0
 10 11  1  0  0  0
 11 12  1  0  0  0
 12 13  2  0  0  0
 12 14  1  0  0  0
 12 16  1  0  0  0
 16 17  1  0  0  0
 17 18  1  0  0  0
 18 19  1  0  0  0
 18 22  1  0  0  0
 22 23  2  0  0  0
 22 24  1  0  0  0
 40 41  2  0  0  0
 47 48  1  0  0  0
 48 49  2  0  0  0
 49 44  1  0  0  0
 41 36  1  0  0  0
 33 28  1  0  0  0
 10  5  1  0  0  0
 14 15  1  0  0  0
 19 20  1  0  0  0
 19 21  1  0  0  0
 24 25  1  0  0  0
M  END
> <minimizedAffinity>
-8.68434

> <CNNscore>
0.2767670155

> <CNNaffinity>
6.7460889816

> <CNN_VS>
1.8670948744

> <CNNaffinity_variance>
0.0518058166

$$$$
[H]OC(=O)[C@@]([H])(N([H])[H])C([H])([H])OP(=O)(O[H])O[C@]1([H])C([H])([H])C([H])([H])C([H])([H])O[C@]1([H])C([H])([H])OC(=O)C([H])([H])C([H])([H])c1c([H])c([H])c([H])c([H])c1OC([H])([H])c1c([H])c([H])c([H])c(Oc2c([H])c([H])c(C([H])([H])[H])c([H])c2[H])c1[H]


 49 52  0  0  0  0  0  0  0  0999 V2000
   38.9624   15.5768  -12.1512 C   0  0  0  0  0  0  0  0  0  0  0  0
   40.0324   16.2045  -12.2104 O   0  0  0  0  0  0  0  0  0  0  0  0
   38.2341   15.6563  -10.9403 O   0  0  0  0  0  0  0  0  0  0  0  0
   37.7473   16.7959  -10.3824 C   0  0  0  0  0  0  0  0  0  0  0  0
   38.1618   17.1726   -8.9921 C   0  0  0  0  0  0  0  0  0  0  0  0
   38.0011   18.5029   -8.7080 O   0  0  0  0  0  0  0  0  0  0  0  0
   37.6496   18.8154   -7.4186 C   0  0  0  0  0  0  0  0  0  0  0  0
   38.2292   17.9380   -6.3550 C   0  0  0  0  0  0  0  0  0  0  0  0
   38.2014   16.4841   -6.6685 C   0  0  0  0  0  0  0  0  0  0  0  0
   37.4458   16.2803   -7.9700 C   0  0  0  0  0  0  0  0  0  0  0  0
   36.1093   16.5216   -7.8546 O   0  0  0  0  0  0  0  0  0  0  0  0
   35.0976   15.4176   -8.5884 P   0  0  0  0  0  0  0  0  0  0  0  0
   34.1750   15.9958   -9.6097 O   0  0  0  0  0  0  0  0  0  0  0  0
   35.9895   14.1925   -9.3869 O   0  0  0  0  0  0  0  0  0  0  0  0
   36.1642   13.4688   -8.7660 H   0  0  0  0  0  0  0  0  0  0  0  0
   34.2310   14.6260   -7.3517 O   0  0  0  0  0  0  0  0  0  0  0  0
   34.5305   15.1362   -6.0913 C   0  0  0  0  0  0  0  0  0  0  0  0
   34.2938   13.9979   -5.1109 C   0  0  0  0  0  0  0  0  0  0  0  0
   33.5518   14.5140   -3.9955 N   0  0  0  0  0  0  0  0  0  0  0  0
   32.5452   14.5663   -4.1658 H   0  0  0  0  0  0  0  0  0  0  0  0
   33.8428   14.1491   -3.0793 H   0  0  0  0  0  0  0  0  0  0  0  0
   35.5165   13.2801   -4.7391 C   0  0  0  0  0  0  0  0  0  0  0  0
   35.7994   13.0531   -3.5428 O   0  0  0  0  0  0  0  0  0  0  0  0
   36.3876   12.8376   -5.7160 O   0  0  0  0  0  0  0  0  0  0  0  0
   36.2220   12.1270   -6.3887 H   0  0  0  0  0  0  0  0  0  0  0  0
   38.4235   14.7673  -13.2389 C   0  0  0  0  0  0  0  0  0  0  0  0
   37.6623   13.5442  -12.9347 C   0  0  0  0  0  0  0  0  0  0  0  0
   35.7244   12.5960  -14.2551 C   0  0  0  0  0  0  0  0  0  0  0  0
   34.3726   12.5667  -14.4653 C   0  0  0  0  0  0  0  0  0  0  0  0
   33.4851   13.4295  -13.8090 C   0  0  0  0  0  0  0  0  0  0  0  0
   34.0176   14.3337  -12.9221 C   0  0  0  0  0  0  0  0  0  0  0  0
   35.3662   14.3817  -12.6913 C   0  0  0  0  0  0  0  0  0  0  0  0
   36.2314   13.5226  -13.3447 C   0  0  0  0  0  0  0  0  0  0  0  0
   36.5613   11.7630  -14.9123 O   0  0  0  0  0  0  0  0  0  0  0  0
   36.7530   11.4640  -16.2334 C   0  0  0  0  0  0  0  0  0  0  0  0
   40.2611   12.7944  -16.7707 C   0  0  0  0  0  0  0  0  0  0  0  0
   40.7688   11.9325  -17.7462 C   0  0  0  0  0  0  0  0  0  0  0  0
   39.9217   10.9458  -18.1883 C   0  0  0  0  0  0  0  0  0  0  0  0
   38.6431   10.8059  -17.7029 C   0  0  0  0  0  0  0  0  0  0  0  0
   38.1629   11.6734  -16.7341 C   0  0  0  0  0  0  0  0  0  0  0  0
   38.9857   12.6611  -16.2802 C   0  0  0  0  0  0  0  0  0  0  0  0
   41.1241   13.7874  -16.3375 O   0  0  0  0  0  0  0  0  0  0  0  0
   45.2468   13.0902  -12.6015 C   0  0  0  0  0  0  0  0  0  0  0  0
   44.1569   13.2785  -13.5793 C   0  0  0  0  0  0  0  0  0  0  0  0
   42.8810   13.6056  -13.1401 C   0  0  0  0  0  0  0  0  0  0  0  0
   41.8766   13.7730  -14.0901 C   0  0  0  0  0  0  0  0  0  0  0  0
   42.1174   13.6227  -15.4311 C   0  0  0  0  0  0  0  0  0  0  0  0
   43.4080   13.2941  -15.8459 C   0  0  0  0  0  0  0  0  0  0  0  0
   44.4242   13.1217  -14.9372 C   0  0  0  0  0  0  0  0  0  0  0  0
 43 44  1  0  0  0
 44 45  2  0  0  0
 45 46  1  0  0  0
 46 47  2  0  0  0
 47 42  1  0  0  0
 42 36  1  0  0  0
 36 37  2  0  0  0
 37 38  1  0  0  0
 38 39  2  0  0  0
 39 40  1  0  0  0
 40 35  1  0  0  0
 35 34  1  0  0  0
 34 28  1  0  0  0
 28 29  2  0  0  0
 29 30  1  0  0  0
 30 31  2  0  0  0
 31 32  1  0  0  0
 32 33  2  0  0  0
 33 27  1  0  0  0
 27 26  1  0  0  0
 26  1  1  0  0  0
  1  2  2  0  0  0
  1  3  1  0  0  0
  3  4  1  0  0  0
  4  5  1  0  0  0
  5  6  1  0  0  0
  6  7  1  0  0  0
  7  8  1  0  0  0
  8  9  1  0  0  0
  9 10  1  0  0  0
 10 11  1  0  0  0
 11 12  1  0  0  0
 12 13  2  0  0  0
 12 14  1  0  0  0
 12 16  1  0  0  0
 16 17  1  0  0  0
 17 18  1  0  0  0
 18 19  1  0  0  0
 18 22  1  0  0  0
 22 23  2  0  0  0
 22 24  1  0  0  0
 40 41  2  0  0  0
 47 48  1  0  0  0
 48 49  2  0  0  0
 49 44  1  0  0  0
 41 36  1  0  0  0
 33 28  1  0  0  0
 10  5  1  0  0  0
 14 15  1  0  0  0
 19 20  1  0  0  0
 19 21  1  0  0  0
 24 25  1  0  0  0
M  END
> <minimizedAffinity>
-8.86402

> <CNNscore>
0.2629852593

> <CNNaffinity>
6.4735689163

> <CNN_VS>
1.7024532557

> <CNNaffinity_variance>
0.2188541442

$$$$
[H]C([H])([H])C1([H])OC([H])(C([H])([H])[N+](C([H])([H])[H])(C([H])([H])[H])C([H])([H])[H])C([H])([H])OC1([H])[H].[I-]


 12 12  0  0  0  0  0  0  0  0999 V2000
   43.9050   11.9089   -4.1182 C   0  0  0  0  0  0  0  0  0  0  0  0
   43.1389   12.3349   -5.3752 C   0  0  0  0  0  0  0  0  0  0  0  0
   42.1089   11.2458   -5.6209 C   0  0  0  0  0  0  0  0  0  0  0  0
   40.9027   11.7352   -5.0653 O   0  0  0  0  0  0  0  0  0  0  0  0
   40.4931   12.7587   -5.9429 C   0  0  0  0  0  0  0  0  0  0  0  0
   41.5253   13.8797   -5.9867 C   0  0  0  0  0  0  0  0  0  0  0  0
   42.5810   13.5662   -5.1492 O   0  0  0  0  0  0  0  0  0  0  0  0
   40.8484   15.1335   -5.5371 C   0  0  0  0  0  0  0  0  0  0  0  0
   40.9801   16.2485   -6.3957 N   0  0  0  0  0  0  0  0  0  0  0  0
   41.5953   17.3649   -5.6597 C   0  0  0  0  0  0  0  0  0  0  0  0
   39.6402   16.6933   -6.8104 C   0  0  0  0  0  0  0  0  0  0  0  0
   41.7434   16.0476   -7.5796 C   0  0  0  0  0  0  0  0  0  0  0  0
  1  2  1  0  0  0
  2  3  1  0  0  0
  3  4  1  0  0  0
  4  5  1  0  0  0
  5  6  1  0  0  0
  6  8  1  0  0  0
  8  9  1  0  0  0
  9 10  1  0  0  0
  9 11  1  0  0  0
  9 12  1  0  0  0
  6  7  1  0  0  0
  7  2  1  0  0  0
M  CHG 1   9   1
M  END
> <minimizedAffinity>
-2.78996

> <CNNscore>
0.5944452286

> <CNNaffinity>
2.8943400383

> <CNN_VS>
1.7205265760

> <CNNaffinity_variance>
0.1463636458

$$$$
[H]C([H])([H])C1([H])OC([H])(C([H])([H])[N+](C([H])([H])[H])(C([H])([H])[H])C([H])([H])[H])C([H])([H])OC1([H])[H].[I-]


 12 12  0  0  0  0  0  0  0  0999 V2000
   43.7663   12.2266   -4.2933 C   0  0  0  0  0  0  0  0  0  0  0  0
   43.3842   12.0647   -5.7684 C   0  0  0  0  0  0  0  0  0  0  0  0
   42.2979   11.0034   -5.8004 C   0  0  0  0  0  0  0  0  0  0  0  0
   41.0762   11.7157   -5.8563 O   0  0  0  0  0  0  0  0  0  0  0  0
   41.0320   12.2497   -7.1595 C   0  0  0  0  0  0  0  0  0  0  0  0
   42.1928   13.2105   -7.3906 C   0  0  0  0  0  0  0  0  0  0  0  0
   42.9677   13.2797   -6.2466 O   0  0  0  0  0  0  0  0  0  0  0  0
   41.6125   14.5480   -7.7176 C   0  0  0  0  0  0  0  0  0  0  0  0
   42.2598   15.2668   -8.7482 N   0  0  0  0  0  0  0  0  0  0  0  0
   43.1372   14.3583   -9.5041 C   0  0  0  0  0  0  0  0  0  0  0  0
   43.1226   16.2947   -8.1448 C   0  0  0  0  0  0  0  0  0  0  0  0
   41.4157   15.9224   -9.6876 C   0  0  0  0  0  0  0  0  0  0  0  0
  1  2  1  0  0  0
  2  3  1  0  0  0
  3  4  1  0  0  0
  4  5  1  0  0  0
  5  6  1  0  0  0
  6  8  1  0  0  0
  8  9  1  0  0  0
  9 10  1  0  0  0
  9 11  1  0  0  0
  9 12  1  0  0  0
  6  7  1  0  0  0
  7  2  1  0  0  0
M  CHG 1   9   1
M  END
> <minimizedAffinity>
-2.69600

> <CNNscore>
0.5803075433

> <CNNaffinity>
2.8178656101

> <CNN_VS>
1.6352286339

> <CNNaffinity_variance>
0.2319655120

$$$$
[H]C([H])([H])C1([H])OC([H])(C([H])([H])[N+](C([H])([H])[H])(C([H])([H])[H])C([H])([H])[H])C([H])([H])OC1([H])[H].[I-]


 12 12  0  0  0  0  0  0  0  0999 V2000
   33.4306   15.0138   -7.3990 C   0  0  0  0  0  0  0  0  0  0  0  0
   34.2499   15.2928   -6.1344 C   0  0  0  0  0  0  0  0  0  0  0  0
   33.5962   14.4800   -5.0302 C   0  0  0  0  0  0  0  0  0  0  0  0
   34.3670   13.2977   -4.9254 O   0  0  0  0  0  0  0  0  0  0  0  0
   35.5785   13.7106   -4.3362 C   0  0  0  0  0  0  0  0  0  0  0  0
   36.3013   14.7123   -5.2297 C   0  0  0  0  0  0  0  0  0  0  0  0
   35.5518   14.9356   -6.3709 O   0  0  0  0  0  0  0  0  0  0  0  0
   37.6319   14.1281   -5.5772 C   0  0  0  0  0  0  0  0  0  0  0  0
   38.7176   15.0329   -5.5969 N   0  0  0  0  0  0  0  0  0  0  0  0
   39.9629   14.3122   -5.2865 C   0  0  0  0  0  0  0  0  0  0  0  0
   38.5244   16.0343   -4.5363 C   0  0  0  0  0  0  0  0  0  0  0  0
   38.9279   15.7411   -6.8130 C   0  0  0  0  0  0  0  0  0  0  0  0
  1  2  1  0  0  0
  2  3  1  0  0  0
  3  4  1  0  0  0
  4  5  1  0  0  0
  5  6  1  0  0  0
  6  8  1  0  0  0
  8  9  1  0  0  0
  9 10  1  0  0  0
  9 11  1  0  0  0
  9 12  1  0  0  0
  6  7  1  0  0  0
  7  2  1  0  0  0
M  CHG 1   9   1
M  END
> <minimizedAffinity>
-2.77906

> <CNNscore>
0.4762237966

> <CNNaffinity>
2.8046267033

> <CNN_VS>
1.3356299400

> <CNNaffinity_variance>
0.4393719733

$$$$
[H]C([H])([H])C1([H])OC([H])(C([H])([H])[N+](C([H])([H])[H])(C([H])([H])[H])C([H])([H])[H])C([H])([H])OC1([H])[H].[I-]


 12 12  0  0  0  0  0  0  0  0999 V2000
   38.9369   10.8693  -16.8599 C   0  0  0  0  0  0  0  0  0  0  0  0
   37.6597   11.7116  -16.9471 C   0  0  0  0  0  0  0  0  0  0  0  0
   36.7129   10.9356  -17.8464 C   0  0  0  0  0  0  0  0  0  0  0  0
   35.8506   10.2342  -16.9704 O   0  0  0  0  0  0  0  0  0  0  0  0
   35.0165   11.2265  -16.4178 C   0  0  0  0  0  0  0  0  0  0  0  0
   35.8332   12.2404  -15.6249 C   0  0  0  0  0  0  0  0  0  0  0  0
   37.1722   11.8966  -15.6796 O   0  0  0  0  0  0  0  0  0  0  0  0
   35.3382   12.2146  -14.2154 C   0  0  0  0  0  0  0  0  0  0  0  0
   35.3657   13.4495  -13.5283 N   0  0  0  0  0  0  0  0  0  0  0  0
   35.9576   13.2560  -12.1946 C   0  0  0  0  0  0  0  0  0  0  0  0
   33.9845   13.9129  -13.3227 C   0  0  0  0  0  0  0  0  0  0  0  0
   36.0767   14.5080  -14.1597 C   0  0  0  0  0  0  0  0  0  0  0  0
  1  2  1  0  0  0
  2  3  1  0  0  0
  3  4  1  0  0  0
  4  5  1  0  0  0
  5  6  1  0  0  0
  6  8  1  0  0  0
  8  9  1  0  0  0
  9 10  1  0  0  0
  9 11  1  0  0  0
  9 12  1  0  0  0
  6  7  1  0  0  0
  7  2  1  0  0  0
M  CHG 1   9   1
M  END
> <minimizedAffinity>
-4.51591

> <CNNscore>
0.4565557837

> <CNNaffinity>
4.0573940277

> <CNN_VS>
1.8524267673

> <CNNaffinity_variance>
0.1523928046

$$$$
[H]C([H])([H])C1([H])OC([H])(C([H])([H])[N+](C([H])([H])[H])(C([H])([H])[H])C([H])([H])[H])C([H])([H])OC1([H])[H].[I-]


 12 12  0  0  0  0  0  0  0  0999 V2000
   36.7472   16.9517  -10.1631 C   0  0  0  0  0  0  0  0  0  0  0  0
   36.1390   16.5911   -8.8035 C   0  0  0  0  0  0  0  0  0  0  0  0
   35.2824   15.3604   -9.0468 C   0  0  0  0  0  0  0  0  0  0  0  0
   36.0846   14.2603   -8.6604 O   0  0  0  0  0  0  0  0  0  0  0  0
   36.1386   14.3324   -7.2542 C   0  0  0  0  0  0  0  0  0  0  0  0
   36.8015   15.6292   -6.8036 C   0  0  0  0  0  0  0  0  0  0  0  0
   37.1586   16.3735   -7.9139 O   0  0  0  0  0  0  0  0  0  0  0  0
   38.0083   15.2636   -6.0020 C   0  0  0  0  0  0  0  0  0  0  0  0
   37.9740   15.6228   -4.6354 N   0  0  0  0  0  0  0  0  0  0  0  0
   39.2407   16.2761   -4.2677 C   0  0  0  0  0  0  0  0  0  0  0  0
   37.8687   14.4009   -3.8226 C   0  0  0  0  0  0  0  0  0  0  0  0
   36.9175   16.4881   -4.2359 C   0  0  0  0  0  0  0  0  0  0  0  0
  1  2  1  0  0  0
  2  3  1  0  0  0
  3  4  1  0  0  0
  4  5  1  0  0  0
  5  6  1  0  0  0
  6  8  1  0  0  0
  8  9  1  0  0  0
  9 10  1  0  0  0
  9 11  1  0  0  0
  9 12  1  0  0  0
  6  7  1  0  0  0
  7  2  1  0  0  0
M  CHG 1   9   1
M  END
> <minimizedAffinity>
-2.67277

> <CNNscore>
0.4498642981

> <CNNaffinity>
2.8342483044

> <CNN_VS>
1.2750271559

> <CNNaffinity_variance>
0.4975950718

$$$$
[H]C([H])([H])C1([H])OC([H])(C([H])([H])[N+](C([H])([H])[H])(C([H])([H])[H])C([H])([H])[H])C([H])([H])OC1([H])[H].[I-]


 12 12  0  0  0  0  0  0  0  0999 V2000
   36.9484   13.7217   -5.9245 C   0  0  0  0  0  0  0  0  0  0  0  0
   35.5514   13.4654   -5.3492 C   0  0  0  0  0  0  0  0  0  0  0  0
   35.6433   13.8067   -3.8719 C   0  0  0  0  0  0  0  0  0  0  0  0
   35.1382   15.1238   -3.7570 O   0  0  0  0  0  0  0  0  0  0  0  0
   33.7503   14.9948   -3.9639 C   0  0  0  0  0  0  0  0  0  0  0  0
   33.4587   14.4575   -5.3604 C   0  0  0  0  0  0  0  0  0  0  0  0
   34.6506   14.2430   -6.0292 O   0  0  0  0  0  0  0  0  0  0  0  0
   32.6297   15.4771   -6.0715 C   0  0  0  0  0  0  0  0  0  0  0  0
   31.5455   14.9743   -6.8263 N   0  0  0  0  0  0  0  0  0  0  0  0
   31.7909   15.2140   -8.2577 C   0  0  0  0  0  0  0  0  0  0  0  0
   30.3280   15.7187   -6.4681 C   0  0  0  0  0  0  0  0  0  0  0  0
   31.2553   13.5901   -6.6705 C   0  0  0  0  0  0  0  0  0  0  0  0
  1  2  1  0  0  0
  2  3  1  0  0  0
  3  4  1  0  0  0
  4  5  1  0  0  0
  5  6  1  0  0  0
  6  8  1  0  0  0
  8  9  1  0  0  0
  9 10  1  0  0  0
  9 11  1  0  0  0
  9 12  1  0  0  0
  6  7  1  0  0  0
  7  2  1  0  0  0
M  CHG 1   9   1
M  END
> <minimizedAffinity>
-3.07477

> <CNNscore>
0.3981851935

> <CNNaffinity>
2.8870325089

> <CNN_VS>
1.1495735645

> <CNNaffinity_variance>
0.6566452384

$$$$
[H]C([H])([H])C1([H])OC([H])(C([H])([H])[N+](C([H])([H])[H])(C([H])([H])[H])C([H])([H])[H])C([H])([H])OC1([H])[H].[I-]


 12 12  0  0  0  0  0  0  0  0999 V2000
   38.7712   11.0325  -16.6463 C   0  0  0  0  0  0  0  0  0  0  0  0
   37.6347   12.0452  -16.4696 C   0  0  0  0  0  0  0  0  0  0  0  0
   36.4397   11.4579  -17.2007 C   0  0  0  0  0  0  0  0  0  0  0  0
   35.6562   10.8329  -16.2015 O   0  0  0  0  0  0  0  0  0  0  0  0
   35.0873   11.8972  -15.4741 C   0  0  0  0  0  0  0  0  0  0  0  0
   36.1711   12.7437  -14.8162 C   0  0  0  0  0  0  0  0  0  0  0  0
   37.4144   12.2235  -15.1287 O   0  0  0  0  0  0  0  0  0  0  0  0
   35.9383   12.7065  -13.3407 C   0  0  0  0  0  0  0  0  0  0  0  0
   35.7654   13.9600  -12.7109 N   0  0  0  0  0  0  0  0  0  0  0  0
   34.3480   14.3511  -12.7767 C   0  0  0  0  0  0  0  0  0  0  0  0
   36.5270   14.9768  -13.4532 C   0  0  0  0  0  0  0  0  0  0  0  0
   36.1668   14.0432  -11.3483 C   0  0  0  0  0  0  0  0  0  0  0  0
  1  2  1  0  0  0
  2  3  1  0  0  0
  3  4  1  0  0  0
  4  5  1  0  0  0
  5  6  1  0  0  0
  6  8  1  0  0  0
  8  9  1  0  0  0
  9 10  1  0  0  0
  9 11  1  0  0  0
  9 12  1  0  0  0
  6  7  1  0  0  0
  7  2  1  0  0  0
M  CHG 1   9   1
M  END
> <minimizedAffinity>
-4.22550

> <CNNscore>
0.3919939399

> <CNNaffinity>
3.9023308754

> <CNN_VS>
1.5296900272

> <CNNaffinity_variance>
0.1614920944

$$$$
[H]C([H])([H])C1([H])OC([H])(C([H])([H])[N+](C([H])([H])[H])(C([H])([H])[H])C([H])([H])[H])C([H])([H])OC1([H])[H].[I-]


 12 12  0  0  0  0  0  0  0  0999 V2000
   35.6657   16.2211  -11.0589 C   0  0  0  0  0  0  0  0  0  0  0  0
   35.9215   15.8600   -9.5917 C   0  0  0  0  0  0  0  0  0  0  0  0
   36.6522   17.0501   -8.9940 C   0  0  0  0  0  0  0  0  0  0  0  0
   35.6571   17.8125   -8.3371 O   0  0  0  0  0  0  0  0  0  0  0  0
   35.3141   17.0518   -7.2016 C   0  0  0  0  0  0  0  0  0  0  0  0
   34.7352   15.7017   -7.6090 C   0  0  0  0  0  0  0  0  0  0  0  0
   34.7170   15.6062   -8.9890 O   0  0  0  0  0  0  0  0  0  0  0  0
   33.3498   15.6198   -7.0553 C   0  0  0  0  0  0  0  0  0  0  0  0
   33.1882   14.8021   -5.9138 N   0  0  0  0  0  0  0  0  0  0  0  0
   32.0461   13.8960   -6.1168 C   0  0  0  0  0  0  0  0  0  0  0  0
   32.8620   15.6530   -4.7586 C   0  0  0  0  0  0  0  0  0  0  0  0
   34.3059   14.0018   -5.5465 C   0  0  0  0  0  0  0  0  0  0  0  0
  1  2  1  0  0  0
  2  3  1  0  0  0
  3  4  1  0  0  0
  4  5  1  0  0  0
  5  6  1  0  0  0
  6  8  1  0  0  0
  8  9  1  0  0  0
  9 10  1  0  0  0
  9 11  1  0  0  0
  9 12  1  0  0  0
  6  7  1  0  0  0
  7  2  1  0  0  0
M  CHG 1   9   1
M  END
> <minimizedAffinity>
-2.82288

> <CNNscore>
0.3880014420

> <CNNaffinity>
2.9331283569

> <CNN_VS>
1.1380580664

> <CNNaffinity_variance>
0.6028877497

$$$$
[H]C([H])([H])C1([H])OC([H])(C([H])([H])[N+](C([H])([H])[H])(C([H])([H])[H])C([H])([H])[H])C([H])([H])OC1([H])[H].[I-]


 12 12  0  0  0  0  0  0  0  0999 V2000
   37.0501   10.9186  -18.0636 C   0  0  0  0  0  0  0  0  0  0  0  0
   37.3622   11.0554  -16.5695 C   0  0  0  0  0  0  0  0  0  0  0  0
   38.8517   11.3409  -16.4825 C   0  0  0  0  0  0  0  0  0  0  0  0
   38.9590   12.7452  -16.3430 O   0  0  0  0  0  0  0  0  0  0  0  0
   38.5112   13.0106  -15.0336 C   0  0  0  0  0  0  0  0  0  0  0  0
   37.0553   12.5917  -14.8638 C   0  0  0  0  0  0  0  0  0  0  0  0
   36.5875   12.0610  -16.0527 O   0  0  0  0  0  0  0  0  0  0  0  0
   36.2769   13.8100  -14.4864 C   0  0  0  0  0  0  0  0  0  0  0  0
   35.3494   13.6483  -13.4321 N   0  0  0  0  0  0  0  0  0  0  0  0
   35.6422   12.4008  -12.7079 C   0  0  0  0  0  0  0  0  0  0  0  0
   33.9994   13.5088  -14.0005 C   0  0  0  0  0  0  0  0  0  0  0  0
   35.2967   14.6959  -12.4707 C   0  0  0  0  0  0  0  0  0  0  0  0
  1  2  1  0  0  0
  2  3  1  0  0  0
  3  4  1  0  0  0
  4  5  1  0  0  0
  5  6  1  0  0  0
  6  8  1  0  0  0
  8  9  1  0  0  0
  9 10  1  0  0  0
  9 11  1  0  0  0
  9 12  1  0  0  0
  6  7  1  0  0  0
  7  2  1  0  0  0
M  CHG 1   9   1
M  END
> <minimizedAffinity>
-4.23171

> <CNNscore>
0.3852909803

> <CNNaffinity>
3.9623229504

> <CNN_VS>
1.5266473293

> <CNNaffinity_variance>
0.1361325532

$$$$
[H]Sc1nnc(N([H])C(=O)N([H])N=C([H])c2c([H])c([H])c([H])c(OC([H])([H])[H])c2[H])s1


 23 24  0  0  0  0  0  0  0  0999 V2000
   41.6247   12.4844  -16.8590 N   0  0  0  0  0  0  0  0  0  0  0  0
   40.2888   12.4401  -16.4021 C   0  0  0  0  0  0  0  0  0  0  0  0
   39.9826   12.9891  -15.3148 O   0  0  0  0  0  0  0  0  0  0  0  0
   39.2792   11.7908  -17.1388 N   0  0  0  0  0  0  0  0  0  0  0  0
   41.8586   12.0206  -17.7677 H   0  0  0  0  0  0  0  0  0  0  0  0
   39.5058   11.3322  -18.0353 H   0  0  0  0  0  0  0  0  0  0  0  0
   37.9269   11.7460  -16.6764 C   0  0  0  0  0  0  0  0  0  0  0  0
   37.3883   12.2671  -15.5775 N   0  0  0  0  0  0  0  0  0  0  0  0
   36.1563   12.1169  -15.3416 N   0  0  0  0  0  0  0  0  0  0  0  0
   35.3988   11.4375  -16.1931 C   0  0  0  0  0  0  0  0  0  0  0  0
   33.6509   11.1370  -16.0070 S   0  0  0  0  0  0  0  0  0  0  0  0
   36.5439   11.0064  -17.3809 S   0  0  0  0  0  0  0  0  0  0  0  0
   32.9652   12.3040  -15.5714 H   0  0  0  0  0  0  0  0  0  0  0  0
   43.8687   12.6643  -16.1601 C   0  0  0  0  0  0  0  0  0  0  0  0
   42.6591   13.1015  -16.1885 N   0  0  0  0  0  0  0  0  0  0  0  0
   45.6183   15.1562  -13.9783 C   0  0  0  0  0  0  0  0  0  0  0  0
   46.9098   14.6805  -14.0602 C   0  0  0  0  0  0  0  0  0  0  0  0
   47.1848   13.5630  -14.8204 C   0  0  0  0  0  0  0  0  0  0  0  0
   46.1953   12.8968  -15.5111 C   0  0  0  0  0  0  0  0  0  0  0  0
   44.9129   13.3683  -15.4305 C   0  0  0  0  0  0  0  0  0  0  0  0
   44.6419   14.4822  -14.6720 C   0  0  0  0  0  0  0  0  0  0  0  0
   44.0021   16.5009  -12.7649 C   0  0  0  0  0  0  0  0  0  0  0  0
   45.3108   16.2687  -13.2285 O   0  0  0  0  0  0  0  0  0  0  0  0
 22 23  1  0  0  0
 23 16  1  0  0  0
 16 17  2  0  0  0
 17 18  1  0  0  0
 18 19  2  0  0  0
 19 20  1  0  0  0
 20 14  1  0  0  0
 14 15  2  0  0  0
 15  1  1  0  0  0
  1  2  1  0  0  0
  2  3  2  0  0  0
  2  4  1  0  0  0
  4  7  1  0  0  0
  7  8  2  0  0  0
  8  9  1  0  0  0
  9 10  2  0  0  0
 10 11  1  0  0  0
 10 12  1  0  0  0
 20 21  2  0  0  0
 21 16  1  0  0  0
 12  7  1  0  0  0
  1  5  1  0  0  0
  4  6  1  0  0  0
 11 13  1  0  0  0
M  END
> <minimizedAffinity>
-5.92441

> <CNNscore>
0.6586939096

> <CNNaffinity>
5.7556910515

> <CNN_VS>
3.7912385464

> <CNNaffinity_variance>
0.0221653543

$$$$
[H]Sc1nnc(N([H])C(=O)N([H])N=C([H])c2c([H])c([H])c([H])c(OC([H])([H])[H])c2[H])s1


 23 24  0  0  0  0  0  0  0  0999 V2000
   41.2558   12.0275  -17.5231 N   0  0  0  0  0  0  0  0  0  0  0  0
   39.9612   11.8300  -16.9936 C   0  0  0  0  0  0  0  0  0  0  0  0
   39.7914   11.8161  -15.7492 O   0  0  0  0  0  0  0  0  0  0  0  0
   38.8430   11.6461  -17.8299 N   0  0  0  0  0  0  0  0  0  0  0  0
   41.3753   12.0356  -18.5629 H   0  0  0  0  0  0  0  0  0  0  0  0
   38.9568   11.6535  -18.8558 H   0  0  0  0  0  0  0  0  0  0  0  0
   37.5326   11.4463  -17.2938 C   0  0  0  0  0  0  0  0  0  0  0  0
   36.6255   10.5206  -17.5929 N   0  0  0  0  0  0  0  0  0  0  0  0
   35.5098   10.5102  -17.0007 N   0  0  0  0  0  0  0  0  0  0  0  0
   35.2431   11.4257  -16.0780 C   0  0  0  0  0  0  0  0  0  0  0  0
   33.7226   11.5483  -15.1544 S   0  0  0  0  0  0  0  0  0  0  0  0
   36.6881   12.3313  -16.0857 S   0  0  0  0  0  0  0  0  0  0  0  0
   33.2753   10.2719  -14.7156 H   0  0  0  0  0  0  0  0  0  0  0  0
   42.5661   13.1936  -15.9485 C   0  0  0  0  0  0  0  0  0  0  0  0
   42.3904   12.2131  -16.7626 N   0  0  0  0  0  0  0  0  0  0  0  0
   46.1637   12.9877  -14.9260 C   0  0  0  0  0  0  0  0  0  0  0  0
   46.0961   13.5952  -13.6901 C   0  0  0  0  0  0  0  0  0  0  0  0
   44.8865   14.0579  -13.2158 C   0  0  0  0  0  0  0  0  0  0  0  0
   43.7259   13.9306  -13.9485 C   0  0  0  0  0  0  0  0  0  0  0  0
   43.7919   13.3277  -15.1755 C   0  0  0  0  0  0  0  0  0  0  0  0
   44.9989   12.8676  -15.6455 C   0  0  0  0  0  0  0  0  0  0  0  0
   48.5841   12.8356  -14.8210 C   0  0  0  0  0  0  0  0  0  0  0  0
   47.3551   12.5152  -15.4279 O   0  0  0  0  0  0  0  0  0  0  0  0
 22 23  1  0  0  0
 23 16  1  0  0  0
 16 17  2  0  0  0
 17 18  1  0  0  0
 18 19  2  0  0  0
 19 20  1  0  0  0
 20 14  1  0  0  0
 14 15  2  0  0  0
 15  1  1  0  0  0
  1  2  1  0  0  0
  2  3  2  0  0  0
  2  4  1  0  0  0
  4  7  1  0  0  0
  7  8  2  0  0  0
  8  9  1  0  0  0
  9 10  2  0  0  0
 10 11  1  0  0  0
 10 12  1  0  0  0
 20 21  2  0  0  0
 21 16  1  0  0  0
 12  7  1  0  0  0
  1  5  1  0  0  0
  4  6  1  0  0  0
 11 13  1  0  0  0
M  END
> <minimizedAffinity>
-6.02802

> <CNNscore>
0.6260491014

> <CNNaffinity>
5.6695480347

> <CNN_VS>
3.5494153500

> <CNNaffinity_variance>
0.0771957710

$$$$
[H]Sc1nnc(N([H])C(=O)N([H])N=C([H])c2c([H])c([H])c([H])c(OC([H])([H])[H])c2[H])s1


 23 24  0  0  0  0  0  0  0  0999 V2000
   41.3478   12.4939  -17.2860 N   0  0  0  0  0  0  0  0  0  0  0  0
   42.4279   12.6795  -16.3948 C   0  0  0  0  0  0  0  0  0  0  0  0
   42.2058   12.8292  -15.1677 O   0  0  0  0  0  0  0  0  0  0  0  0
   43.7614   12.7021  -16.8476 N   0  0  0  0  0  0  0  0  0  0  0  0
   41.5548   12.3711  -18.3047 H   0  0  0  0  0  0  0  0  0  0  0  0
   43.9696   12.5813  -17.8513 H   0  0  0  0  0  0  0  0  0  0  0  0
   44.8547   12.8899  -15.9454 C   0  0  0  0  0  0  0  0  0  0  0  0
   45.8962   12.1003  -15.6983 N   0  0  0  0  0  0  0  0  0  0  0  0
   46.7692   12.4467  -14.8536 N   0  0  0  0  0  0  0  0  0  0  0  0
   46.6459   13.6014  -14.2117 C   0  0  0  0  0  0  0  0  0  0  0  0
   47.7862   14.2332  -12.9950 S   0  0  0  0  0  0  0  0  0  0  0  0
   45.1926   14.1948  -14.8781 S   0  0  0  0  0  0  0  0  0  0  0  0
   49.1364   14.0437  -13.3986 H   0  0  0  0  0  0  0  0  0  0  0  0
   39.2190   11.4892  -17.1638 C   0  0  0  0  0  0  0  0  0  0  0  0
   40.0220   12.4618  -16.9100 N   0  0  0  0  0  0  0  0  0  0  0  0
   36.1241   12.2385  -15.1913 C   0  0  0  0  0  0  0  0  0  0  0  0
   35.1888   11.5667  -15.9495 C   0  0  0  0  0  0  0  0  0  0  0  0
   35.5819   10.8860  -17.0829 C   0  0  0  0  0  0  0  0  0  0  0  0
   36.8992   10.8554  -17.4877 C   0  0  0  0  0  0  0  0  0  0  0  0
   37.8284   11.5220  -16.7356 C   0  0  0  0  0  0  0  0  0  0  0  0
   37.4336   12.1995  -15.6067 C   0  0  0  0  0  0  0  0  0  0  0  0
   35.7773   12.3102  -12.7898 C   0  0  0  0  0  0  0  0  0  0  0  0
   35.7644   12.9270  -14.0550 O   0  0  0  0  0  0  0  0  0  0  0  0
 22 23  1  0  0  0
 23 16  1  0  0  0
 16 17  2  0  0  0
 17 18  1  0  0  0
 18 19  2  0  0  0
 19 20  1  0  0  0
 20 14  1  0  0  0
 14 15  2  0  0  0
 15  1  1  0  0  0
  1  2  1  0  0  0
  2  3  2  0  0  0
  2  4  1  0  0  0
  4  7  1  0  0  0
  7  8  2  0  0  0
  8  9  1  0  0  0
  9 10  2  0  0  0
 10 11  1  0  0  0
 10 12  1  0  0  0
 20 21  2  0  0  0
 21 16  1  0  0  0
 12  7  1  0  0  0
  1  5  1  0  0  0
  4  6  1  0  0  0
 11 13  1  0  0  0
M  END
> <minimizedAffinity>
-7.71399

> <CNNscore>
0.4542272985

> <CNNaffinity>
5.7238283157

> <CNN_VS>
2.5999190807

> <CNNaffinity_variance>
0.1111188978

$$$$
[H]Sc1nnc(N([H])C(=O)N([H])N=C([H])c2c([H])c([H])c([H])c(OC([H])([H])[H])c2[H])s1


 23 24  0  0  0  0  0  0  0  0999 V2000
   41.3142   12.8246  -17.1068 N   0  0  0  0  0  0  0  0  0  0  0  0
   42.2555   13.2154  -16.1288 C   0  0  0  0  0  0  0  0  0  0  0  0
   41.8677   13.5033  -14.9693 O   0  0  0  0  0  0  0  0  0  0  0  0
   43.6314   13.2926  -16.4195 N   0  0  0  0  0  0  0  0  0  0  0  0
   41.6584   12.5889  -18.0668 H   0  0  0  0  0  0  0  0  0  0  0  0
   43.9748   13.0610  -17.3649 H   0  0  0  0  0  0  0  0  0  0  0  0
   44.5842   13.6881  -15.4294 C   0  0  0  0  0  0  0  0  0  0  0  0
   44.8816   14.9024  -14.9753 N   0  0  0  0  0  0  0  0  0  0  0  0
   45.7663   15.0485  -14.0856 N   0  0  0  0  0  0  0  0  0  0  0  0
   46.3999   13.9871  -13.6035 C   0  0  0  0  0  0  0  0  0  0  0  0
   47.6685   14.0227  -12.3507 S   0  0  0  0  0  0  0  0  0  0  0  0
   45.6645   12.7322  -14.4938 S   0  0  0  0  0  0  0  0  0  0  0  0
   47.3297   14.9087  -11.2914 H   0  0  0  0  0  0  0  0  0  0  0  0
   39.3298   11.6229  -16.6893 C   0  0  0  0  0  0  0  0  0  0  0  0
   39.9564   12.7286  -16.8893 N   0  0  0  0  0  0  0  0  0  0  0  0
   35.9637   12.1540  -15.1343 C   0  0  0  0  0  0  0  0  0  0  0  0
   35.1670   11.5278  -16.0692 C   0  0  0  0  0  0  0  0  0  0  0  0
   35.7382   10.9475  -17.1824 C   0  0  0  0  0  0  0  0  0  0  0  0
   37.1001   10.9740  -17.3934 C   0  0  0  0  0  0  0  0  0  0  0  0
   37.8919   11.5954  -16.4658 C   0  0  0  0  0  0  0  0  0  0  0  0
   37.3197   12.1728  -15.3575 C   0  0  0  0  0  0  0  0  0  0  0  0
   34.1088   13.2421  -14.0082 C   0  0  0  0  0  0  0  0  0  0  0  0
   35.4248   12.7425  -14.0128 O   0  0  0  0  0  0  0  0  0  0  0  0
 22 23  1  0  0  0
 23 16  1  0  0  0
 16 17  2  0  0  0
 17 18  1  0  0  0
 18 19  2  0  0  0
 19 20  1  0  0  0
 20 14  1  0  0  0
 14 15  2  0  0  0
 15  1  1  0  0  0
  1  2  1  0  0  0
  2  3  2  0  0  0
  2  4  1  0  0  0
  4  7  1  0  0  0
  7  8  2  0  0  0
  8  9  1  0  0  0
  9 10  2  0  0  0
 10 11  1  0  0  0
 10 12  1  0  0  0
 20 21  2  0  0  0
 21 16  1  0  0  0
 12  7  1  0  0  0
  1  5  1  0  0  0
  4  6  1  0  0  0
 11 13  1  0  0  0
M  END
> <minimizedAffinity>
-6.99085

> <CNNscore>
0.4102320373

> <CNNaffinity>
5.5974183083

> <CNN_VS>
2.2962403297

> <CNNaffinity_variance>
0.0602825694

$$$$
[H]Sc1nnc(N([H])C(=O)N([H])N=C([H])c2c([H])c([H])c([H])c(OC([H])([H])[H])c2[H])s1


 23 24  0  0  0  0  0  0  0  0999 V2000
   40.1802   13.7269  -13.9281 N   0  0  0  0  0  0  0  0  0  0  0  0
   39.0203   13.1117  -14.4490 C   0  0  0  0  0  0  0  0  0  0  0  0
   39.1212   12.2838  -15.3882 O   0  0  0  0  0  0  0  0  0  0  0  0
   37.7397   13.4032  -13.9403 N   0  0  0  0  0  0  0  0  0  0  0  0
   40.0739   14.4139  -13.1455 H   0  0  0  0  0  0  0  0  0  0  0  0
   37.6308   14.0801  -13.1687 H   0  0  0  0  0  0  0  0  0  0  0  0
   36.5656   12.7804  -14.4676 C   0  0  0  0  0  0  0  0  0  0  0  0
   35.4045   12.5187  -13.8740 N   0  0  0  0  0  0  0  0  0  0  0  0
   34.4755   11.9539  -14.5173 N   0  0  0  0  0  0  0  0  0  0  0  0
   34.6598   11.6214  -15.7886 C   0  0  0  0  0  0  0  0  0  0  0  0
   33.4544   10.8225  -16.8319 S   0  0  0  0  0  0  0  0  0  0  0  0
   36.2576   12.1608  -16.0416 S   0  0  0  0  0  0  0  0  0  0  0  0
   32.1608   11.3873  -16.6603 H   0  0  0  0  0  0  0  0  0  0  0  0
   42.5240   13.6816  -13.6814 C   0  0  0  0  0  0  0  0  0  0  0  0
   41.4606   13.4873  -14.3790 N   0  0  0  0  0  0  0  0  0  0  0  0
   46.2285   13.1884  -13.9338 C   0  0  0  0  0  0  0  0  0  0  0  0
   46.3381   12.8813  -15.2735 C   0  0  0  0  0  0  0  0  0  0  0  0
   45.2094   12.8409  -16.0649 C   0  0  0  0  0  0  0  0  0  0  0  0
   43.9567   13.1015  -15.5520 C   0  0  0  0  0  0  0  0  0  0  0  0
   43.8469   13.4065  -14.2222 C   0  0  0  0  0  0  0  0  0  0  0  0
   44.9737   13.4460  -13.4360 C   0  0  0  0  0  0  0  0  0  0  0  0
   47.2207   13.1116  -11.7197 C   0  0  0  0  0  0  0  0  0  0  0  0
   47.3354   13.2371  -13.1171 O   0  0  0  0  0  0  0  0  0  0  0  0
 22 23  1  0  0  0
 23 16  1  0  0  0
 16 17  2  0  0  0
 17 18  1  0  0  0
 18 19  2  0  0  0
 19 20  1  0  0  0
 20 14  1  0  0  0
 14 15  2  0  0  0
 15  1  1  0  0  0
  1  2  1  0  0  0
  2  3  2  0  0  0
  2  4  1  0  0  0
  4  7  1  0  0  0
  7  8  2  0  0  0
  8  9  1  0  0  0
  9 10  2  0  0  0
 10 11  1  0  0  0
 10 12  1  0  0  0
 20 21  2  0  0  0
 21 16  1  0  0  0
 12  7  1  0  0  0
  1  5  1  0  0  0
  4  6  1  0  0  0
 11 13  1  0  0  0
M  END
> <minimizedAffinity>
-5.80010

> <CNNscore>
0.3091122210

> <CNNaffinity>
5.2908387184

> <CNN_VS>
1.6354628801

> <CNNaffinity_variance>
0.0526872873

$$$$
[H]Sc1nnc(N([H])C(=O)N([H])N=C([H])c2c([H])c([H])c([H])c(OC([H])([H])[H])c2[H])s1


 23 24  0  0  0  0  0  0  0  0999 V2000
   41.5133   12.8397  -16.9350 N   0  0  0  0  0  0  0  0  0  0  0  0
   42.6269   12.9544  -16.0735 C   0  0  0  0  0  0  0  0  0  0  0  0
   42.4500   13.0421  -14.8331 O   0  0  0  0  0  0  0  0  0  0  0  0
   43.9445   12.9736  -16.5708 N   0  0  0  0  0  0  0  0  0  0  0  0
   41.6829   12.7678  -17.9653 H   0  0  0  0  0  0  0  0  0  0  0  0
   44.1158   12.9030  -17.5862 H   0  0  0  0  0  0  0  0  0  0  0  0
   45.0717   13.0897  -15.6987 C   0  0  0  0  0  0  0  0  0  0  0  0
   46.0405   12.2149  -15.4433 N   0  0  0  0  0  0  0  0  0  0  0  0
   46.9619   12.5073  -14.6301 N   0  0  0  0  0  0  0  0  0  0  0  0
   46.9621   13.6906  -14.0298 C   0  0  0  0  0  0  0  0  0  0  0  0
   48.1850   14.2552  -12.8612 S   0  0  0  0  0  0  0  0  0  0  0  0
   45.5552   14.3941  -14.6884 S   0  0  0  0  0  0  0  0  0  0  0  0
   49.5017   13.9252  -13.2847 H   0  0  0  0  0  0  0  0  0  0  0  0
   39.4158   11.8039  -16.6458 C   0  0  0  0  0  0  0  0  0  0  0  0
   40.2006   12.8149  -16.5149 N   0  0  0  0  0  0  0  0  0  0  0  0
   35.6871   11.4641  -16.5366 C   0  0  0  0  0  0  0  0  0  0  0  0
   35.4406   11.9413  -15.2668 C   0  0  0  0  0  0  0  0  0  0  0  0
   36.4880   12.3624  -14.4744 C   0  0  0  0  0  0  0  0  0  0  0  0
   37.7925   12.3209  -14.9178 C   0  0  0  0  0  0  0  0  0  0  0  0
   38.0382   11.8474  -16.1783 C   0  0  0  0  0  0  0  0  0  0  0  0
   36.9923   11.4284  -16.9656 C   0  0  0  0  0  0  0  0  0  0  0  0
   33.3787   10.7776  -16.8406 C   0  0  0  0  0  0  0  0  0  0  0  0
   34.6642   11.0364  -17.3523 O   0  0  0  0  0  0  0  0  0  0  0  0
 22 23  1  0  0  0
 23 16  1  0  0  0
 16 17  2  0  0  0
 17 18  1  0  0  0
 18 19  2  0  0  0
 19 20  1  0  0  0
 20 14  1  0  0  0
 14 15  2  0  0  0
 15  1  1  0  0  0
  1  2  1  0  0  0
  2  3  2  0  0  0
  2  4  1  0  0  0
  4  7  1  0  0  0
  7  8  2  0  0  0
  8  9  1  0  0  0
  9 10  2  0  0  0
 10 11  1  0  0  0
 10 12  1  0  0  0
 20 21  2  0  0  0
 21 16  1  0  0  0
 12  7  1  0  0  0
  1  5  1  0  0  0
  4  6  1  0  0  0
 11 13  1  0  0  0
M  END
> <minimizedAffinity>
-7.47361

> <CNNscore>
0.2820442319

> <CNNaffinity>
5.5374474525

> <CNN_VS>
1.5618051291

> <CNNaffinity_variance>
0.1467663944

$$$$
[H]Sc1nnc(N([H])C(=O)N([H])N=C([H])c2c([H])c([H])c([H])c(OC([H])([H])[H])c2[H])s1


 23 24  0  0  0  0  0  0  0  0999 V2000
   40.1430   14.1791  -13.6743 N   0  0  0  0  0  0  0  0  0  0  0  0
   39.0362   13.4532  -14.1675 C   0  0  0  0  0  0  0  0  0  0  0  0
   39.2232   12.4617  -14.9155 O   0  0  0  0  0  0  0  0  0  0  0  0
   37.7142   13.8132  -13.8411 N   0  0  0  0  0  0  0  0  0  0  0  0
   39.9651   15.0020  -13.0525 H   0  0  0  0  0  0  0  0  0  0  0  0
   37.5346   14.6240  -13.2283 H   0  0  0  0  0  0  0  0  0  0  0  0
   36.5938   13.0783  -14.3403 C   0  0  0  0  0  0  0  0  0  0  0  0
   35.5042   12.6567  -13.7046 N   0  0  0  0  0  0  0  0  0  0  0  0
   34.6140   12.0133  -14.3285 N   0  0  0  0  0  0  0  0  0  0  0  0
   34.7675   11.7580  -15.6215 C   0  0  0  0  0  0  0  0  0  0  0  0
   33.6089   10.8661  -16.6424 S   0  0  0  0  0  0  0  0  0  0  0  0
   36.2762   12.4926  -15.9253 S   0  0  0  0  0  0  0  0  0  0  0  0
   32.2695   11.2663  -16.3820 H   0  0  0  0  0  0  0  0  0  0  0  0
   42.4558   14.2384  -13.2230 C   0  0  0  0  0  0  0  0  0  0  0  0
   41.4595   13.8811  -13.9543 N   0  0  0  0  0  0  0  0  0  0  0  0
   45.3981   12.8099  -15.0486 C   0  0  0  0  0  0  0  0  0  0  0  0
   46.4199   13.2406  -14.2294 C   0  0  0  0  0  0  0  0  0  0  0  0
   46.1328   13.9843  -13.1039 C   0  0  0  0  0  0  0  0  0  0  0  0
   44.8379   14.3155  -12.7668 C   0  0  0  0  0  0  0  0  0  0  0  0
   43.8228   13.8883  -13.5795 C   0  0  0  0  0  0  0  0  0  0  0  0
   44.1121   13.1474  -14.7005 C   0  0  0  0  0  0  0  0  0  0  0  0
   44.7129   11.9809  -17.2249 C   0  0  0  0  0  0  0  0  0  0  0  0
   45.6511   12.0662  -16.1789 O   0  0  0  0  0  0  0  0  0  0  0  0
 22 23  1  0  0  0
 23 16  1  0  0  0
 16 17  2  0  0  0
 17 18  1  0  0  0
 18 19  2  0  0  0
 19 20  1  0  0  0
 20 14  1  0  0  0
 14 15  2  0  0  0
 15  1  1  0  0  0
  1  2  1  0  0  0
  2  3  2  0  0  0
  2  4  1  0  0  0
  4  7  1  0  0  0
  7  8  2  0  0  0
  8  9  1  0  0  0
  9 10  2  0  0  0
 10 11  1  0  0  0
 10 12  1  0  0  0
 20 21  2  0  0  0
 21 16  1  0  0  0
 12  7  1  0  0  0
  1  5  1  0  0  0
  4  6  1  0  0  0
 11 13  1  0  0  0
M  END
> <minimizedAffinity>
-5.94472

> <CNNscore>
0.2652150393

> <CNNaffinity>
5.2296166420

> <CNN_VS>
1.3869730234

> <CNNaffinity_variance>
0.0387850106

$$$$
[H]Sc1nnc(N([H])C(=O)N([H])N=C([H])c2c([H])c([H])c([H])c(OC([H])([H])[H])c2[H])s1


 23 24  0  0  0  0  0  0  0  0999 V2000
   41.3992   12.8380  -16.9514 N   0  0  0  0  0  0  0  0  0  0  0  0
   42.5517   12.8806  -16.1357 C   0  0  0  0  0  0  0  0  0  0  0  0
   42.4517   12.6652  -14.9023 O   0  0  0  0  0  0  0  0  0  0  0  0
   43.8238   13.1610  -16.6714 N   0  0  0  0  0  0  0  0  0  0  0  0
   41.5047   13.0204  -17.9766 H   0  0  0  0  0  0  0  0  0  0  0  0
   43.9318   13.3415  -17.6819 H   0  0  0  0  0  0  0  0  0  0  0  0
   44.9903   13.2041  -15.8456 C   0  0  0  0  0  0  0  0  0  0  0  0
   46.0205   12.3647  -15.7879 N   0  0  0  0  0  0  0  0  0  0  0  0
   46.9685   12.5776  -14.9806 N   0  0  0  0  0  0  0  0  0  0  0  0
   46.9353   13.6418  -14.1887 C   0  0  0  0  0  0  0  0  0  0  0  0
   48.1886   14.0830  -12.9993 S   0  0  0  0  0  0  0  0  0  0  0  0
   45.4553   14.3509  -14.6521 S   0  0  0  0  0  0  0  0  0  0  0  0
   49.4957   13.9157  -13.5335 H   0  0  0  0  0  0  0  0  0  0  0  0
   39.5672   13.1811  -15.5084 C   0  0  0  0  0  0  0  0  0  0  0  0
   40.1273   12.5701  -16.4923 N   0  0  0  0  0  0  0  0  0  0  0  0
   36.5412   12.7035  -13.3530 C   0  0  0  0  0  0  0  0  0  0  0  0
   35.6589   12.2035  -14.2870 C   0  0  0  0  0  0  0  0  0  0  0  0
   36.0641   12.0324  -15.5942 C   0  0  0  0  0  0  0  0  0  0  0  0
   37.3417   12.3498  -16.0028 C   0  0  0  0  0  0  0  0  0  0  0  0
   38.2184   12.8462  -15.0762 C   0  0  0  0  0  0  0  0  0  0  0  0
   37.8117   13.0157  -13.7743 C   0  0  0  0  0  0  0  0  0  0  0  0
   36.1947   14.1598  -11.4421 C   0  0  0  0  0  0  0  0  0  0  0  0
   36.1681   12.8861  -12.0407 O   0  0  0  0  0  0  0  0  0  0  0  0
 22 23  1  0  0  0
 23 16  1  0  0  0
 16 17  2  0  0  0
 17 18  1  0  0  0
 18 19  2  0  0  0
 19 20  1  0  0  0
 20 14  1  0  0  0
 14 15  2  0  0  0
 15  1  1  0  0  0
  1  2  1  0  0  0
  2  3  2  0  0  0
  2  4  1  0  0  0
  4  7  1  0  0  0
  7  8  2  0  0  0
  8  9  1  0  0  0
  9 10  2  0  0  0
 10 11  1  0  0  0
 10 12  1  0  0  0
 20 21  2  0  0  0
 21 16  1  0  0  0
 12  7  1  0  0  0
  1  5  1  0  0  0
  4  6  1  0  0  0
 11 13  1  0  0  0
M  END
> <minimizedAffinity>
-6.87418

> <CNNscore>
0.2289366126

> <CNNaffinity>
5.3036413193

> <CNN_VS>
1.2141976357

> <CNNaffinity_variance>
0.0603458174

$$$$
[H]Sc1nnc(N([H])C(=O)N([H])N=C([H])c2c([H])c([H])c([H])c(OC([H])([H])[H])c2[H])s1


 23 24  0  0  0  0  0  0  0  0999 V2000
   36.5028   15.5415  -11.0811 N   0  0  0  0  0  0  0  0  0  0  0  0
   36.1685   14.5276  -12.0060 C   0  0  0  0  0  0  0  0  0  0  0  0
   36.1312   13.3292  -11.6317 O   0  0  0  0  0  0  0  0  0  0  0  0
   35.8727   14.8248  -13.3505 N   0  0  0  0  0  0  0  0  0  0  0  0
   36.5282   16.5337  -11.4136 H   0  0  0  0  0  0  0  0  0  0  0  0
   35.8966   15.8019  -13.6823 H   0  0  0  0  0  0  0  0  0  0  0  0
   35.5342   13.7983  -14.2867 C   0  0  0  0  0  0  0  0  0  0  0  0
   36.2917   13.2026  -15.2034 N   0  0  0  0  0  0  0  0  0  0  0  0
   35.8024   12.3055  -15.9460 N   0  0  0  0  0  0  0  0  0  0  0  0
   34.5293   11.9574  -15.8102 C   0  0  0  0  0  0  0  0  0  0  0  0
   33.6901   10.7148  -16.7755 S   0  0  0  0  0  0  0  0  0  0  0  0
   34.0392   12.9891  -14.5440 S   0  0  0  0  0  0  0  0  0  0  0  0
   34.4952    9.5551  -16.9450 H   0  0  0  0  0  0  0  0  0  0  0  0
   37.9973   15.2325   -9.2846 C   0  0  0  0  0  0  0  0  0  0  0  0
   36.8026   15.3199   -9.7540 N   0  0  0  0  0  0  0  0  0  0  0  0
   39.5655   14.0421   -6.0981 C   0  0  0  0  0  0  0  0  0  0  0  0
   38.6768   14.5666   -5.1838 C   0  0  0  0  0  0  0  0  0  0  0  0
   37.5894   15.2942   -5.6201 C   0  0  0  0  0  0  0  0  0  0  0  0
   37.3592   15.5170   -6.9608 C   0  0  0  0  0  0  0  0  0  0  0  0
   38.2410   14.9968   -7.8693 C   0  0  0  0  0  0  0  0  0  0  0  0
   39.3238   14.2722   -7.4314 C   0  0  0  0  0  0  0  0  0  0  0  0
   41.1090   12.1983   -6.4306 C   0  0  0  0  0  0  0  0  0  0  0  0
   40.6603   13.3116   -5.6952 O   0  0  0  0  0  0  0  0  0  0  0  0
 22 23  1  0  0  0
 23 16  1  0  0  0
 16 17  2  0  0  0
 17 18  1  0  0  0
 18 19  2  0  0  0
 19 20  1  0  0  0
 20 14  1  0  0  0
 14 15  2  0  0  0
 15  1  1  0  0  0
  1  2  1  0  0  0
  2  3  2  0  0  0
  2  4  1  0  0  0
  4  7  1  0  0  0
  7  8  2  0  0  0
  8  9  1  0  0  0
  9 10  2  0  0  0
 10 11  1  0  0  0
 10 12  1  0  0  0
 20 21  2  0  0  0
 21 16  1  0  0  0
 12  7  1  0  0  0
  1  5  1  0  0  0
  4  6  1  0  0  0
 11 13  1  0  0  0
M  END
> <minimizedAffinity>
-5.21377

> <CNNscore>
0.1960081756

> <CNNaffinity>
4.7493095398

> <CNN_VS>
0.9309034944

> <CNNaffinity_variance>
0.1951955110

$$$$
[H]c1c([H])c(-c2c([H])c(SC([H])([H])[H])n([H])c2-c2c([H])c([H])c(S(=O)(=O)C([H])([H])[H])c([H])c2[H])c([H])c([H])c1F


 25 27  0  0  0  0  0  0  0  0999 V2000
   40.1815   11.9482  -17.7460 C   0  0  0  0  0  0  0  0  0  0  0  0
   39.2891   12.4838  -16.8052 C   0  0  0  0  0  0  0  0  0  0  0  0
   40.0187   13.0214  -15.7740 C   0  0  0  0  0  0  0  0  0  0  0  0
   41.3379   12.8176  -16.0796 C   0  0  0  0  0  0  0  0  0  0  0  0
   41.4147   12.1727  -17.2659 N   0  0  0  0  0  0  0  0  0  0  0  0
   42.2796   11.8809  -17.7589 H   0  0  0  0  0  0  0  0  0  0  0  0
   39.4949   13.6788  -14.5903 C   0  0  0  0  0  0  0  0  0  0  0  0
   38.4505   13.1219  -13.8810 C   0  0  0  0  0  0  0  0  0  0  0  0
   37.9302   13.7038  -12.7727 C   0  0  0  0  0  0  0  0  0  0  0  0
   38.4419   14.8922  -12.3159 C   0  0  0  0  0  0  0  0  0  0  0  0
   37.8926   15.4303  -11.2141 F   0  0  0  0  0  0  0  0  0  0  0  0
   39.4927   15.4768  -13.0083 C   0  0  0  0  0  0  0  0  0  0  0  0
   40.0099   14.8770  -14.1288 C   0  0  0  0  0  0  0  0  0  0  0  0
   42.4486   13.2323  -15.2450 C   0  0  0  0  0  0  0  0  0  0  0  0
   43.6439   13.6463  -15.8424 C   0  0  0  0  0  0  0  0  0  0  0  0
   44.6530   14.0295  -14.9854 C   0  0  0  0  0  0  0  0  0  0  0  0
   44.5446   14.0243  -13.6170 C   0  0  0  0  0  0  0  0  0  0  0  0
   43.3610   13.6137  -13.0379 C   0  0  0  0  0  0  0  0  0  0  0  0
   42.3443   13.2288  -13.8572 C   0  0  0  0  0  0  0  0  0  0  0  0
   45.8417   14.5210  -12.5630 S   0  0  0  0  0  0  0  0  0  0  0  0
   47.3125   13.6235  -13.0202 C   0  0  0  0  0  0  0  0  0  0  0  0
   45.4870   14.1398  -11.1403 O   0  0  0  0  0  0  0  0  0  0  0  0
   46.0340   15.9951  -12.5890 O   0  0  0  0  0  0  0  0  0  0  0  0
   38.0727   10.6659  -19.4265 C   0  0  0  0  0  0  0  0  0  0  0  0
   39.8123   11.1253  -19.2762 S   0  0  0  0  0  0  0  0  0  0  0  0
 24 25  1  0  0  0
 25  1  1  0  0  0
  1  2  2  0  0  0
  2  3  1  0  0  0
  3  7  1  0  0  0
  7  8  2  0  0  0
  8  9  1  0  0  0
  9 10  2  0  0  0
 10 11  1  0  0  0
 10 12  1  0  0  0
 12 13  2  0  0  0
  3  4  2  0  0  0
  4 14  1  0  0  0
 14 15  2  0  0  0
 15 16  1  0  0  0
 16 17  2  0  0  0
 17 20  1  0  0  0
 20 21  1  0  0  0
 20 22  2  0  0  0
 20 23  2  0  0  0
 17 18  1  0  0  0
 18 19  2  0  0  0
  4  5  1  0  0  0
  5  1  1  0  0  0
 13  7  1  0  0  0
 19 14  1  0  0  0
  5  6  1  0  0  0
M  END
> <minimizedAffinity>
-6.90091

> <CNNscore>
0.6042525172

> <CNNaffinity>
6.3834304810

> <CNN_VS>
3.8572039604

> <CNNaffinity_variance>
0.2037110627

$$$$
[H]c1c([H])c(-c2c([H])c(SC([H])([H])[H])n([H])c2-c2c([H])c([H])c(S(=O)(=O)C([H])([H])[H])c([H])c2[H])c([H])c([H])c1F


 25 27  0  0  0  0  0  0  0  0999 V2000
   39.4855   11.8293  -17.5208 C   0  0  0  0  0  0  0  0  0  0  0  0
   38.3229   11.9910  -16.7523 C   0  0  0  0  0  0  0  0  0  0  0  0
   38.6533   12.6690  -15.6052 C   0  0  0  0  0  0  0  0  0  0  0  0
   39.9983   12.9182  -15.6712 C   0  0  0  0  0  0  0  0  0  0  0  0
   40.4789   12.4070  -16.8273 N   0  0  0  0  0  0  0  0  0  0  0  0
   41.4613   12.4391  -17.1592 H   0  0  0  0  0  0  0  0  0  0  0  0
   37.7532   13.0489  -14.5314 C   0  0  0  0  0  0  0  0  0  0  0  0
   37.1919   14.3089  -14.4972 C   0  0  0  0  0  0  0  0  0  0  0  0
   36.3493   14.7047  -13.5120 C   0  0  0  0  0  0  0  0  0  0  0  0
   36.0243   13.8403  -12.4971 C   0  0  0  0  0  0  0  0  0  0  0  0
   35.1858   14.2786  -11.5432 F   0  0  0  0  0  0  0  0  0  0  0  0
   36.5731   12.5658  -12.5042 C   0  0  0  0  0  0  0  0  0  0  0  0
   37.4248   12.1781  -13.5077 C   0  0  0  0  0  0  0  0  0  0  0  0
   40.7563   13.6144  -14.6500 C   0  0  0  0  0  0  0  0  0  0  0  0
   42.0630   13.2062  -14.3616 C   0  0  0  0  0  0  0  0  0  0  0  0
   42.7219   13.9177  -13.3824 C   0  0  0  0  0  0  0  0  0  0  0  0
   42.1745   14.9744  -12.6981 C   0  0  0  0  0  0  0  0  0  0  0  0
   40.8846   15.3688  -12.9901 C   0  0  0  0  0  0  0  0  0  0  0  0
   40.2063   14.6862  -13.9530 C   0  0  0  0  0  0  0  0  0  0  0  0
   43.0404   15.8555  -11.4676 S   0  0  0  0  0  0  0  0  0  0  0  0
   44.0593   14.7050  -10.5643 C   0  0  0  0  0  0  0  0  0  0  0  0
   42.0395   16.4511  -10.4989 O   0  0  0  0  0  0  0  0  0  0  0  0
   43.8176   16.9831  -12.0464 O   0  0  0  0  0  0  0  0  0  0  0  0
   38.0879   10.7214  -19.9156 C   0  0  0  0  0  0  0  0  0  0  0  0
   39.6670   11.0281  -19.0957 S   0  0  0  0  0  0  0  0  0  0  0  0
 24 25  1  0  0  0
 25  1  1  0  0  0
  1  2  2  0  0  0
  2  3  1  0  0  0
  3  7  1  0  0  0
  7  8  2  0  0  0
  8  9  1  0  0  0
  9 10  2  0  0  0
 10 11  1  0  0  0
 10 12  1  0  0  0
 12 13  2  0  0  0
  3  4  2  0  0  0
  4 14  1  0  0  0
 14 15  2  0  0  0
 15 16  1  0  0  0
 16 17  2  0  0  0
 17 20  1  0  0  0
 20 21  1  0  0  0
 20 22  2  0  0  0
 20 23  2  0  0  0
 17 18  1  0  0  0
 18 19  2  0  0  0
  4  5  1  0  0  0
  5  1  1  0  0  0
 13  7  1  0  0  0
 19 14  1  0  0  0
  5  6  1  0  0  0
M  END
> <minimizedAffinity>
-6.94852

> <CNNscore>
0.5192746520

> <CNNaffinity>
6.3999357224

> <CNN_VS>
3.3233244419

> <CNNaffinity_variance>
0.3158901632

$$$$
[H]c1c([H])c(-c2c([H])c(SC([H])([H])[H])n([H])c2-c2c([H])c([H])c(S(=O)(=O)C([H])([H])[H])c([H])c2[H])c([H])c([H])c1F


 25 27  0  0  0  0  0  0  0  0999 V2000
   42.8296   10.8621   -4.7722 C   0  0  0  0  0  0  0  0  0  0  0  0
   41.5656   11.4116   -5.0339 C   0  0  0  0  0  0  0  0  0  0  0  0
   41.7410   12.6450   -5.6107 C   0  0  0  0  0  0  0  0  0  0  0  0
   43.0925   12.8468   -5.7003 C   0  0  0  0  0  0  0  0  0  0  0  0
   43.7280   11.7665   -5.1925 N   0  0  0  0  0  0  0  0  0  0  0  0
   44.7534   11.6254   -5.1230 H   0  0  0  0  0  0  0  0  0  0  0  0
   40.6978   13.5577   -6.0426 C   0  0  0  0  0  0  0  0  0  0  0  0
   40.2545   14.5638   -5.2087 C   0  0  0  0  0  0  0  0  0  0  0  0
   39.2815   15.4351   -5.5715 C   0  0  0  0  0  0  0  0  0  0  0  0
   38.6974   15.3366   -6.8092 C   0  0  0  0  0  0  0  0  0  0  0  0
   37.7371   16.2225   -7.1227 F   0  0  0  0  0  0  0  0  0  0  0  0
   39.1223   14.3348   -7.6702 C   0  0  0  0  0  0  0  0  0  0  0  0
   40.1082   13.4594   -7.2902 C   0  0  0  0  0  0  0  0  0  0  0  0
   43.7110   14.0373   -6.2502 C   0  0  0  0  0  0  0  0  0  0  0  0
   44.0571   15.0917   -5.3983 C   0  0  0  0  0  0  0  0  0  0  0  0
   44.6444   16.1879   -5.9923 C   0  0  0  0  0  0  0  0  0  0  0  0
   44.8979   16.2912   -7.3375 C   0  0  0  0  0  0  0  0  0  0  0  0
   44.5523   15.2455   -8.1691 C   0  0  0  0  0  0  0  0  0  0  0  0
   43.9702   14.1476   -7.6132 C   0  0  0  0  0  0  0  0  0  0  0  0
   45.6477   17.6927   -8.0542 S   0  0  0  0  0  0  0  0  0  0  0  0
   45.3889   17.6291   -9.8168 C   0  0  0  0  0  0  0  0  0  0  0  0
   47.1399   17.6308   -7.8002 O   0  0  0  0  0  0  0  0  0  0  0  0
   45.1490   18.9530   -7.4430 O   0  0  0  0  0  0  0  0  0  0  0  0
   44.9133    9.2177   -3.4050 C   0  0  0  0  0  0  0  0  0  0  0  0
   43.2224    9.2955   -4.0329 S   0  0  0  0  0  0  0  0  0  0  0  0
 24 25  1  0  0  0
 25  1  1  0  0  0
  1  2  2  0  0  0
  2  3  1  0  0  0
  3  7  1  0  0  0
  7  8  2  0  0  0
  8  9  1  0  0  0
  9 10  2  0  0  0
 10 11  1  0  0  0
 10 12  1  0  0  0
 12 13  2  0  0  0
  3  4  2  0  0  0
  4 14  1  0  0  0
 14 15  2  0  0  0
 15 16  1  0  0  0
 16 17  2  0  0  0
 17 20  1  0  0  0
 20 21  1  0  0  0
 20 22  2  0  0  0
 20 23  2  0  0  0
 17 18  1  0  0  0
 18 19  2  0  0  0
  4  5  1  0  0  0
  5  1  1  0  0  0
 13  7  1  0  0  0
 19 14  1  0  0  0
  5  6  1  0  0  0
M  END
> <minimizedAffinity>
-3.89444

> <CNNscore>
0.4220938981

> <CNNaffinity>
4.7787408829

> <CNN_VS>
2.0170774460

> <CNNaffinity_variance>
0.3350262642

$$$$
[H]c1c([H])c(-c2c([H])c(SC([H])([H])[H])n([H])c2-c2c([H])c([H])c(S(=O)(=O)C([H])([H])[H])c([H])c2[H])c([H])c([H])c1F


 25 27  0  0  0  0  0  0  0  0999 V2000
   41.8207   15.9009   -5.0965 C   0  0  0  0  0  0  0  0  0  0  0  0
   40.8074   16.7091   -4.5595 C   0  0  0  0  0  0  0  0  0  0  0  0
   39.8031   16.8187   -5.4890 C   0  0  0  0  0  0  0  0  0  0  0  0
   40.1965   16.0883   -6.5786 C   0  0  0  0  0  0  0  0  0  0  0  0
   41.4087   15.5457   -6.3236 N   0  0  0  0  0  0  0  0  0  0  0  0
   41.9642   14.9415   -6.9581 H   0  0  0  0  0  0  0  0  0  0  0  0
   38.5648   17.5628   -5.3456 C   0  0  0  0  0  0  0  0  0  0  0  0
   37.4541   16.9760   -4.7747 C   0  0  0  0  0  0  0  0  0  0  0  0
   36.2785   17.6340   -4.6245 C   0  0  0  0  0  0  0  0  0  0  0  0
   36.1597   18.9340   -5.0471 C   0  0  0  0  0  0  0  0  0  0  0  0
   34.9745   19.5438   -4.8773 F   0  0  0  0  0  0  0  0  0  0  0  0
   37.2598   19.5513   -5.6253 C   0  0  0  0  0  0  0  0  0  0  0  0
   38.4439   18.8736   -5.7713 C   0  0  0  0  0  0  0  0  0  0  0  0
   39.4204   15.9434   -7.7947 C   0  0  0  0  0  0  0  0  0  0  0  0
   38.4624   14.9279   -7.8853 C   0  0  0  0  0  0  0  0  0  0  0  0
   37.7616   14.8547   -9.0698 C   0  0  0  0  0  0  0  0  0  0  0  0
   37.9529   15.7039  -10.1313 C   0  0  0  0  0  0  0  0  0  0  0  0
   38.9007   16.7020  -10.0316 C   0  0  0  0  0  0  0  0  0  0  0  0
   39.6102   16.8012   -8.8741 C   0  0  0  0  0  0  0  0  0  0  0  0
   37.0435   15.5846  -11.6142 S   0  0  0  0  0  0  0  0  0  0  0  0
   36.0369   14.1152  -11.5398 C   0  0  0  0  0  0  0  0  0  0  0  0
   38.0118   15.4277  -12.7687 O   0  0  0  0  0  0  0  0  0  0  0  0
   36.2495   16.8154  -11.8697 O   0  0  0  0  0  0  0  0  0  0  0  0
   44.7949   16.1571   -5.1583 C   0  0  0  0  0  0  0  0  0  0  0  0
   43.3591   15.4164   -4.3525 S   0  0  0  0  0  0  0  0  0  0  0  0
 24 25  1  0  0  0
 25  1  1  0  0  0
  1  2  2  0  0  0
  2  3  1  0  0  0
  3  7  1  0  0  0
  7  8  2  0  0  0
  8  9  1  0  0  0
  9 10  2  0  0  0
 10 11  1  0  0  0
 10 12  1  0  0  0
 12 13  2  0  0  0
  3  4  2  0  0  0
  4 14  1  0  0  0
 14 15  2  0  0  0
 15 16  1  0  0  0
 16 17  2  0  0  0
 17 20  1  0  0  0
 20 21  1  0  0  0
 20 22  2  0  0  0
 20 23  2  0  0  0
 17 18  1  0  0  0
 18 19  2  0  0  0
  4  5  1  0  0  0
  5  1  1  0  0  0
 13  7  1  0  0  0
 19 14  1  0  0  0
  5  6  1  0  0  0
M  END
> <minimizedAffinity>
-4.17548

> <CNNscore>
0.3951425850

> <CNNaffinity>
5.0176248550

> <CNN_VS>
1.9826772213

> <CNNaffinity_variance>
0.7166394591

$$$$
[H]c1c([H])c(-c2c([H])c(SC([H])([H])[H])n([H])c2-c2c([H])c([H])c(S(=O)(=O)C([H])([H])[H])c([H])c2[H])c([H])c([H])c1F


 25 27  0  0  0  0  0  0  0  0999 V2000
   42.4870   13.6340  -14.1708 C   0  0  0  0  0  0  0  0  0  0  0  0
   42.2455   12.9697  -15.3827 C   0  0  0  0  0  0  0  0  0  0  0  0
   40.8877   12.8560  -15.5507 C   0  0  0  0  0  0  0  0  0  0  0  0
   40.3074   13.4423  -14.4575 C   0  0  0  0  0  0  0  0  0  0  0  0
   41.2830   13.9028  -13.6420 N   0  0  0  0  0  0  0  0  0  0  0  0
   41.1552   14.3941  -12.7373 H   0  0  0  0  0  0  0  0  0  0  0  0
   40.2001   12.2362  -16.6690 C   0  0  0  0  0  0  0  0  0  0  0  0
   39.0765   11.4625  -16.4619 C   0  0  0  0  0  0  0  0  0  0  0  0
   38.4067   10.8640  -17.4772 C   0  0  0  0  0  0  0  0  0  0  0  0
   38.8399   11.0162  -18.7702 C   0  0  0  0  0  0  0  0  0  0  0  0
   38.1434   10.4033  -19.7421 F   0  0  0  0  0  0  0  0  0  0  0  0
   39.9673   11.7888  -19.0101 C   0  0  0  0  0  0  0  0  0  0  0  0
   40.6359   12.3890  -17.9731 C   0  0  0  0  0  0  0  0  0  0  0  0
   38.8774   13.5342  -14.2362 C   0  0  0  0  0  0  0  0  0  0  0  0
   38.2282   14.7600  -14.4183 C   0  0  0  0  0  0  0  0  0  0  0  0
   36.8685   14.7691  -14.1934 C   0  0  0  0  0  0  0  0  0  0  0  0
   36.1439   13.6676  -13.8113 C   0  0  0  0  0  0  0  0  0  0  0  0
   36.7942   12.4633  -13.6341 C   0  0  0  0  0  0  0  0  0  0  0  0
   38.1378   12.4208  -13.8485 C   0  0  0  0  0  0  0  0  0  0  0  0
   34.4221   13.7150  -13.5402 S   0  0  0  0  0  0  0  0  0  0  0  0
   34.0988   14.8070  -12.1688 C   0  0  0  0  0  0  0  0  0  0  0  0
   33.9512   12.3283  -13.1523 O   0  0  0  0  0  0  0  0  0  0  0  0
   33.6846   14.1019  -14.7719 O   0  0  0  0  0  0  0  0  0  0  0  0
   45.2016   14.7989  -14.6064 C   0  0  0  0  0  0  0  0  0  0  0  0
   44.0468   14.0566  -13.4337 S   0  0  0  0  0  0  0  0  0  0  0  0
 24 25  1  0  0  0
 25  1  1  0  0  0
  1  2  2  0  0  0
  2  3  1  0  0  0
  3  7  1  0  0  0
  7  8  2  0  0  0
  8  9  1  0  0  0
  9 10  2  0  0  0
 10 11  1  0  0  0
 10 12  1  0  0  0
 12 13  2  0  0  0
  3  4  2  0  0  0
  4 14  1  0  0  0
 14 15  2  0  0  0
 15 16  1  0  0  0
 16 17  2  0  0  0
 17 20  1  0  0  0
 20 21  1  0  0  0
 20 22  2  0  0  0
 20 23  2  0  0  0
 17 18  1  0  0  0
 18 19  2  0  0  0
  4  5  1  0  0  0
  5  1  1  0  0  0
 13  7  1  0  0  0
 19 14  1  0  0  0
  5  6  1  0  0  0
M  END
> <minimizedAffinity>
-8.36460

> <CNNscore>
0.3522314131

> <CNNaffinity>
6.3780999184

> <CNN_VS>
2.2465672493

> <CNNaffinity_variance>
0.1422014832

$$$$
[H]c1c([H])c(-c2c([H])c(SC([H])([H])[H])n([H])c2-c2c([H])c([H])c(S(=O)(=O)C([H])([H])[H])c([H])c2[H])c([H])c([H])c1F


 25 27  0  0  0  0  0  0  0  0999 V2000
   39.9266   12.0549  -17.2443 C   0  0  0  0  0  0  0  0  0  0  0  0
   41.0101   12.5643  -16.5130 C   0  0  0  0  0  0  0  0  0  0  0  0
   40.5242   13.1475  -15.3692 C   0  0  0  0  0  0  0  0  0  0  0  0
   39.1634   12.9969  -15.4005 C   0  0  0  0  0  0  0  0  0  0  0  0
   38.8247   12.3393  -16.5326 N   0  0  0  0  0  0  0  0  0  0  0  0
   37.8677   12.0780  -16.8359 H   0  0  0  0  0  0  0  0  0  0  0  0
   41.3006   13.7966  -14.3283 C   0  0  0  0  0  0  0  0  0  0  0  0
   40.8088   14.9072  -13.6735 C   0  0  0  0  0  0  0  0  0  0  0  0
   41.5019   15.5445  -12.6984 C   0  0  0  0  0  0  0  0  0  0  0  0
   42.7424   15.0900  -12.3277 C   0  0  0  0  0  0  0  0  0  0  0  0
   43.3907   15.7552  -11.3570 F   0  0  0  0  0  0  0  0  0  0  0  0
   43.2637   13.9749  -12.9682 C   0  0  0  0  0  0  0  0  0  0  0  0
   42.5513   13.3392  -13.9537 C   0  0  0  0  0  0  0  0  0  0  0  0
   38.2593   13.4794  -14.3748 C   0  0  0  0  0  0  0  0  0  0  0  0
   37.7105   12.5763  -13.4580 C   0  0  0  0  0  0  0  0  0  0  0  0
   36.8634   13.1087  -12.5102 C   0  0  0  0  0  0  0  0  0  0  0  0
   36.5425   14.4408  -12.4257 C   0  0  0  0  0  0  0  0  0  0  0  0
   37.0891   15.3232  -13.3352 C   0  0  0  0  0  0  0  0  0  0  0  0
   37.9302   14.8287  -14.2845 C   0  0  0  0  0  0  0  0  0  0  0  0
   35.4698   15.0804  -11.2089 S   0  0  0  0  0  0  0  0  0  0  0  0
   33.7999   14.9844  -11.8252 C   0  0  0  0  0  0  0  0  0  0  0  0
   35.8009   16.5419  -10.9866 O   0  0  0  0  0  0  0  0  0  0  0  0
   35.6445   14.3862   -9.9058 O   0  0  0  0  0  0  0  0  0  0  0  0
   38.2990   10.7385  -19.3735 C   0  0  0  0  0  0  0  0  0  0  0  0
   39.9477   11.2023  -18.8025 S   0  0  0  0  0  0  0  0  0  0  0  0
 24 25  1  0  0  0
 25  1  1  0  0  0
  1  2  2  0  0  0
  2  3  1  0  0  0
  3  7  1  0  0  0
  7  8  2  0  0  0
  8  9  1  0  0  0
  9 10  2  0  0  0
 10 11  1  0  0  0
 10 12  1  0  0  0
 12 13  2  0  0  0
  3  4  2  0  0  0
  4 14  1  0  0  0
 14 15  2  0  0  0
 15 16  1  0  0  0
 16 17  2  0  0  0
 17 20  1  0  0  0
 20 21  1  0  0  0
 20 22  2  0  0  0
 20 23  2  0  0  0
 17 18  1  0  0  0
 18 19  2  0  0  0
  4  5  1  0  0  0
  5  1  1  0  0  0
 13  7  1  0  0  0
 19 14  1  0  0  0
  5  6  1  0  0  0
M  END
> <minimizedAffinity>
-6.98178

> <CNNscore>
0.3000695407

> <CNNaffinity>
6.2221732140

> <CNN_VS>
1.8670846224

> <CNNaffinity_variance>
0.0784268975

$$$$
[H]c1c([H])c(-c2c([H])c(SC([H])([H])[H])n([H])c2-c2c([H])c([H])c(S(=O)(=O)C([H])([H])[H])c([H])c2[H])c([H])c([H])c1F


 25 27  0  0  0  0  0  0  0  0999 V2000
   43.1884   14.9894  -10.7257 C   0  0  0  0  0  0  0  0  0  0  0  0
   43.2836   15.9545   -9.7120 C   0  0  0  0  0  0  0  0  0  0  0  0
   43.2283   15.3146   -8.4987 C   0  0  0  0  0  0  0  0  0  0  0  0
   43.1011   13.9776   -8.7665 C   0  0  0  0  0  0  0  0  0  0  0  0
   43.0792   13.8030  -10.1074 N   0  0  0  0  0  0  0  0  0  0  0  0
   42.9925   12.9023  -10.6147 H   0  0  0  0  0  0  0  0  0  0  0  0
   43.2928   15.9334   -7.1870 C   0  0  0  0  0  0  0  0  0  0  0  0
   44.4914   16.4014   -6.6887 C   0  0  0  0  0  0  0  0  0  0  0  0
   44.5959   16.9828   -5.4686 C   0  0  0  0  0  0  0  0  0  0  0  0
   43.4839   17.1247   -4.6774 C   0  0  0  0  0  0  0  0  0  0  0  0
   43.6379   17.7065   -3.4762 F   0  0  0  0  0  0  0  0  0  0  0  0
   42.2640   16.6636   -5.1514 C   0  0  0  0  0  0  0  0  0  0  0  0
   42.1723   16.0770   -6.3884 C   0  0  0  0  0  0  0  0  0  0  0  0
   43.0030   12.9426   -7.7559 C   0  0  0  0  0  0  0  0  0  0  0  0
   41.7422   12.5145   -7.3265 C   0  0  0  0  0  0  0  0  0  0  0  0
   41.7284   11.5252   -6.3670 C   0  0  0  0  0  0  0  0  0  0  0  0
   42.8570   10.9580   -5.8296 C   0  0  0  0  0  0  0  0  0  0  0  0
   44.0958   11.3878   -6.2600 C   0  0  0  0  0  0  0  0  0  0  0  0
   44.1438   12.3642   -7.2074 C   0  0  0  0  0  0  0  0  0  0  0  0
   42.8014    9.7037   -4.6196 S   0  0  0  0  0  0  0  0  0  0  0  0
   44.0057   10.0830   -3.3611 C   0  0  0  0  0  0  0  0  0  0  0  0
   43.1966    8.3895   -5.2613 O   0  0  0  0  0  0  0  0  0  0  0  0
   41.4298    9.5317   -4.0723 O   0  0  0  0  0  0  0  0  0  0  0  0
   43.3566   16.9654  -12.9579 C   0  0  0  0  0  0  0  0  0  0  0  0
   43.1997   15.2299  -12.4856 S   0  0  0  0  0  0  0  0  0  0  0  0
 24 25  1  0  0  0
 25  1  1  0  0  0
  1  2  2  0  0  0
  2  3  1  0  0  0
  3  7  1  0  0  0
  7  8  2  0  0  0
  8  9  1  0  0  0
  9 10  2  0  0  0
 10 11  1  0  0  0
 10 12  1  0  0  0
 12 13  2  0  0  0
  3  4  2  0  0  0
  4 14  1  0  0  0
 14 15  2  0  0  0
 15 16  1  0  0  0
 16 17  2  0  0  0
 17 20  1  0  0  0
 20 21  1  0  0  0
 20 22  2  0  0  0
 20 23  2  0  0  0
 17 18  1  0  0  0
 18 19  2  0  0  0
  4  5  1  0  0  0
  5  1  1  0  0  0
 13  7  1  0  0  0
 19 14  1  0  0  0
  5  6  1  0  0  0
M  END
> <minimizedAffinity>
-4.30265

> <CNNscore>
0.2902575731

> <CNNaffinity>
4.5854797363

> <CNN_VS>
1.3309701681

> <CNNaffinity_variance>
0.1286437958

$$$$
[H]c1c([H])c(-c2c([H])c(SC([H])([H])[H])n([H])c2-c2c([H])c([H])c(S(=O)(=O)C([H])([H])[H])c([H])c2[H])c([H])c([H])c1F


 25 27  0  0  0  0  0  0  0  0999 V2000
   40.1250   11.8733  -17.6841 C   0  0  0  0  0  0  0  0  0  0  0  0
   41.4291   12.1068  -17.2224 C   0  0  0  0  0  0  0  0  0  0  0  0
   41.3517   12.7955  -16.0373 C   0  0  0  0  0  0  0  0  0  0  0  0
   40.0198   12.9805  -15.7781 C   0  0  0  0  0  0  0  0  0  0  0  0
   39.3006   12.4203  -16.7770 N   0  0  0  0  0  0  0  0  0  0  0  0
   38.2668   12.3984  -16.8607 H   0  0  0  0  0  0  0  0  0  0  0  0
   42.4642   13.2406  -15.2176 C   0  0  0  0  0  0  0  0  0  0  0  0
   43.6357   13.6786  -15.8003 C   0  0  0  0  0  0  0  0  0  0  0  0
   44.6986   14.0998  -15.0721 C   0  0  0  0  0  0  0  0  0  0  0  0
   44.6353   14.1016  -13.7015 C   0  0  0  0  0  0  0  0  0  0  0  0
   45.7143   14.5273  -13.0235 F   0  0  0  0  0  0  0  0  0  0  0  0
   43.4700   13.6666  -13.0864 C   0  0  0  0  0  0  0  0  0  0  0  0
   42.4015   13.2428  -13.8356 C   0  0  0  0  0  0  0  0  0  0  0  0
   39.4970   13.6727  -14.6164 C   0  0  0  0  0  0  0  0  0  0  0  0
   40.0727   14.8837  -14.2174 C   0  0  0  0  0  0  0  0  0  0  0  0
   39.5201   15.4851  -13.1073 C   0  0  0  0  0  0  0  0  0  0  0  0
   38.4651   14.9686  -12.3968 C   0  0  0  0  0  0  0  0  0  0  0  0
   37.9047   13.7732  -12.7987 C   0  0  0  0  0  0  0  0  0  0  0  0
   38.4278   13.1537  -13.8922 C   0  0  0  0  0  0  0  0  0  0  0  0
   37.7879   15.7603  -10.9986 S   0  0  0  0  0  0  0  0  0  0  0  0
   36.1022   16.2079  -11.3675 C   0  0  0  0  0  0  0  0  0  0  0  0
   38.5621   17.0361  -10.7379 O   0  0  0  0  0  0  0  0  0  0  0  0
   37.9071   14.9162   -9.7804 O   0  0  0  0  0  0  0  0  0  0  0  0
   37.8534   10.6152  -19.1579 C   0  0  0  0  0  0  0  0  0  0  0  0
   39.6094   11.0347  -19.1626 S   0  0  0  0  0  0  0  0  0  0  0  0
 24 25  1  0  0  0
 25  1  1  0  0  0
  1  2  2  0  0  0
  2  3  1  0  0  0
  3  7  1  0  0  0
  7  8  2  0  0  0
  8  9  1  0  0  0
  9 10  2  0  0  0
 10 11  1  0  0  0
 10 12  1  0  0  0
 12 13  2  0  0  0
  3  4  2  0  0  0
  4 14  1  0  0  0
 14 15  2  0  0  0
 15 16  1  0  0  0
 16 17  2  0  0  0
 17 20  1  0  0  0
 20 21  1  0  0  0
 20 22  2  0  0  0
 20 23  2  0  0  0
 17 18  1  0  0  0
 18 19  2  0  0  0
  4  5  1  0  0  0
  5  1  1  0  0  0
 13  7  1  0  0  0
 19 14  1  0  0  0
  5  6  1  0  0  0
M  END
> <minimizedAffinity>
-7.35993

> <CNNscore>
0.2789115906

> <CNNaffinity>
6.0418038368

> <CNN_VS>
1.6851291656

> <CNNaffinity_variance>
0.0805031881

$$$$
[H]c1c([H])c(-c2c([H])c(SC([H])([H])[H])n([H])c2-c2c([H])c([H])c(S(=O)(=O)C([H])([H])[H])c([H])c2[H])c([H])c([H])c1F


 25 27  0  0  0  0  0  0  0  0999 V2000
   34.3658   10.7858  -16.5109 C   0  0  0  0  0  0  0  0  0  0  0  0
   35.6519   10.7060  -17.0659 C   0  0  0  0  0  0  0  0  0  0  0  0
   36.4967   11.4840  -16.3138 C   0  0  0  0  0  0  0  0  0  0  0  0
   35.7385   12.0315  -15.3135 C   0  0  0  0  0  0  0  0  0  0  0  0
   34.4637   11.6008  -15.4488 N   0  0  0  0  0  0  0  0  0  0  0  0
   33.6587   11.8437  -14.8413 H   0  0  0  0  0  0  0  0  0  0  0  0
   37.9172   11.6867  -16.5344 C   0  0  0  0  0  0  0  0  0  0  0  0
   38.5608   11.0668  -17.5858 C   0  0  0  0  0  0  0  0  0  0  0  0
   39.8854   11.2269  -17.8257 C   0  0  0  0  0  0  0  0  0  0  0  0
   40.6396   12.0303  -17.0081 C   0  0  0  0  0  0  0  0  0  0  0  0
   41.9481   12.1571  -17.2859 F   0  0  0  0  0  0  0  0  0  0  0  0
   40.0204   12.6673  -15.9422 C   0  0  0  0  0  0  0  0  0  0  0  0
   38.6787   12.4965  -15.7108 C   0  0  0  0  0  0  0  0  0  0  0  0
   36.2469   12.9277  -14.2934 C   0  0  0  0  0  0  0  0  0  0  0  0
   36.7262   12.4015  -13.0889 C   0  0  0  0  0  0  0  0  0  0  0  0
   37.1969   13.3139  -12.1694 C   0  0  0  0  0  0  0  0  0  0  0  0
   37.2170   14.6714  -12.3726 C   0  0  0  0  0  0  0  0  0  0  0  0
   36.7416   15.1800  -13.5642 C   0  0  0  0  0  0  0  0  0  0  0  0
   36.2696   14.3047  -14.4938 C   0  0  0  0  0  0  0  0  0  0  0  0
   37.8251   15.7966  -11.1876 S   0  0  0  0  0  0  0  0  0  0  0  0
   39.5671   16.0355  -11.4813 C   0  0  0  0  0  0  0  0  0  0  0  0
   37.6643   15.1879   -9.8097 O   0  0  0  0  0  0  0  0  0  0  0  0
   37.0583   17.0704  -11.1985 O   0  0  0  0  0  0  0  0  0  0  0  0
   32.4959   10.3327  -18.7942 C   0  0  0  0  0  0  0  0  0  0  0  0
   32.8734    9.9954  -17.0611 S   0  0  0  0  0  0  0  0  0  0  0  0
 24 25  1  0  0  0
 25  1  1  0  0  0
  1  2  2  0  0  0
  2  3  1  0  0  0
  3  7  1  0  0  0
  7  8  2  0  0  0
  8  9  1  0  0  0
  9 10  2  0  0  0
 10 11  1  0  0  0
 10 12  1  0  0  0
 12 13  2  0  0  0
  3  4  2  0  0  0
  4 14  1  0  0  0
 14 15  2  0  0  0
 15 16  1  0  0  0
 16 17  2  0  0  0
 17 20  1  0  0  0
 20 21  1  0  0  0
 20 22  2  0  0  0
 20 23  2  0  0  0
 17 18  1  0  0  0
 18 19  2  0  0  0
  4  5  1  0  0  0
  5  1  1  0  0  0
 13  7  1  0  0  0
 19 14  1  0  0  0
  5  6  1  0  0  0
M  END
> <minimizedAffinity>
-6.53690

> <CNNscore>
0.2721680105

> <CNNaffinity>
6.2594728470

> <CNN_VS>
1.7036283016

> <CNNaffinity_variance>
0.1091927290

$$$$
[H]OC([H])([H])C([H])([H])N([H])C(=O)[C@@]1([H])O[C@@]([H])(n2c([H])nc3c(N([H])C([H])([H])c4c([H])c([H])c([H])c([H])c4C([H])([H])[H])nc([H])nc32)[C@]([H])(O[H])[C@]1([H])O[H]


 36 39  0  0  0  0  0  0  0  0999 V2000
   40.9510   12.6804  -16.3833 C   0  0  0  0  0  0  0  0  0  0  0  0
   41.9116   12.0498  -17.0943 N   0  0  0  0  0  0  0  0  0  0  0  0
   43.2033   12.0831  -16.7389 C   0  0  0  0  0  0  0  0  0  0  0  0
   43.5538   12.7655  -15.6404 N   0  0  0  0  0  0  0  0  0  0  0  0
   42.6512   13.4083  -14.8973 C   0  0  0  0  0  0  0  0  0  0  0  0
   41.3374   13.3775  -15.2543 C   0  0  0  0  0  0  0  0  0  0  0  0
   40.6454   14.0950  -14.3497 N   0  0  0  0  0  0  0  0  0  0  0  0
   41.4935   14.5799  -13.4271 C   0  0  0  0  0  0  0  0  0  0  0  0
   42.7200   14.1561  -13.7678 N   0  0  0  0  0  0  0  0  0  0  0  0
   43.9131   14.4528  -13.0447 C   0  0  0  0  0  0  0  0  0  0  0  0
   44.5175   13.3263  -12.4922 O   0  0  0  0  0  0  0  0  0  0  0  0
   45.4497   13.8854  -11.5972 C   0  0  0  0  0  0  0  0  0  0  0  0
   44.5354   14.8165  -10.8089 C   0  0  0  0  0  0  0  0  0  0  0  0
   45.2238   15.7291  -10.0536 O   0  0  0  0  0  0  0  0  0  0  0  0
   43.7656   15.4606  -11.9557 C   0  0  0  0  0  0  0  0  0  0  0  0
   44.4379   16.6573  -12.2551 O   0  0  0  0  0  0  0  0  0  0  0  0
   44.6292   16.0454   -9.3148 H   0  0  0  0  0  0  0  0  0  0  0  0
   43.8008   17.4219  -12.2733 H   0  0  0  0  0  0  0  0  0  0  0  0
   46.1051   12.8851  -10.7709 C   0  0  0  0  0  0  0  0  0  0  0  0
   46.7137   13.2177   -9.7302 O   0  0  0  0  0  0  0  0  0  0  0  0
   46.0677   11.5164  -11.1265 N   0  0  0  0  0  0  0  0  0  0  0  0
   45.5679   11.2172  -11.9867 H   0  0  0  0  0  0  0  0  0  0  0  0
   46.7152   10.4951  -10.3170 C   0  0  0  0  0  0  0  0  0  0  0  0
   48.0586   10.1680  -10.8781 C   0  0  0  0  0  0  0  0  0  0  0  0
   47.9197    9.7798  -12.2121 O   0  0  0  0  0  0  0  0  0  0  0  0
   48.7457    9.9842  -12.7442 H   0  0  0  0  0  0  0  0  0  0  0  0
   39.5910   12.6460  -16.7893 N   0  0  0  0  0  0  0  0  0  0  0  0
   39.2254   13.4747  -17.3199 H   0  0  0  0  0  0  0  0  0  0  0  0
   38.7168   11.5502  -16.5100 C   0  0  0  0  0  0  0  0  0  0  0  0
   35.9871   11.4743  -17.2856 C   0  0  0  0  0  0  0  0  0  0  0  0
   36.3321   11.7819  -15.8915 C   0  0  0  0  0  0  0  0  0  0  0  0
   35.3463   12.0365  -14.9874 C   0  0  0  0  0  0  0  0  0  0  0  0
   35.6385   12.3283  -13.6710 C   0  0  0  0  0  0  0  0  0  0  0  0
   36.9470   12.3684  -13.2414 C   0  0  0  0  0  0  0  0  0  0  0  0
   37.9266   12.1045  -14.1870 C   0  0  0  0  0  0  0  0  0  0  0  0
   37.6747   11.8102  -15.5042 C   0  0  0  0  0  0  0  0  0  0  0  0
 30 31  1  0  0  0
 31 32  2  0  0  0
 32 33  1  0  0  0
 33 34  2  0  0  0
 34 35  1  0  0  0
 35 36  2  0  0  0
 36 29  1  0  0  0
 29 27  1  0  0  0
 27  1  1  0  0  0
  1  2  2  0  0  0
  2  3  1  0  0  0
  3  4  2  0  0  0
  4  5  1  0  0  0
  5  6  2  0  0  0
  6  7  1  0  0  0
  7  8  2  0  0  0
  8  9  1  0  0  0
  9 10  1  0  0  0
 10 11  1  0  0  0
 11 12  1  0  0  0
 12 19  1  0  0  0
 19 20  2  0  0  0
 19 21  1  0  0  0
 21 23  1  0  0  0
 23 24  1  0  0  0
 24 25  1  0  0  0
 12 13  1  0  0  0
 13 14  1  0  0  0
 13 15  1  0  0  0
 15 16  1  0  0  0
 36 31  1  0  0  0
  6  1  1  0  0  0
 15 10  1  0  0  0
  9  5  1  0  0  0
 27 28  1  0  0  0
 21 22  1  0  0  0
 25 26  1  0  0  0
 14 17  1  0  0  0
 16 18  1  0  0  0
M  END
> <minimizedAffinity>
-7.51530

> <CNNscore>
0.5727733374

> <CNNaffinity>
6.0859684944

> <CNN_VS>
3.4858803749

> <CNNaffinity_variance>
0.3356300890

$$$$
[H]OC([H])([H])C([H])([H])N([H])C(=O)[C@@]1([H])O[C@@]([H])(n2c([H])nc3c(N([H])C([H])([H])c4c([H])c([H])c([H])c([H])c4C([H])([H])[H])nc([H])nc32)[C@]([H])(O[H])[C@]1([H])O[H]


 36 39  0  0  0  0  0  0  0  0999 V2000
   39.7897   12.6606  -16.1175 C   0  0  0  0  0  0  0  0  0  0  0  0
   40.1572   12.0176  -17.2478 N   0  0  0  0  0  0  0  0  0  0  0  0
   41.4417   11.8590  -17.5955 C   0  0  0  0  0  0  0  0  0  0  0  0
   42.3940   12.3554  -16.7944 N   0  0  0  0  0  0  0  0  0  0  0  0
   42.0938   12.9999  -15.6653 C   0  0  0  0  0  0  0  0  0  0  0  0
   40.7901   13.1636  -15.3076 C   0  0  0  0  0  0  0  0  0  0  0  0
   40.7617   13.8377  -14.1427 N   0  0  0  0  0  0  0  0  0  0  0  0
   42.0203   14.1045  -13.7551 C   0  0  0  0  0  0  0  0  0  0  0  0
   42.8313   13.5891  -14.6913 N   0  0  0  0  0  0  0  0  0  0  0  0
   44.2557   13.6558  -14.6597 C   0  0  0  0  0  0  0  0  0  0  0  0
   44.8395   12.6302  -13.9201 O   0  0  0  0  0  0  0  0  0  0  0  0
   46.1669   13.0756  -13.7713 C   0  0  0  0  0  0  0  0  0  0  0  0
   45.9174   14.4725  -13.2139 C   0  0  0  0  0  0  0  0  0  0  0  0
   47.0310   15.2699  -13.2502 O   0  0  0  0  0  0  0  0  0  0  0  0
   44.8237   14.9428  -14.1653 C   0  0  0  0  0  0  0  0  0  0  0  0
   45.4734   15.6553  -15.1871 O   0  0  0  0  0  0  0  0  0  0  0  0
   46.9246   15.9977  -12.5731 H   0  0  0  0  0  0  0  0  0  0  0  0
   45.0508   16.5473  -15.3153 H   0  0  0  0  0  0  0  0  0  0  0  0
   46.9468   12.2307  -12.8821 C   0  0  0  0  0  0  0  0  0  0  0  0
   47.9411   11.6035  -13.3086 O   0  0  0  0  0  0  0  0  0  0  0  0
   46.5974   12.1009  -11.5174 N   0  0  0  0  0  0  0  0  0  0  0  0
   45.7753   12.6127  -11.1413 H   0  0  0  0  0  0  0  0  0  0  0  0
   47.3611   11.2620  -10.6060 C   0  0  0  0  0  0  0  0  0  0  0  0
   46.5430   10.0902  -10.1766 C   0  0  0  0  0  0  0  0  0  0  0  0
   46.6570    9.0742  -11.1274 O   0  0  0  0  0  0  0  0  0  0  0  0
   46.5322    8.1674  -10.7159 H   0  0  0  0  0  0  0  0  0  0  0  0
   38.4217   12.8321  -15.7787 N   0  0  0  0  0  0  0  0  0  0  0  0
   37.9467   13.7043  -16.1187 H   0  0  0  0  0  0  0  0  0  0  0  0
   37.6798   11.8838  -15.0084 C   0  0  0  0  0  0  0  0  0  0  0  0
   37.2450   13.3993  -12.6477 C   0  0  0  0  0  0  0  0  0  0  0  0
   36.0982   13.0249  -13.4853 C   0  0  0  0  0  0  0  0  0  0  0  0
   34.8401   13.3969  -13.1212 C   0  0  0  0  0  0  0  0  0  0  0  0
   33.7428   13.0606  -13.8870 C   0  0  0  0  0  0  0  0  0  0  0  0
   33.9007   12.3340  -15.0470 C   0  0  0  0  0  0  0  0  0  0  0  0
   35.1947   11.9709  -15.3891 C   0  0  0  0  0  0  0  0  0  0  0  0
   36.3099   12.2873  -14.6535 C   0  0  0  0  0  0  0  0  0  0  0  0
 30 31  1  0  0  0
 31 32  2  0  0  0
 32 33  1  0  0  0
 33 34  2  0  0  0
 34 35  1  0  0  0
 35 36  2  0  0  0
 36 29  1  0  0  0
 29 27  1  0  0  0
 27  1  1  0  0  0
  1  2  2  0  0  0
  2  3  1  0  0  0
  3  4  2  0  0  0
  4  5  1  0  0  0
  5  6  2  0  0  0
  6  7  1  0  0  0
  7  8  2  0  0  0
  8  9  1  0  0  0
  9 10  1  0  0  0
 10 11  1  0  0  0
 11 12  1  0  0  0
 12 19  1  0  0  0
 19 20  2  0  0  0
 19 21  1  0  0  0
 21 23  1  0  0  0
 23 24  1  0  0  0
 24 25  1  0  0  0
 12 13  1  0  0  0
 13 14  1  0  0  0
 13 15  1  0  0  0
 15 16  1  0  0  0
 36 31  1  0  0  0
  6  1  1  0  0  0
 15 10  1  0  0  0
  9  5  1  0  0  0
 27 28  1  0  0  0
 21 22  1  0  0  0
 25 26  1  0  0  0
 14 17  1  0  0  0
 16 18  1  0  0  0
M  END
> <minimizedAffinity>
-7.66705

> <CNNscore>
0.4724731743

> <CNNaffinity>
6.2032155991

> <CNN_VS>
2.9308528900

> <CNNaffinity_variance>
0.4256917536

$$$$
[H]OC([H])([H])C([H])([H])N([H])C(=O)[C@@]1([H])O[C@@]([H])(n2c([H])nc3c(N([H])C([H])([H])c4c([H])c([H])c([H])c([H])c4C([H])([H])[H])nc([H])nc32)[C@]([H])(O[H])[C@]1([H])O[H]


 36 39  0  0  0  0  0  0  0  0999 V2000
   39.6690   12.8421  -15.9912 C   0  0  0  0  0  0  0  0  0  0  0  0
   40.0836   12.1913  -17.1005 N   0  0  0  0  0  0  0  0  0  0  0  0
   41.3798   11.9675  -17.3566 C   0  0  0  0  0  0  0  0  0  0  0  0
   42.2960   12.4044  -16.4819 N   0  0  0  0  0  0  0  0  0  0  0  0
   41.9486   13.0530  -15.3689 C   0  0  0  0  0  0  0  0  0  0  0  0
   40.6328   13.2828  -15.1042 C   0  0  0  0  0  0  0  0  0  0  0  0
   40.5550   13.9460  -13.9354 N   0  0  0  0  0  0  0  0  0  0  0  0
   41.7943   14.1413  -13.4542 C   0  0  0  0  0  0  0  0  0  0  0  0
   42.6432   13.5923  -14.3362 N   0  0  0  0  0  0  0  0  0  0  0  0
   44.0630   13.5823  -14.2007 C   0  0  0  0  0  0  0  0  0  0  0  0
   44.5055   14.1192  -12.9942 O   0  0  0  0  0  0  0  0  0  0  0  0
   45.8844   14.2911  -13.2217 C   0  0  0  0  0  0  0  0  0  0  0  0
   45.8420   15.0818  -14.5244 C   0  0  0  0  0  0  0  0  0  0  0  0
   47.0566   15.1377  -15.1562 O   0  0  0  0  0  0  0  0  0  0  0  0
   44.8135   14.2626  -15.2949 C   0  0  0  0  0  0  0  0  0  0  0  0
   45.5440   13.3504  -16.0747 O   0  0  0  0  0  0  0  0  0  0  0  0
   47.0630   15.9299  -15.7661 H   0  0  0  0  0  0  0  0  0  0  0  0
   45.2501   13.3878  -17.0249 H   0  0  0  0  0  0  0  0  0  0  0  0
   46.5486   14.9983  -12.1393 C   0  0  0  0  0  0  0  0  0  0  0  0
   46.8648   14.4006  -11.0873 O   0  0  0  0  0  0  0  0  0  0  0  0
   46.8506   16.3756  -12.2537 N   0  0  0  0  0  0  0  0  0  0  0  0
   46.5972   16.8922  -13.1186 H   0  0  0  0  0  0  0  0  0  0  0  0
   47.5149   17.1070  -11.1854 C   0  0  0  0  0  0  0  0  0  0  0  0
   47.9496   18.4488  -11.6726 C   0  0  0  0  0  0  0  0  0  0  0  0
   48.0101   19.3340  -10.5946 O   0  0  0  0  0  0  0  0  0  0  0  0
   48.6875   20.0583  -10.7489 H   0  0  0  0  0  0  0  0  0  0  0  0
   38.2908   13.0833  -15.7499 N   0  0  0  0  0  0  0  0  0  0  0  0
   37.8446   13.8831  -16.2629 H   0  0  0  0  0  0  0  0  0  0  0  0
   37.5021   12.2968  -14.8541 C   0  0  0  0  0  0  0  0  0  0  0  0
   35.1957   12.8506  -13.2946 C   0  0  0  0  0  0  0  0  0  0  0  0
   35.0462   12.1619  -14.5832 C   0  0  0  0  0  0  0  0  0  0  0  0
   33.8103   11.7872  -15.0145 C   0  0  0  0  0  0  0  0  0  0  0  0
   33.6375   11.1391  -16.2201 C   0  0  0  0  0  0  0  0  0  0  0  0
   34.7236   10.8553  -17.0191 C   0  0  0  0  0  0  0  0  0  0  0  0
   35.9678   11.2501  -16.5506 C   0  0  0  0  0  0  0  0  0  0  0  0
   36.1788   11.8967  -15.3580 C   0  0  0  0  0  0  0  0  0  0  0  0
 30 31  1  0  0  0
 31 32  2  0  0  0
 32 33  1  0  0  0
 33 34  2  0  0  0
 34 35  1  0  0  0
 35 36  2  0  0  0
 36 29  1  0  0  0
 29 27  1  0  0  0
 27  1  1  0  0  0
  1  2  2  0  0  0
  2  3  1  0  0  0
  3  4  2  0  0  0
  4  5  1  0  0  0
  5  6  2  0  0  0
  6  7  1  0  0  0
  7  8  2  0  0  0
  8  9  1  0  0  0
  9 10  1  0  0  0
 10 11  1  0  0  0
 11 12  1  0  0  0
 12 19  1  0  0  0
 19 20  2  0  0  0
 19 21  1  0  0  0
 21 23  1  0  0  0
 23 24  1  0  0  0
 24 25  1  0  0  0
 12 13  1  0  0  0
 13 14  1  0  0  0
 13 15  1  0  0  0
 15 16  1  0  0  0
 36 31  1  0  0  0
  6  1  1  0  0  0
 15 10  1  0  0  0
  9  5  1  0  0  0
 27 28  1  0  0  0
 21 22  1  0  0  0
 25 26  1  0  0  0
 14 17  1  0  0  0
 16 18  1  0  0  0
M  END
> <minimizedAffinity>
-7.42127

> <CNNscore>
0.3502830863

> <CNNaffinity>
5.8965291977

> <CNN_VS>
2.0654544830

> <CNNaffinity_variance>
0.5578804612

$$$$
[H]OC([H])([H])C([H])([H])N([H])C(=O)[C@@]1([H])O[C@@]([H])(n2c([H])nc3c(N([H])C([H])([H])c4c([H])c([H])c([H])c([H])c4C([H])([H])[H])nc([H])nc32)[C@]([H])(O[H])[C@]1([H])O[H]


 36 39  0  0  0  0  0  0  0  0999 V2000
   42.0597   12.8924  -16.2581 C   0  0  0  0  0  0  0  0  0  0  0  0
   43.2531   12.3582  -16.5997 N   0  0  0  0  0  0  0  0  0  0  0  0
   44.3337   12.4594  -15.8137 C   0  0  0  0  0  0  0  0  0  0  0  0
   44.2267   13.1129  -14.6490 N   0  0  0  0  0  0  0  0  0  0  0  0
   43.0754   13.6615  -14.2568 C   0  0  0  0  0  0  0  0  0  0  0  0
   41.9744   13.5615  -15.0519 C   0  0  0  0  0  0  0  0  0  0  0  0
   40.9581   14.1910  -14.4332 N   0  0  0  0  0  0  0  0  0  0  0  0
   41.3923   14.6878  -13.2628 C   0  0  0  0  0  0  0  0  0  0  0  0
   42.6893   14.3605  -13.1604 N   0  0  0  0  0  0  0  0  0  0  0  0
   43.5297   14.7012  -12.0595 C   0  0  0  0  0  0  0  0  0  0  0  0
   43.3867   13.8446  -10.9707 O   0  0  0  0  0  0  0  0  0  0  0  0
   44.0452   14.5436   -9.9410 C   0  0  0  0  0  0  0  0  0  0  0  0
   43.3415   15.8921  -10.0434 C   0  0  0  0  0  0  0  0  0  0  0  0
   43.9867   16.8860   -9.3555 O   0  0  0  0  0  0  0  0  0  0  0  0
   43.3843   16.0961  -11.5531 C   0  0  0  0  0  0  0  0  0  0  0  0
   44.5286   16.8691  -11.8115 O   0  0  0  0  0  0  0  0  0  0  0  0
   43.3301   17.6121   -9.1529 H   0  0  0  0  0  0  0  0  0  0  0  0
   44.2996   17.6558  -12.3765 H   0  0  0  0  0  0  0  0  0  0  0  0
   43.8897   13.9091   -8.6425 C   0  0  0  0  0  0  0  0  0  0  0  0
   43.0802   12.9688   -8.4857 O   0  0  0  0  0  0  0  0  0  0  0  0
   44.6500   14.3418   -7.5308 N   0  0  0  0  0  0  0  0  0  0  0  0
   45.3285   15.1211   -7.6379 H   0  0  0  0  0  0  0  0  0  0  0  0
   44.5137   13.7239   -6.2204 C   0  0  0  0  0  0  0  0  0  0  0  0
   43.4723   14.4340   -5.4218 C   0  0  0  0  0  0  0  0  0  0  0  0
   42.2482   13.7799   -5.5737 O   0  0  0  0  0  0  0  0  0  0  0  0
   41.6612   13.9030   -4.7690 H   0  0  0  0  0  0  0  0  0  0  0  0
   40.9329   12.7879  -17.1154 N   0  0  0  0  0  0  0  0  0  0  0  0
   40.6151   13.6620  -17.6022 H   0  0  0  0  0  0  0  0  0  0  0  0
   40.2275   11.5648  -17.3379 C   0  0  0  0  0  0  0  0  0  0  0  0
   38.1731   10.5465  -19.0115 C   0  0  0  0  0  0  0  0  0  0  0  0
   37.8326   11.0382  -17.6701 C   0  0  0  0  0  0  0  0  0  0  0  0
   36.5398   11.0113  -17.2439 C   0  0  0  0  0  0  0  0  0  0  0  0
   36.1885   11.4658  -15.9895 C   0  0  0  0  0  0  0  0  0  0  0  0
   37.1493   11.9611  -15.1350 C   0  0  0  0  0  0  0  0  0  0  0  0
   38.4559   11.9746  -15.5997 C   0  0  0  0  0  0  0  0  0  0  0  0
   38.8433   11.5309  -16.8399 C   0  0  0  0  0  0  0  0  0  0  0  0
 30 31  1  0  0  0
 31 32  2  0  0  0
 32 33  1  0  0  0
 33 34  2  0  0  0
 34 35  1  0  0  0
 35 36  2  0  0  0
 36 29  1  0  0  0
 29 27  1  0  0  0
 27  1  1  0  0  0
  1  2  2  0  0  0
  2  3  1  0  0  0
  3  4  2  0  0  0
  4  5  1  0  0  0
  5  6  2  0  0  0
  6  7  1  0  0  0
  7  8  2  0  0  0
  8  9  1  0  0  0
  9 10  1  0  0  0
 10 11  1  0  0  0
 11 12  1  0  0  0
 12 19  1  0  0  0
 19 20  2  0  0  0
 19 21  1  0  0  0
 21 23  1  0  0  0
 23 24  1  0  0  0
 24 25  1  0  0  0
 12 13  1  0  0  0
 13 14  1  0  0  0
 13 15  1  0  0  0
 15 16  1  0  0  0
 36 31  1  0  0  0
  6  1  1  0  0  0
 15 10  1  0  0  0
  9  5  1  0  0  0
 27 28  1  0  0  0
 21 22  1  0  0  0
 25 26  1  0  0  0
 14 17  1  0  0  0
 16 18  1  0  0  0
M  END
> <minimizedAffinity>
-7.12858

> <CNNscore>
0.3356046379

> <CNNaffinity>
5.7331376076

> <CNN_VS>
1.9240676165

> <CNNaffinity_variance>
0.2861464918

$$$$
[H]OC([H])([H])C([H])([H])N([H])C(=O)[C@@]1([H])O[C@@]([H])(n2c([H])nc3c(N([H])C([H])([H])c4c([H])c([H])c([H])c([H])c4C([H])([H])[H])nc([H])nc32)[C@]([H])(O[H])[C@]1([H])O[H]


 36 39  0  0  0  0  0  0  0  0999 V2000
   41.6310   12.8554  -15.9823 C   0  0  0  0  0  0  0  0  0  0  0  0
   42.4839   12.2307  -16.8240 N   0  0  0  0  0  0  0  0  0  0  0  0
   43.8064   12.1998  -16.6100 C   0  0  0  0  0  0  0  0  0  0  0  0
   44.2995   12.8095  -15.5236 N   0  0  0  0  0  0  0  0  0  0  0  0
   43.5082   13.4426  -14.6558 C   0  0  0  0  0  0  0  0  0  0  0  0
   42.1637   13.4769  -14.8688 C   0  0  0  0  0  0  0  0  0  0  0  0
   41.6019   14.1685  -13.8598 N   0  0  0  0  0  0  0  0  0  0  0  0
   42.5626   14.5732  -13.0120 C   0  0  0  0  0  0  0  0  0  0  0  0
   43.7275   14.1257  -13.5047 N   0  0  0  0  0  0  0  0  0  0  0  0
   45.0020   14.3413  -12.9018 C   0  0  0  0  0  0  0  0  0  0  0  0
   45.8630   15.1016  -13.6894 O   0  0  0  0  0  0  0  0  0  0  0  0
   47.1066   14.9114  -13.0571 C   0  0  0  0  0  0  0  0  0  0  0  0
   47.1467   13.3883  -13.0030 C   0  0  0  0  0  0  0  0  0  0  0  0
   48.1150   12.9080  -12.1609 O   0  0  0  0  0  0  0  0  0  0  0  0
   45.7356   13.1067  -12.5010 C   0  0  0  0  0  0  0  0  0  0  0  0
   45.8337   12.9857  -11.1047 O   0  0  0  0  0  0  0  0  0  0  0  0
   48.3374   11.9716  -12.4312 H   0  0  0  0  0  0  0  0  0  0  0  0
   45.4005   12.1449  -10.7947 H   0  0  0  0  0  0  0  0  0  0  0  0
   48.2110   15.4911  -13.8034 C   0  0  0  0  0  0  0  0  0  0  0  0
   49.3577   15.5430  -13.3072 O   0  0  0  0  0  0  0  0  0  0  0  0
   48.0115   16.0079  -15.1051 N   0  0  0  0  0  0  0  0  0  0  0  0
   47.0673   15.9753  -15.5372 H   0  0  0  0  0  0  0  0  0  0  0  0
   49.0996   16.5934  -15.8737 C   0  0  0  0  0  0  0  0  0  0  0  0
   48.6759   17.9020  -16.4521 C   0  0  0  0  0  0  0  0  0  0  0  0
   47.3133   18.0923  -16.2144 O   0  0  0  0  0  0  0  0  0  0  0  0
   47.0808   19.0670  -16.1580 H   0  0  0  0  0  0  0  0  0  0  0  0
   40.2352   12.8904  -16.2392 N   0  0  0  0  0  0  0  0  0  0  0  0
   39.9182   13.3769  -17.1138 H   0  0  0  0  0  0  0  0  0  0  0  0
   39.2633   12.3017  -15.3721 C   0  0  0  0  0  0  0  0  0  0  0  0
   36.7517   12.7843  -14.1402 C   0  0  0  0  0  0  0  0  0  0  0  0
   36.8016   12.0531  -15.4130 C   0  0  0  0  0  0  0  0  0  0  0  0
   35.6502   11.6058  -15.9858 C   0  0  0  0  0  0  0  0  0  0  0  0
   35.6644   10.9164  -17.1808 C   0  0  0  0  0  0  0  0  0  0  0  0
   36.8565   10.6643  -17.8241 C   0  0  0  0  0  0  0  0  0  0  0  0
   38.0104   11.1331  -17.2141 C   0  0  0  0  0  0  0  0  0  0  0  0
   38.0358   11.8226  -16.0272 C   0  0  0  0  0  0  0  0  0  0  0  0
 30 31  1  0  0  0
 31 32  2  0  0  0
 32 33  1  0  0  0
 33 34  2  0  0  0
 34 35  1  0  0  0
 35 36  2  0  0  0
 36 29  1  0  0  0
 29 27  1  0  0  0
 27  1  1  0  0  0
  1  2  2  0  0  0
  2  3  1  0  0  0
  3  4  2  0  0  0
  4  5  1  0  0  0
  5  6  2  0  0  0
  6  7  1  0  0  0
  7  8  2  0  0  0
  8  9  1  0  0  0
  9 10  1  0  0  0
 10 11  1  0  0  0
 11 12  1  0  0  0
 12 19  1  0  0  0
 19 20  2  0  0  0
 19 21  1  0  0  0
 21 23  1  0  0  0
 23 24  1  0  0  0
 24 25  1  0  0  0
 12 13  1  0  0  0
 13 14  1  0  0  0
 13 15  1  0  0  0
 15 16  1  0  0  0
 36 31  1  0  0  0
  6  1  1  0  0  0
 15 10  1  0  0  0
  9  5  1  0  0  0
 27 28  1  0  0  0
 21 22  1  0  0  0
 25 26  1  0  0  0
 14 17  1  0  0  0
 16 18  1  0  0  0
M  END
> <minimizedAffinity>
-7.63927

> <CNNscore>
0.2441905737

> <CNNaffinity>
5.5826306343

> <CNN_VS>
1.3632258177

> <CNNaffinity_variance>
0.3794951141

$$$$
[H]OC([H])([H])C([H])([H])N([H])C(=O)[C@@]1([H])O[C@@]([H])(n2c([H])nc3c(N([H])C([H])([H])c4c([H])c([H])c([H])c([H])c4C([H])([H])[H])nc([H])nc32)[C@]([H])(O[H])[C@]1([H])O[H]


 36 39  0  0  0  0  0  0  0  0999 V2000
   34.3737   13.8813  -14.1074 C   0  0  0  0  0  0  0  0  0  0  0  0
   33.8443   12.8131  -14.7436 N   0  0  0  0  0  0  0  0  0  0  0  0
   34.6051   11.8949  -15.3550 C   0  0  0  0  0  0  0  0  0  0  0  0
   35.9367   12.0416  -15.3346 N   0  0  0  0  0  0  0  0  0  0  0  0
   36.5183   13.0749  -14.7228 C   0  0  0  0  0  0  0  0  0  0  0  0
   35.7496   14.0106  -14.1000 C   0  0  0  0  0  0  0  0  0  0  0  0
   36.5714   14.9349  -13.5685 N   0  0  0  0  0  0  0  0  0  0  0  0
   37.8447   14.6042  -13.8418 C   0  0  0  0  0  0  0  0  0  0  0  0
   37.8058   13.4646  -14.5487 N   0  0  0  0  0  0  0  0  0  0  0  0
   38.9521   12.7729  -15.0405 C   0  0  0  0  0  0  0  0  0  0  0  0
   40.1527   13.2677  -14.5371 O   0  0  0  0  0  0  0  0  0  0  0  0
   41.1093   12.6677  -15.3782 C   0  0  0  0  0  0  0  0  0  0  0  0
   40.5478   13.0593  -16.7404 C   0  0  0  0  0  0  0  0  0  0  0  0
   41.1089   12.3550  -17.7731 O   0  0  0  0  0  0  0  0  0  0  0  0
   39.0777   12.7203  -16.5253 C   0  0  0  0  0  0  0  0  0  0  0  0
   38.8998   11.4175  -17.0201 O   0  0  0  0  0  0  0  0  0  0  0  0
   40.9912   12.8777  -18.6171 H   0  0  0  0  0  0  0  0  0  0  0  0
   38.1321   11.3848  -17.6527 H   0  0  0  0  0  0  0  0  0  0  0  0
   42.4546   13.1657  -15.1442 C   0  0  0  0  0  0  0  0  0  0  0  0
   42.8321   13.4629  -13.9895 O   0  0  0  0  0  0  0  0  0  0  0  0
   43.3636   13.3241  -16.2165 N   0  0  0  0  0  0  0  0  0  0  0  0
   43.0717   13.0834  -17.1840 H   0  0  0  0  0  0  0  0  0  0  0  0
   44.7158   13.8205  -16.0096 C   0  0  0  0  0  0  0  0  0  0  0  0
   45.6776   12.6818  -15.9405 C   0  0  0  0  0  0  0  0  0  0  0  0
   45.8214   12.2789  -14.6114 O   0  0  0  0  0  0  0  0  0  0  0  0
   46.0598   11.3063  -14.5440 H   0  0  0  0  0  0  0  0  0  0  0  0
   33.5467   14.8510  -13.4817 N   0  0  0  0  0  0  0  0  0  0  0  0
   32.8824   15.3852  -14.0943 H   0  0  0  0  0  0  0  0  0  0  0  0
   33.5817   15.1240  -12.0791 C   0  0  0  0  0  0  0  0  0  0  0  0
   33.3885   16.0377   -9.3984 C   0  0  0  0  0  0  0  0  0  0  0  0
   32.1953   15.4986  -10.0640 C   0  0  0  0  0  0  0  0  0  0  0  0
   31.0133   15.4323   -9.3916 C   0  0  0  0  0  0  0  0  0  0  0  0
   29.8752   14.9313   -9.9895 C   0  0  0  0  0  0  0  0  0  0  0  0
   29.9135   14.4836  -11.2920 C   0  0  0  0  0  0  0  0  0  0  0  0
   31.1326   14.5649  -11.9482 C   0  0  0  0  0  0  0  0  0  0  0  0
   32.2849   15.0572  -11.3871 C   0  0  0  0  0  0  0  0  0  0  0  0
 30 31  1  0  0  0
 31 32  2  0  0  0
 32 33  1  0  0  0
 33 34  2  0  0  0
 34 35  1  0  0  0
 35 36  2  0  0  0
 36 29  1  0  0  0
 29 27  1  0  0  0
 27  1  1  0  0  0
  1  2  2  0  0  0
  2  3  1  0  0  0
  3  4  2  0  0  0
  4  5  1  0  0  0
  5  6  2  0  0  0
  6  7  1  0  0  0
  7  8  2  0  0  0
  8  9  1  0  0  0
  9 10  1  0  0  0
 10 11  1  0  0  0
 11 12  1  0  0  0
 12 19  1  0  0  0
 19 20  2  0  0  0
 19 21  1  0  0  0
 21 23  1  0  0  0
 23 24  1  0  0  0
 24 25  1  0  0  0
 12 13  1  0  0  0
 13 14  1  0  0  0
 13 15  1  0  0  0
 15 16  1  0  0  0
 36 31  1  0  0  0
  6  1  1  0  0  0
 15 10  1  0  0  0
  9  5  1  0  0  0
 27 28  1  0  0  0
 21 22  1  0  0  0
 25 26  1  0  0  0
 14 17  1  0  0  0
 16 18  1  0  0  0
M  END
> <minimizedAffinity>
-8.15470

> <CNNscore>
0.2028092742

> <CNNaffinity>
5.8890962601

> <CNN_VS>
1.1943633556

> <CNNaffinity_variance>
0.3950368464

$$$$
[H]OC([H])([H])C([H])([H])N([H])C(=O)[C@@]1([H])O[C@@]([H])(n2c([H])nc3c(N([H])C([H])([H])c4c([H])c([H])c([H])c([H])c4C([H])([H])[H])nc([H])nc32)[C@]([H])(O[H])[C@]1([H])O[H]


 36 39  0  0  0  0  0  0  0  0999 V2000
   35.8786   13.2096  -14.8876 C   0  0  0  0  0  0  0  0  0  0  0  0
   34.5778   13.0156  -14.5771 N   0  0  0  0  0  0  0  0  0  0  0  0
   34.0518   13.4212  -13.4133 C   0  0  0  0  0  0  0  0  0  0  0  0
   34.8434   14.0403  -12.5272 N   0  0  0  0  0  0  0  0  0  0  0  0
   36.1355   14.2606  -12.7763 C   0  0  0  0  0  0  0  0  0  0  0  0
   36.6749   13.8505  -13.9575 C   0  0  0  0  0  0  0  0  0  0  0  0
   37.9775   14.1897  -13.9581 N   0  0  0  0  0  0  0  0  0  0  0  0
   38.2747   14.8061  -12.8017 C   0  0  0  0  0  0  0  0  0  0  0  0
   37.1430   14.8466  -12.0824 N   0  0  0  0  0  0  0  0  0  0  0  0
   37.0256   15.4214  -10.7823 C   0  0  0  0  0  0  0  0  0  0  0  0
   36.6099   14.5120   -9.8128 O   0  0  0  0  0  0  0  0  0  0  0  0
   36.2696   15.3484   -8.7325 C   0  0  0  0  0  0  0  0  0  0  0  0
   35.3226   16.3157   -9.4339 C   0  0  0  0  0  0  0  0  0  0  0  0
   35.0601   17.4386   -8.6939 O   0  0  0  0  0  0  0  0  0  0  0  0
   36.1340   16.6128  -10.6892 C   0  0  0  0  0  0  0  0  0  0  0  0
   36.8560   17.7875  -10.4199 O   0  0  0  0  0  0  0  0  0  0  0  0
   34.1981   17.8345   -9.0094 H   0  0  0  0  0  0  0  0  0  0  0  0
   36.7239   18.4544  -11.1469 H   0  0  0  0  0  0  0  0  0  0  0  0
   35.6470   14.6250   -7.6362 C   0  0  0  0  0  0  0  0  0  0  0  0
   36.1933   13.6101   -7.1510 O   0  0  0  0  0  0  0  0  0  0  0  0
   34.4119   15.0540   -7.0961 N   0  0  0  0  0  0  0  0  0  0  0  0
   33.9401   15.8945   -7.4835 H   0  0  0  0  0  0  0  0  0  0  0  0
   33.7675   14.3481   -5.9988 C   0  0  0  0  0  0  0  0  0  0  0  0
   32.3605   14.0077   -6.3608 C   0  0  0  0  0  0  0  0  0  0  0  0
   31.7691   13.3079   -5.3072 O   0  0  0  0  0  0  0  0  0  0  0  0
   30.7756   13.4477   -5.2826 H   0  0  0  0  0  0  0  0  0  0  0  0
   36.4180   12.7551  -16.1198 N   0  0  0  0  0  0  0  0  0  0  0  0
   36.2621   13.3573  -16.9654 H   0  0  0  0  0  0  0  0  0  0  0  0
   37.1500   11.5346  -16.2527 C   0  0  0  0  0  0  0  0  0  0  0  0
   37.7208   10.4653  -18.8197 C   0  0  0  0  0  0  0  0  0  0  0  0
   38.7890   11.1299  -18.0619 C   0  0  0  0  0  0  0  0  0  0  0  0
   40.0414   11.2199  -18.5885 C   0  0  0  0  0  0  0  0  0  0  0  0
   41.0656   11.8382  -17.9013 C   0  0  0  0  0  0  0  0  0  0  0  0
   40.8385   12.3818  -16.6557 C   0  0  0  0  0  0  0  0  0  0  0  0
   39.5525   12.2730  -16.1482 C   0  0  0  0  0  0  0  0  0  0  0  0
   38.5087   11.6662  -16.8020 C   0  0  0  0  0  0  0  0  0  0  0  0
 30 31  1  0  0  0
 31 32  2  0  0  0
 32 33  1  0  0  0
 33 34  2  0  0  0
 34 35  1  0  0  0
 35 36  2  0  0  0
 36 29  1  0  0  0
 29 27  1  0  0  0
 27  1  1  0  0  0
  1  2  2  0  0  0
  2  3  1  0  0  0
  3  4  2  0  0  0
  4  5  1  0  0  0
  5  6  2  0  0  0
  6  7  1  0  0  0
  7  8  2  0  0  0
  8  9  1  0  0  0
  9 10  1  0  0  0
 10 11  1  0  0  0
 11 12  1  0  0  0
 12 19  1  0  0  0
 19 20  2  0  0  0
 19 21  1  0  0  0
 21 23  1  0  0  0
 23 24  1  0  0  0
 24 25  1  0  0  0
 12 13  1  0  0  0
 13 14  1  0  0  0
 13 15  1  0  0  0
 15 16  1  0  0  0
 36 31  1  0  0  0
  6  1  1  0  0  0
 15 10  1  0  0  0
  9  5  1  0  0  0
 27 28  1  0  0  0
 21 22  1  0  0  0
 25 26  1  0  0  0
 14 17  1  0  0  0
 16 18  1  0  0  0
M  END
> <minimizedAffinity>
-9.67523

> <CNNscore>
0.1947664469

> <CNNaffinity>
5.5751390457

> <CNN_VS>
1.0858500004

> <CNNaffinity_variance>
0.4463613629

$$$$
[H]OC([H])([H])C([H])([H])N([H])C(=O)[C@@]1([H])O[C@@]([H])(n2c([H])nc3c(N([H])C([H])([H])c4c([H])c([H])c([H])c([H])c4C([H])([H])[H])nc([H])nc32)[C@]([H])(O[H])[C@]1([H])O[H]


 36 39  0  0  0  0  0  0  0  0999 V2000
   45.2456   12.8519  -14.8940 C   0  0  0  0  0  0  0  0  0  0  0  0
   45.7274   12.2944  -16.0268 N   0  0  0  0  0  0  0  0  0  0  0  0
   44.9391   11.9945  -17.0682 C   0  0  0  0  0  0  0  0  0  0  0  0
   43.6280   12.2567  -16.9827 N   0  0  0  0  0  0  0  0  0  0  0  0
   43.0932   12.8062  -15.8908 C   0  0  0  0  0  0  0  0  0  0  0  0
   43.8900   13.1129  -14.8299 C   0  0  0  0  0  0  0  0  0  0  0  0
   43.1135   13.6493  -13.8700 N   0  0  0  0  0  0  0  0  0  0  0  0
   41.8414   13.6887  -14.3006 C   0  0  0  0  0  0  0  0  0  0  0  0
   41.8353   13.1712  -15.5384 N   0  0  0  0  0  0  0  0  0  0  0  0
   40.6745   13.0292  -16.3549 C   0  0  0  0  0  0  0  0  0  0  0  0
   39.4865   13.0229  -15.6281 O   0  0  0  0  0  0  0  0  0  0  0  0
   38.5496   12.5654  -16.5744 C   0  0  0  0  0  0  0  0  0  0  0  0
   39.2483   11.2957  -17.0473 C   0  0  0  0  0  0  0  0  0  0  0  0
   38.7099   10.7860  -18.1996 O   0  0  0  0  0  0  0  0  0  0  0  0
   40.6615   11.8316  -17.2432 C   0  0  0  0  0  0  0  0  0  0  0  0
   40.7619   12.1844  -18.5994 O   0  0  0  0  0  0  0  0  0  0  0  0
   38.9390    9.8146  -18.2565 H   0  0  0  0  0  0  0  0  0  0  0  0
   41.5710   11.7741  -19.0090 H   0  0  0  0  0  0  0  0  0  0  0  0
   37.2392   12.3208  -15.9948 C   0  0  0  0  0  0  0  0  0  0  0  0
   36.7154   11.1870  -16.0598 O   0  0  0  0  0  0  0  0  0  0  0  0
   36.5305   13.3590  -15.3459 N   0  0  0  0  0  0  0  0  0  0  0  0
   36.9464   14.3087  -15.2800 H   0  0  0  0  0  0  0  0  0  0  0  0
   35.2177   13.1408  -14.7573 C   0  0  0  0  0  0  0  0  0  0  0  0
   35.1360   13.8003  -13.4213 C   0  0  0  0  0  0  0  0  0  0  0  0
   34.2640   13.0794  -12.6031 O   0  0  0  0  0  0  0  0  0  0  0  0
   34.5017   13.1775  -11.6330 H   0  0  0  0  0  0  0  0  0  0  0  0
   46.0974   13.1445  -13.7965 N   0  0  0  0  0  0  0  0  0  0  0  0
   46.0899   12.4742  -12.9886 H   0  0  0  0  0  0  0  0  0  0  0  0
   46.9477   14.2924  -13.7480 C   0  0  0  0  0  0  0  0  0  0  0  0
   47.1590   14.9261  -10.9890 C   0  0  0  0  0  0  0  0  0  0  0  0
   46.4196   15.8285  -11.8813 C   0  0  0  0  0  0  0  0  0  0  0  0
   45.8356   16.9519  -11.3804 C   0  0  0  0  0  0  0  0  0  0  0  0
   45.1347   17.8190  -12.1930 C   0  0  0  0  0  0  0  0  0  0  0  0
   45.0107   17.5621  -13.5410 C   0  0  0  0  0  0  0  0  0  0  0  0
   45.6169   16.4099  -14.0189 C   0  0  0  0  0  0  0  0  0  0  0  0
   46.3223   15.5245  -13.2420 C   0  0  0  0  0  0  0  0  0  0  0  0
 30 31  1  0  0  0
 31 32  2  0  0  0
 32 33  1  0  0  0
 33 34  2  0  0  0
 34 35  1  0  0  0
 35 36  2  0  0  0
 36 29  1  0  0  0
 29 27  1  0  0  0
 27  1  1  0  0  0
  1  2  2  0  0  0
  2  3  1  0  0  0
  3  4  2  0  0  0
  4  5  1  0  0  0
  5  6  2  0  0  0
  6  7  1  0  0  0
  7  8  2  0  0  0
  8  9  1  0  0  0
  9 10  1  0  0  0
 10 11  1  0  0  0
 11 12  1  0  0  0
 12 19  1  0  0  0
 19 20  2  0  0  0
 19 21  1  0  0  0
 21 23  1  0  0  0
 23 24  1  0  0  0
 24 25  1  0  0  0
 12 13  1  0  0  0
 13 14  1  0  0  0
 13 15  1  0  0  0
 15 16  1  0  0  0
 36 31  1  0  0  0
  6  1  1  0  0  0
 15 10  1  0  0  0
  9  5  1  0  0  0
 27 28  1  0  0  0
 21 22  1  0  0  0
 25 26  1  0  0  0
 14 17  1  0  0  0
 16 18  1  0  0  0
M  END
> <minimizedAffinity>
-7.50568

> <CNNscore>
0.1516533941

> <CNNaffinity>
5.3029088974

> <CNN_VS>
0.8042041063

> <CNNaffinity_variance>
0.4605583251

$$$$
[H]OC([H])([H])C([H])([H])N([H])C(=O)[C@@]1([H])O[C@@]([H])(n2c([H])nc3c(N([H])C([H])([H])c4c([H])c([H])c([H])c([H])c4C([H])([H])[H])nc([H])nc32)[C@]([H])(O[H])[C@]1([H])O[H]


 36 39  0  0  0  0  0  0  0  0999 V2000
   40.7714   13.5857  -15.0183 C   0  0  0  0  0  0  0  0  0  0  0  0
   41.9500   12.9998  -15.3244 N   0  0  0  0  0  0  0  0  0  0  0  0
   43.0759   13.2596  -14.6457 C   0  0  0  0  0  0  0  0  0  0  0  0
   43.0309   14.1305  -13.6286 N   0  0  0  0  0  0  0  0  0  0  0  0
   41.8972   14.7408  -13.2786 C   0  0  0  0  0  0  0  0  0  0  0  0
   40.7504   14.4802  -13.9650 C   0  0  0  0  0  0  0  0  0  0  0  0
   39.7641   15.2153  -13.4183 N   0  0  0  0  0  0  0  0  0  0  0  0
   40.2623   15.9363  -12.3997 C   0  0  0  0  0  0  0  0  0  0  0  0
   41.5686   15.6415  -12.3191 N   0  0  0  0  0  0  0  0  0  0  0  0
   42.4705   16.1975  -11.3642 C   0  0  0  0  0  0  0  0  0  0  0  0
   43.6970   16.5644  -11.9125 O   0  0  0  0  0  0  0  0  0  0  0  0
   44.4941   16.7731  -10.7708 C   0  0  0  0  0  0  0  0  0  0  0  0
   44.2640   15.4541  -10.0417 C   0  0  0  0  0  0  0  0  0  0  0  0
   44.6797   15.4846   -8.7364 O   0  0  0  0  0  0  0  0  0  0  0  0
   42.7502   15.3410  -10.1761 C   0  0  0  0  0  0  0  0  0  0  0  0
   42.2107   15.8860   -8.9990 O   0  0  0  0  0  0  0  0  0  0  0  0
   44.8454   14.5468   -8.4323 H   0  0  0  0  0  0  0  0  0  0  0  0
   41.5583   15.2563   -8.5884 H   0  0  0  0  0  0  0  0  0  0  0  0
   45.8897   17.0160  -11.0966 C   0  0  0  0  0  0  0  0  0  0  0  0
   46.8001   16.6126  -10.3400 O   0  0  0  0  0  0  0  0  0  0  0  0
   46.2463   17.7129  -12.2749 N   0  0  0  0  0  0  0  0  0  0  0  0
   45.5066   18.0571  -12.9181 H   0  0  0  0  0  0  0  0  0  0  0  0
   47.6354   17.9692  -12.6245 C   0  0  0  0  0  0  0  0  0  0  0  0
   47.8625   19.4344  -12.7922 C   0  0  0  0  0  0  0  0  0  0  0  0
   46.6329   20.0959  -12.7859 O   0  0  0  0  0  0  0  0  0  0  0  0
   46.7212   21.0365  -12.4472 H   0  0  0  0  0  0  0  0  0  0  0  0
   39.5950   13.3083  -15.7631 N   0  0  0  0  0  0  0  0  0  0  0  0
   39.0744   14.1268  -16.1643 H   0  0  0  0  0  0  0  0  0  0  0  0
   39.1005   11.9855  -15.9841 C   0  0  0  0  0  0  0  0  0  0  0  0
   37.8155   10.5966  -18.1003 C   0  0  0  0  0  0  0  0  0  0  0  0
   37.0054   11.1690  -17.0171 C   0  0  0  0  0  0  0  0  0  0  0  0
   35.6503   11.0386  -17.0398 C   0  0  0  0  0  0  0  0  0  0  0  0
   34.8623   11.5650  -16.0370 C   0  0  0  0  0  0  0  0  0  0  0  0
   35.4375   12.2401  -14.9825 C   0  0  0  0  0  0  0  0  0  0  0  0
   36.8195   12.3552  -14.9898 C   0  0  0  0  0  0  0  0  0  0  0  0
   37.6358   11.8447  -15.9686 C   0  0  0  0  0  0  0  0  0  0  0  0
 30 31  1  0  0  0
 31 32  2  0  0  0
 32 33  1  0  0  0
 33 34  2  0  0  0
 34 35  1  0  0  0
 35 36  2  0  0  0
 36 29  1  0  0  0
 29 27  1  0  0  0
 27  1  1  0  0  0
  1  2  2  0  0  0
  2  3  1  0  0  0
  3  4  2  0  0  0
  4  5  1  0  0  0
  5  6  2  0  0  0
  6  7  1  0  0  0
  7  8  2  0  0  0
  8  9  1  0  0  0
  9 10  1  0  0  0
 10 11  1  0  0  0
 11 12  1  0  0  0
 12 19  1  0  0  0
 19 20  2  0  0  0
 19 21  1  0  0  0
 21 23  1  0  0  0
 23 24  1  0  0  0
 24 25  1  0  0  0
 12 13  1  0  0  0
 13 14  1  0  0  0
 13 15  1  0  0  0
 15 16  1  0  0  0
 36 31  1  0  0  0
  6  1  1  0  0  0
 15 10  1  0  0  0
  9  5  1  0  0  0
 27 28  1  0  0  0
 21 22  1  0  0  0
 25 26  1  0  0  0
 14 17  1  0  0  0
 16 18  1  0  0  0
M  END
> <minimizedAffinity>
-7.95716

> <CNNscore>
0.1501953602

> <CNNaffinity>
5.3544631004

> <CNN_VS>
0.8042154908

> <CNNaffinity_variance>
0.2723432183

$$$$
[H]c1c([H])c([H])c(S(=O)(=O)c2c([H])c([H])c3c(c2[H])c2c(n3[H])C([H])([H])C([H])([H])C([H])(N([H])[H])C2([H])[H])c([H])c1[H]


 26 29  0  0  0  0  0  0  0  0999 V2000
   44.7297   15.0435  -12.6613 N   0  0  0  0  0  0  0  0  0  0  0  0
   44.0524   14.6734  -13.9016 C   0  0  0  0  0  0  0  0  0  0  0  0
   45.0680   14.1666  -14.8597 C   0  0  0  0  0  0  0  0  0  0  0  0
   44.6087   13.0667  -15.7615 C   0  0  0  0  0  0  0  0  0  0  0  0
   43.1455   12.9285  -15.8589 C   0  0  0  0  0  0  0  0  0  0  0  0
   42.3692   12.5198  -16.8627 N   0  0  0  0  0  0  0  0  0  0  0  0
   41.0892   12.5561  -16.4997 C   0  0  0  0  0  0  0  0  0  0  0  0
   39.8946   12.2394  -17.1572 C   0  0  0  0  0  0  0  0  0  0  0  0
   38.7243   12.4044  -16.4503 C   0  0  0  0  0  0  0  0  0  0  0  0
   38.6836   12.8552  -15.1610 C   0  0  0  0  0  0  0  0  0  0  0  0
   39.8631   13.1653  -14.5190 C   0  0  0  0  0  0  0  0  0  0  0  0
   41.0411   13.0068  -15.2088 C   0  0  0  0  0  0  0  0  0  0  0  0
   42.3322   13.2408  -14.8058 C   0  0  0  0  0  0  0  0  0  0  0  0
   42.9628   13.7247  -13.5572 C   0  0  0  0  0  0  0  0  0  0  0  0
   44.0665   14.9896  -11.8753 H   0  0  0  0  0  0  0  0  0  0  0  0
   45.2256   15.9466  -12.7591 H   0  0  0  0  0  0  0  0  0  0  0  0
   42.6763   12.2048  -17.8204 H   0  0  0  0  0  0  0  0  0  0  0  0
   37.1666   13.0452  -14.3128 S   0  0  0  0  0  0  0  0  0  0  0  0
   36.8602   14.5006  -14.2087 O   0  0  0  0  0  0  0  0  0  0  0  0
   37.3136   12.4697  -12.9350 O   0  0  0  0  0  0  0  0  0  0  0  0
   35.9450   12.1859  -15.2238 C   0  0  0  0  0  0  0  0  0  0  0  0
   34.6796   12.0578  -14.7072 C   0  0  0  0  0  0  0  0  0  0  0  0
   33.6535   11.3966  -15.3561 C   0  0  0  0  0  0  0  0  0  0  0  0
   33.9458   10.8447  -16.5898 C   0  0  0  0  0  0  0  0  0  0  0  0
   35.2149   10.9585  -17.1362 C   0  0  0  0  0  0  0  0  0  0  0  0
   36.1998   11.6259  -16.4504 C   0  0  0  0  0  0  0  0  0  0  0  0
  1  2  1  0  0  0
  2  3  1  0  0  0
  3  4  1  0  0  0
  4  5  1  0  0  0
  5  6  1  0  0  0
  6  7  1  0  0  0
  7  8  2  0  0  0
  8  9  1  0  0  0
  9 10  2  0  0  0
 10 18  1  0  0  0
 18 19  2  0  0  0
 18 20  2  0  0  0
 18 21  1  0  0  0
 21 22  2  0  0  0
 22 23  1  0  0  0
 23 24  2  0  0  0
 24 25  1  0  0  0
 25 26  2  0  0  0
 10 11  1  0  0  0
 11 12  2  0  0  0
 12 13  1  0  0  0
 13 14  1  0  0  0
 14  2  1  0  0  0
 13  5  2  0  0  0
 12  7  1  0  0  0
 26 21  1  0  0  0
  1 15  1  0  0  0
  1 16  1  0  0  0
  6 17  1  0  0  0
M  END
> <minimizedAffinity>
-9.45879

> <CNNscore>
0.6101698279

> <CNNaffinity>
6.3655023575

> <CNN_VS>
3.8840374947

> <CNNaffinity_variance>
0.1062609702

$$$$
[H]c1c([H])c([H])c(S(=O)(=O)c2c([H])c([H])c3c(c2[H])c2c(n3[H])C([H])([H])C([H])([H])C([H])(N([H])[H])C2([H])[H])c([H])c1[H]


 26 29  0  0  0  0  0  0  0  0999 V2000
   41.6987   14.3933  -13.9194 N   0  0  0  0  0  0  0  0  0  0  0  0
   40.9974   13.8407  -15.0755 C   0  0  0  0  0  0  0  0  0  0  0  0
   42.0015   13.2535  -15.9991 C   0  0  0  0  0  0  0  0  0  0  0  0
   41.5602   12.0296  -16.7349 C   0  0  0  0  0  0  0  0  0  0  0  0
   40.1019   11.8243  -16.7580 C   0  0  0  0  0  0  0  0  0  0  0  0
   39.3111   11.2601  -17.6710 N   0  0  0  0  0  0  0  0  0  0  0  0
   38.0434   11.2941  -17.2670 C   0  0  0  0  0  0  0  0  0  0  0  0
   36.8424   10.8497  -17.8326 C   0  0  0  0  0  0  0  0  0  0  0  0
   35.6900   11.0599  -17.1084 C   0  0  0  0  0  0  0  0  0  0  0  0
   35.6726   11.6714  -15.8866 C   0  0  0  0  0  0  0  0  0  0  0  0
   36.8582   12.1067  -15.3349 C   0  0  0  0  0  0  0  0  0  0  0  0
   38.0187   11.9055  -16.0433 C   0  0  0  0  0  0  0  0  0  0  0  0
   39.3111   12.2387  -15.7231 C   0  0  0  0  0  0  0  0  0  0  0  0
   39.9612   12.9035  -14.5714 C   0  0  0  0  0  0  0  0  0  0  0  0
   41.0646   14.4161  -13.1082 H   0  0  0  0  0  0  0  0  0  0  0  0
   42.1520   15.2945  -14.1505 H   0  0  0  0  0  0  0  0  0  0  0  0
   39.5997   10.8360  -18.5917 H   0  0  0  0  0  0  0  0  0  0  0  0
   34.1777   11.9113  -15.0123 S   0  0  0  0  0  0  0  0  0  0  0  0
   33.6973   10.5879  -14.5215 O   0  0  0  0  0  0  0  0  0  0  0  0
   33.1615   12.4902  -15.9522 O   0  0  0  0  0  0  0  0  0  0  0  0
   34.5116   13.0126  -13.6946 C   0  0  0  0  0  0  0  0  0  0  0  0
   35.6080   12.8009  -12.8961 C   0  0  0  0  0  0  0  0  0  0  0  0
   35.9483   13.6183  -11.8343 C   0  0  0  0  0  0  0  0  0  0  0  0
   35.1222   14.6991  -11.5864 C   0  0  0  0  0  0  0  0  0  0  0  0
   34.0080   14.9376  -12.3763 C   0  0  0  0  0  0  0  0  0  0  0  0
   33.7138   14.0948  -13.4199 C   0  0  0  0  0  0  0  0  0  0  0  0
  1  2  1  0  0  0
  2  3  1  0  0  0
  3  4  1  0  0  0
  4  5  1  0  0  0
  5  6  1  0  0  0
  6  7  1  0  0  0
  7  8  2  0  0  0
  8  9  1  0  0  0
  9 10  2  0  0  0
 10 18  1  0  0  0
 18 19  2  0  0  0
 18 20  2  0  0  0
 18 21  1  0  0  0
 21 22  2  0  0  0
 22 23  1  0  0  0
 23 24  2  0  0  0
 24 25  1  0  0  0
 25 26  2  0  0  0
 10 11  1  0  0  0
 11 12  2  0  0  0
 12 13  1  0  0  0
 13 14  1  0  0  0
 14  2  1  0  0  0
 13  5  2  0  0  0
 12  7  1  0  0  0
 26 21  1  0  0  0
  1 15  1  0  0  0
  1 16  1  0  0  0
  6 17  1  0  0  0
M  END
> <minimizedAffinity>
-7.98316

> <CNNscore>
0.3339512944

> <CNNaffinity>
6.5201311111

> <CNN_VS>
2.1774063110

> <CNNaffinity_variance>
0.2258527279

$$$$
[H]c1c([H])c([H])c(S(=O)(=O)c2c([H])c([H])c3c(c2[H])c2c(n3[H])C([H])([H])C([H])([H])C([H])(N([H])[H])C2([H])[H])c([H])c1[H]


 26 29  0  0  0  0  0  0  0  0999 V2000
   47.6295   12.4835  -14.9924 N   0  0  0  0  0  0  0  0  0  0  0  0
   46.3534   12.7160  -14.3205 C   0  0  0  0  0  0  0  0  0  0  0  0
   46.5930   13.5912  -13.1445 C   0  0  0  0  0  0  0  0  0  0  0  0
   45.4967   14.5564  -12.8273 C   0  0  0  0  0  0  0  0  0  0  0  0
   44.2002   14.2320  -13.4464 C   0  0  0  0  0  0  0  0  0  0  0  0
   42.9523   14.4513  -13.0319 N   0  0  0  0  0  0  0  0  0  0  0  0
   42.0816   13.9839  -13.9235 C   0  0  0  0  0  0  0  0  0  0  0  0
   40.6830   13.9570  -13.9780 C   0  0  0  0  0  0  0  0  0  0  0  0
   40.1075   13.3756  -15.0859 C   0  0  0  0  0  0  0  0  0  0  0  0
   40.8313   12.8359  -16.1115 C   0  0  0  0  0  0  0  0  0  0  0  0
   42.2079   12.8655  -16.0521 C   0  0  0  0  0  0  0  0  0  0  0  0
   42.8000   13.4418  -14.9538 C   0  0  0  0  0  0  0  0  0  0  0  0
   44.1306   13.5973  -14.6549 C   0  0  0  0  0  0  0  0  0  0  0  0
   45.3990   13.2415  -15.3299 C   0  0  0  0  0  0  0  0  0  0  0  0
   47.4632   12.2633  -15.9846 H   0  0  0  0  0  0  0  0  0  0  0  0
   48.2048   11.7940  -14.4779 H   0  0  0  0  0  0  0  0  0  0  0  0
   42.6491   14.9210  -12.1385 H   0  0  0  0  0  0  0  0  0  0  0  0
   40.0452   12.1103  -17.4944 S   0  0  0  0  0  0  0  0  0  0  0  0
   40.7970   10.8808  -17.8766 O   0  0  0  0  0  0  0  0  0  0  0  0
   40.0814   13.0875  -18.6324 O   0  0  0  0  0  0  0  0  0  0  0  0
   38.3974   11.7486  -17.0311 C   0  0  0  0  0  0  0  0  0  0  0  0
   37.6610   10.8659  -17.7815 C   0  0  0  0  0  0  0  0  0  0  0  0
   36.3541   10.5215  -17.4904 C   0  0  0  0  0  0  0  0  0  0  0  0
   35.7837   11.1131  -16.3783 C   0  0  0  0  0  0  0  0  0  0  0  0
   36.5035   12.0082  -15.6019 C   0  0  0  0  0  0  0  0  0  0  0  0
   37.7997   12.3168  -15.9344 C   0  0  0  0  0  0  0  0  0  0  0  0
  1  2  1  0  0  0
  2  3  1  0  0  0
  3  4  1  0  0  0
  4  5  1  0  0  0
  5  6  1  0  0  0
  6  7  1  0  0  0
  7  8  2  0  0  0
  8  9  1  0  0  0
  9 10  2  0  0  0
 10 18  1  0  0  0
 18 19  2  0  0  0
 18 20  2  0  0  0
 18 21  1  0  0  0
 21 22  2  0  0  0
 22 23  1  0  0  0
 23 24  2  0  0  0
 24 25  1  0  0  0
 25 26  2  0  0  0
 10 11  1  0  0  0
 11 12  2  0  0  0
 12 13  1  0  0  0
 13 14  1  0  0  0
 14  2  1  0  0  0
 13  5  2  0  0  0
 12  7  1  0  0  0
 26 21  1  0  0  0
  1 15  1  0  0  0
  1 16  1  0  0  0
  6 17  1  0  0  0
M  END
> <minimizedAffinity>
-8.32818

> <CNNscore>
0.3291935921

> <CNNaffinity>
5.6930708885

> <CNN_VS>
1.8741225004

> <CNNaffinity_variance>
0.0700168014

$$$$
[H]c1c([H])c([H])c(S(=O)(=O)c2c([H])c([H])c3c(c2[H])c2c(n3[H])C([H])([H])C([H])([H])C([H])(N([H])[H])C2([H])[H])c([H])c1[H]


 26 29  0  0  0  0  0  0  0  0999 V2000
   38.1033   13.5479  -13.6904 N   0  0  0  0  0  0  0  0  0  0  0  0
   39.1233   12.8575  -14.4758 C   0  0  0  0  0  0  0  0  0  0  0  0
   38.5090   12.4020  -15.7492 C   0  0  0  0  0  0  0  0  0  0  0  0
   39.4085   12.4285  -16.9426 C   0  0  0  0  0  0  0  0  0  0  0  0
   40.8444   12.5016  -16.6228 C   0  0  0  0  0  0  0  0  0  0  0  0
   41.9102   12.0218  -17.2641 N   0  0  0  0  0  0  0  0  0  0  0  0
   43.0234   12.3304  -16.6031 C   0  0  0  0  0  0  0  0  0  0  0  0
   44.3803   12.0754  -16.8345 C   0  0  0  0  0  0  0  0  0  0  0  0
   45.2785   12.5619  -15.9108 C   0  0  0  0  0  0  0  0  0  0  0  0
   44.9062   13.2680  -14.8018 C   0  0  0  0  0  0  0  0  0  0  0  0
   43.5688   13.5158  -14.5795 C   0  0  0  0  0  0  0  0  0  0  0  0
   42.6577   13.0380  -15.4908 C   0  0  0  0  0  0  0  0  0  0  0  0
   41.2894   13.1459  -15.5026 C   0  0  0  0  0  0  0  0  0  0  0  0
   40.2855   13.7720  -14.6130 C   0  0  0  0  0  0  0  0  0  0  0  0
   38.5538   14.2141  -13.0471 H   0  0  0  0  0  0  0  0  0  0  0  0
   37.4530   12.8766  -13.2461 H   0  0  0  0  0  0  0  0  0  0  0  0
   41.9209   11.4733  -18.1640 H   0  0  0  0  0  0  0  0  0  0  0  0
   46.0922   13.8615  -13.6625 S   0  0  0  0  0  0  0  0  0  0  0  0
   47.4437   13.7470  -14.2816 O   0  0  0  0  0  0  0  0  0  0  0  0
   46.0382   13.0096  -12.4286 O   0  0  0  0  0  0  0  0  0  0  0  0
   45.6822   15.5222  -13.2959 C   0  0  0  0  0  0  0  0  0  0  0  0
   45.0472   15.8185  -12.1154 C   0  0  0  0  0  0  0  0  0  0  0  0
   44.6860   17.1001  -11.7437 C   0  0  0  0  0  0  0  0  0  0  0  0
   44.9931   18.1184  -12.6274 C   0  0  0  0  0  0  0  0  0  0  0  0
   45.6341   17.8488  -13.8268 C   0  0  0  0  0  0  0  0  0  0  0  0
   45.9717   16.5572  -14.1491 C   0  0  0  0  0  0  0  0  0  0  0  0
  1  2  1  0  0  0
  2  3  1  0  0  0
  3  4  1  0  0  0
  4  5  1  0  0  0
  5  6  1  0  0  0
  6  7  1  0  0  0
  7  8  2  0  0  0
  8  9  1  0  0  0
  9 10  2  0  0  0
 10 18  1  0  0  0
 18 19  2  0  0  0
 18 20  2  0  0  0
 18 21  1  0  0  0
 21 22  2  0  0  0
 22 23  1  0  0  0
 23 24  2  0  0  0
 24 25  1  0  0  0
 25 26  2  0  0  0
 10 11  1  0  0  0
 11 12  2  0  0  0
 12 13  1  0  0  0
 13 14  1  0  0  0
 14  2  1  0  0  0
 13  5  2  0  0  0
 12  7  1  0  0  0
 26 21  1  0  0  0
  1 15  1  0  0  0
  1 16  1  0  0  0
  6 17  1  0  0  0
M  END
> <minimizedAffinity>
-7.55987

> <CNNscore>
0.2322459966

> <CNNaffinity>
5.3139429092

> <CNN_VS>
1.2341419458

> <CNNaffinity_variance>
0.1742536128

$$$$
[H]c1c([H])c([H])c(S(=O)(=O)c2c([H])c([H])c3c(c2[H])c2c(n3[H])C([H])([H])C([H])([H])C([H])(N([H])[H])C2([H])[H])c([H])c1[H]


 26 29  0  0  0  0  0  0  0  0999 V2000
   36.9673   11.7481  -15.7564 N   0  0  0  0  0  0  0  0  0  0  0  0
   38.3702   11.5063  -16.0841 C   0  0  0  0  0  0  0  0  0  0  0  0
   38.4477   11.0000  -17.4784 C   0  0  0  0  0  0  0  0  0  0  0  0
   39.6502   11.4325  -18.2535 C   0  0  0  0  0  0  0  0  0  0  0  0
   40.7594   11.9382  -17.4269 C   0  0  0  0  0  0  0  0  0  0  0  0
   42.0791   11.8956  -17.6110 N   0  0  0  0  0  0  0  0  0  0  0  0
   42.7054   12.4850  -16.5952 C   0  0  0  0  0  0  0  0  0  0  0  0
   44.0550   12.7094  -16.2985 C   0  0  0  0  0  0  0  0  0  0  0  0
   44.3397   13.3709  -15.1247 C   0  0  0  0  0  0  0  0  0  0  0  0
   43.3785   13.8072  -14.2571 C   0  0  0  0  0  0  0  0  0  0  0  0
   42.0516   13.5834  -14.5547 C   0  0  0  0  0  0  0  0  0  0  0  0
   41.7483   12.9247  -15.7222 C   0  0  0  0  0  0  0  0  0  0  0  0
   40.5260   12.5816  -16.2439 C   0  0  0  0  0  0  0  0  0  0  0  0
   39.1214   12.7582  -15.8114 C   0  0  0  0  0  0  0  0  0  0  0  0
   36.9027   12.4596  -15.0147 H   0  0  0  0  0  0  0  0  0  0  0  0
   36.4688   10.8621  -15.5625 H   0  0  0  0  0  0  0  0  0  0  0  0
   42.5974   11.4696  -18.4239 H   0  0  0  0  0  0  0  0  0  0  0  0
   43.7999   14.6424  -12.7800 S   0  0  0  0  0  0  0  0  0  0  0  0
   42.5525   14.8873  -12.0009 O   0  0  0  0  0  0  0  0  0  0  0  0
   44.4281   15.9574  -13.1365 O   0  0  0  0  0  0  0  0  0  0  0  0
   44.9249   13.6270  -11.9059 C   0  0  0  0  0  0  0  0  0  0  0  0
   44.4717   12.4850  -11.2934 C   0  0  0  0  0  0  0  0  0  0  0  0
   45.2878   11.6249  -10.5824 C   0  0  0  0  0  0  0  0  0  0  0  0
   46.6274   11.9575  -10.5003 C   0  0  0  0  0  0  0  0  0  0  0  0
   47.1133   13.1045  -11.1090 C   0  0  0  0  0  0  0  0  0  0  0  0
   46.2602   13.9262  -11.8040 C   0  0  0  0  0  0  0  0  0  0  0  0
  1  2  1  0  0  0
  2  3  1  0  0  0
  3  4  1  0  0  0
  4  5  1  0  0  0
  5  6  1  0  0  0
  6  7  1  0  0  0
  7  8  2  0  0  0
  8  9  1  0  0  0
  9 10  2  0  0  0
 10 18  1  0  0  0
 18 19  2  0  0  0
 18 20  2  0  0  0
 18 21  1  0  0  0
 21 22  2  0  0  0
 22 23  1  0  0  0
 23 24  2  0  0  0
 24 25  1  0  0  0
 25 26  2  0  0  0
 10 11  1  0  0  0
 11 12  2  0  0  0
 12 13  1  0  0  0
 13 14  1  0  0  0
 14  2  1  0  0  0
 13  5  2  0  0  0
 12  7  1  0  0  0
 26 21  1  0  0  0
  1 15  1  0  0  0
  1 16  1  0  0  0
  6 17  1  0  0  0
M  END
> <minimizedAffinity>
-7.73044

> <CNNscore>
0.2101826072

> <CNNaffinity>
5.5621652603

> <CNN_VS>
1.1690703630

> <CNNaffinity_variance>
0.0842512399

$$$$
[H]c1c([H])c([H])c(S(=O)(=O)c2c([H])c([H])c3c(c2[H])c2c(n3[H])C([H])([H])C([H])([H])C([H])(N([H])[H])C2([H])[H])c([H])c1[H]


 26 29  0  0  0  0  0  0  0  0999 V2000
   37.1204   12.2342  -14.6598 N   0  0  0  0  0  0  0  0  0  0  0  0
   38.4748   11.9842  -15.1467 C   0  0  0  0  0  0  0  0  0  0  0  0
   38.3934   11.5570  -16.5669 C   0  0  0  0  0  0  0  0  0  0  0  0
   39.5191   12.0094  -17.4400 C   0  0  0  0  0  0  0  0  0  0  0  0
   40.7210   12.4454  -16.7087 C   0  0  0  0  0  0  0  0  0  0  0  0
   42.0128   12.3875  -17.0333 N   0  0  0  0  0  0  0  0  0  0  0  0
   42.7565   12.9056  -16.0586 C   0  0  0  0  0  0  0  0  0  0  0  0
   44.1350   13.0862  -15.8944 C   0  0  0  0  0  0  0  0  0  0  0  0
   44.5574   13.6738  -14.7227 C   0  0  0  0  0  0  0  0  0  0  0  0
   43.7035   14.0786  -13.7358 C   0  0  0  0  0  0  0  0  0  0  0  0
   42.3474   13.8981  -13.9034 C   0  0  0  0  0  0  0  0  0  0  0  0
   41.9072   13.3132  -15.0666 C   0  0  0  0  0  0  0  0  0  0  0  0
   40.6288   13.0245  -15.4742 C   0  0  0  0  0  0  0  0  0  0  0  0
   39.2820   13.2035  -14.8867 C   0  0  0  0  0  0  0  0  0  0  0  0
   37.1517   12.9033  -13.8776 H   0  0  0  0  0  0  0  0  0  0  0  0
   36.6225   11.3485  -14.4631 H   0  0  0  0  0  0  0  0  0  0  0  0
   42.4323   11.9986  -17.9185 H   0  0  0  0  0  0  0  0  0  0  0  0
   44.2978   14.8196  -12.2680 S   0  0  0  0  0  0  0  0  0  0  0  0
   43.2084   15.6516  -11.6815 O   0  0  0  0  0  0  0  0  0  0  0  0
   45.4624   15.7000  -12.6142 O   0  0  0  0  0  0  0  0  0  0  0  0
   44.7852   13.5308  -11.1899 C   0  0  0  0  0  0  0  0  0  0  0  0
   45.1811   12.3244  -11.7118 C   0  0  0  0  0  0  0  0  0  0  0  0
   45.5818   11.2520  -10.9368 C   0  0  0  0  0  0  0  0  0  0  0  0
   45.5734   11.4325   -9.5659 C   0  0  0  0  0  0  0  0  0  0  0  0
   45.1786   12.6400   -9.0108 C   0  0  0  0  0  0  0  0  0  0  0  0
   44.7892   13.6749   -9.8253 C   0  0  0  0  0  0  0  0  0  0  0  0
  1  2  1  0  0  0
  2  3  1  0  0  0
  3  4  1  0  0  0
  4  5  1  0  0  0
  5  6  1  0  0  0
  6  7  1  0  0  0
  7  8  2  0  0  0
  8  9  1  0  0  0
  9 10  2  0  0  0
 10 18  1  0  0  0
 18 19  2  0  0  0
 18 20  2  0  0  0
 18 21  1  0  0  0
 21 22  2  0  0  0
 22 23  1  0  0  0
 23 24  2  0  0  0
 24 25  1  0  0  0
 25 26  2  0  0  0
 10 11  1  0  0  0
 11 12  2  0  0  0
 12 13  1  0  0  0
 13 14  1  0  0  0
 14  2  1  0  0  0
 13  5  2  0  0  0
 12  7  1  0  0  0
 26 21  1  0  0  0
  1 15  1  0  0  0
  1 16  1  0  0  0
  6 17  1  0  0  0
M  END
> <minimizedAffinity>
-7.36630

> <CNNscore>
0.2088294029

> <CNNaffinity>
5.4226570129

> <CNN_VS>
1.1324101686

> <CNNaffinity_variance>
0.1156616360

$$$$
[H]c1c([H])c([H])c(S(=O)(=O)c2c([H])c([H])c3c(c2[H])c2c(n3[H])C([H])([H])C([H])([H])C([H])(N([H])[H])C2([H])[H])c([H])c1[H]


 26 29  0  0  0  0  0  0  0  0999 V2000
   34.7233   15.3224  -12.4031 N   0  0  0  0  0  0  0  0  0  0  0  0
   35.8644   14.8648  -11.6143 C   0  0  0  0  0  0  0  0  0  0  0  0
   37.1092   15.1740  -12.3634 C   0  0  0  0  0  0  0  0  0  0  0  0
   38.2885   15.5475  -11.5245 C   0  0  0  0  0  0  0  0  0  0  0  0
   38.1742   15.1653  -10.1066 C   0  0  0  0  0  0  0  0  0  0  0  0
   39.1027   14.8155   -9.2162 N   0  0  0  0  0  0  0  0  0  0  0  0
   38.5373   14.5510   -8.0406 C   0  0  0  0  0  0  0  0  0  0  0  0
   39.0446   14.1499   -6.7990 C   0  0  0  0  0  0  0  0  0  0  0  0
   38.1382   13.9661   -5.7786 C   0  0  0  0  0  0  0  0  0  0  0  0
   36.7931   14.1553   -5.9265 C   0  0  0  0  0  0  0  0  0  0  0  0
   36.2997   14.5501   -7.1513 C   0  0  0  0  0  0  0  0  0  0  0  0
   37.1895   14.7386   -8.1817 C   0  0  0  0  0  0  0  0  0  0  0  0
   36.9608   15.1245   -9.4789 C   0  0  0  0  0  0  0  0  0  0  0  0
   35.7568   15.4760  -10.2649 C   0  0  0  0  0  0  0  0  0  0  0  0
   33.9264   15.5149  -11.7798 H   0  0  0  0  0  0  0  0  0  0  0  0
   34.5246   14.6759  -13.1864 H   0  0  0  0  0  0  0  0  0  0  0  0
   40.1426   14.7443   -9.3720 H   0  0  0  0  0  0  0  0  0  0  0  0
   35.6890   13.9064   -4.5939 S   0  0  0  0  0  0  0  0  0  0  0  0
   36.2940   14.4877   -3.3614 O   0  0  0  0  0  0  0  0  0  0  0  0
   35.4950   12.4310   -4.4026 O   0  0  0  0  0  0  0  0  0  0  0  0
   34.1802   14.6882   -5.0098 C   0  0  0  0  0  0  0  0  0  0  0  0
   33.1964   13.9691   -5.6422 C   0  0  0  0  0  0  0  0  0  0  0  0
   31.9752   14.5040   -6.0077 C   0  0  0  0  0  0  0  0  0  0  0  0
   31.7604   15.8367   -5.7079 C   0  0  0  0  0  0  0  0  0  0  0  0
   32.7358   16.5874   -5.0697 C   0  0  0  0  0  0  0  0  0  0  0  0
   33.9330   16.0081   -4.7277 C   0  0  0  0  0  0  0  0  0  0  0  0
  1  2  1  0  0  0
  2  3  1  0  0  0
  3  4  1  0  0  0
  4  5  1  0  0  0
  5  6  1  0  0  0
  6  7  1  0  0  0
  7  8  2  0  0  0
  8  9  1  0  0  0
  9 10  2  0  0  0
 10 18  1  0  0  0
 18 19  2  0  0  0
 18 20  2  0  0  0
 18 21  1  0  0  0
 21 22  2  0  0  0
 22 23  1  0  0  0
 23 24  2  0  0  0
 24 25  1  0  0  0
 25 26  2  0  0  0
 10 11  1  0  0  0
 11 12  2  0  0  0
 12 13  1  0  0  0
 13 14  1  0  0  0
 14  2  1  0  0  0
 13  5  2  0  0  0
 12  7  1  0  0  0
 26 21  1  0  0  0
  1 15  1  0  0  0
  1 16  1  0  0  0
  6 17  1  0  0  0
M  END
> <minimizedAffinity>
-6.61490

> <CNNscore>
0.2074543089

> <CNNaffinity>
4.4961347580

> <CNN_VS>
0.9327425361

> <CNNaffinity_variance>
0.7897729874

$$$$
[H]c1c([H])c([H])c(S(=O)(=O)c2c([H])c([H])c3c(c2[H])c2c(n3[H])C([H])([H])C([H])([H])C([H])(N([H])[H])C2([H])[H])c([H])c1[H]


 26 29  0  0  0  0  0  0  0  0999 V2000
   37.1399   11.7214  -16.1539 N   0  0  0  0  0  0  0  0  0  0  0  0
   38.5938   11.5930  -16.2126 C   0  0  0  0  0  0  0  0  0  0  0  0
   38.9702   11.1168  -17.5683 C   0  0  0  0  0  0  0  0  0  0  0  0
   40.2590   11.6524  -18.1032 C   0  0  0  0  0  0  0  0  0  0  0  0
   41.1510   12.2281  -17.0822 C   0  0  0  0  0  0  0  0  0  0  0  0
   42.4810   12.2896  -17.0152 N   0  0  0  0  0  0  0  0  0  0  0  0
   42.8581   12.9087  -15.8990 C   0  0  0  0  0  0  0  0  0  0  0  0
   44.1066   13.2309  -15.3538 C   0  0  0  0  0  0  0  0  0  0  0  0
   44.1140   13.8931  -14.1463 C   0  0  0  0  0  0  0  0  0  0  0  0
   42.9764   14.2406  -13.4740 C   0  0  0  0  0  0  0  0  0  0  0  0
   41.7502   13.9207  -14.0159 C   0  0  0  0  0  0  0  0  0  0  0  0
   41.7231   13.2597  -15.2206 C   0  0  0  0  0  0  0  0  0  0  0  0
   40.6507   12.8326  -15.9631 C   0  0  0  0  0  0  0  0  0  0  0  0
   39.1805   12.8942  -15.8018 C   0  0  0  0  0  0  0  0  0  0  0  0
   36.8822   12.4138  -15.4364 H   0  0  0  0  0  0  0  0  0  0  0  0
   36.6847   10.7969  -16.0584 H   0  0  0  0  0  0  0  0  0  0  0  0
   43.1739   11.9177  -17.7169 H   0  0  0  0  0  0  0  0  0  0  0  0
   43.0473   15.0816  -11.9429 S   0  0  0  0  0  0  0  0  0  0  0  0
   43.4850   14.1184  -10.8923 O   0  0  0  0  0  0  0  0  0  0  0  0
   41.6743   15.5873  -11.6108 O   0  0  0  0  0  0  0  0  0  0  0  0
   44.1761   16.4059  -12.1235 C   0  0  0  0  0  0  0  0  0  0  0  0
   43.9024   17.4124  -13.0160 C   0  0  0  0  0  0  0  0  0  0  0  0
   44.7357   18.4957  -13.2240 C   0  0  0  0  0  0  0  0  0  0  0  0
   45.9002   18.5418  -12.4796 C   0  0  0  0  0  0  0  0  0  0  0  0
   46.2026   17.5394  -11.5709 C   0  0  0  0  0  0  0  0  0  0  0  0
   45.3406   16.4839  -11.4017 C   0  0  0  0  0  0  0  0  0  0  0  0
  1  2  1  0  0  0
  2  3  1  0  0  0
  3  4  1  0  0  0
  4  5  1  0  0  0
  5  6  1  0  0  0
  6  7  1  0  0  0
  7  8  2  0  0  0
  8  9  1  0  0  0
  9 10  2  0  0  0
 10 18  1  0  0  0
 18 19  2  0  0  0
 18 20  2  0  0  0
 18 21  1  0  0  0
 21 22  2  0  0  0
 22 23  1  0  0  0
 23 24  2  0  0  0
 24 25  1  0  0  0
 25 26  2  0  0  0
 10 11  1  0  0  0
 11 12  2  0  0  0
 12 13  1  0  0  0
 13 14  1  0  0  0
 14  2  1  0  0  0
 13  5  2  0  0  0
 12  7  1  0  0  0
 26 21  1  0  0  0
  1 15  1  0  0  0
  1 16  1  0  0  0
  6 17  1  0  0  0
M  END
> <minimizedAffinity>
-8.20168

> <CNNscore>
0.2028791159

> <CNNaffinity>
5.3430852890

> <CNN_VS>
1.0840004683

> <CNNaffinity_variance>
0.1498304456

$$$$
[H]c1c([H])c([H])c(S(=O)(=O)c2c([H])c([H])c3c(c2[H])c2c(n3[H])C([H])([H])C([H])([H])C([H])(N([H])[H])C2([H])[H])c([H])c1[H]


 26 29  0  0  0  0  0  0  0  0999 V2000
   34.0851   12.5497  -14.3641 N   0  0  0  0  0  0  0  0  0  0  0  0
   35.4716   12.1912  -14.6521 C   0  0  0  0  0  0  0  0  0  0  0  0
   35.4990   11.3744  -15.8923 C   0  0  0  0  0  0  0  0  0  0  0  0
   36.6935   11.5750  -16.7681 C   0  0  0  0  0  0  0  0  0  0  0  0
   37.8375   12.2199  -16.1013 C   0  0  0  0  0  0  0  0  0  0  0  0
   39.1503   12.0911  -16.2943 N   0  0  0  0  0  0  0  0  0  0  0  0
   39.8189   12.8776  -15.4541 C   0  0  0  0  0  0  0  0  0  0  0  0
   41.1816   13.1184  -15.2418 C   0  0  0  0  0  0  0  0  0  0  0  0
   41.5150   14.0230  -14.2584 C   0  0  0  0  0  0  0  0  0  0  0  0
   40.5891   14.6803  -13.4983 C   0  0  0  0  0  0  0  0  0  0  0  0
   39.2492   14.4390  -13.7120 C   0  0  0  0  0  0  0  0  0  0  0  0
   38.8974   13.5392  -14.6895 C   0  0  0  0  0  0  0  0  0  0  0  0
   37.6528   13.1267  -15.0955 C   0  0  0  0  0  0  0  0  0  0  0  0
   36.2653   13.4460  -14.6904 C   0  0  0  0  0  0  0  0  0  0  0  0
   34.0599   13.4150  -13.8063 H   0  0  0  0  0  0  0  0  0  0  0  0
   33.5662   11.7499  -13.9613 H   0  0  0  0  0  0  0  0  0  0  0  0
   39.6352   11.4716  -16.9956 H   0  0  0  0  0  0  0  0  0  0  0  0
   41.0718   15.8192  -12.2626 S   0  0  0  0  0  0  0  0  0  0  0  0
   40.2756   15.5492  -11.0313 O   0  0  0  0  0  0  0  0  0  0  0  0
   40.7764   17.2072  -12.7497 O   0  0  0  0  0  0  0  0  0  0  0  0
   42.7863   15.6022  -11.9902 C   0  0  0  0  0  0  0  0  0  0  0  0
   43.6740   16.5189  -12.4964 C   0  0  0  0  0  0  0  0  0  0  0  0
   45.0434   16.4276  -12.3304 C   0  0  0  0  0  0  0  0  0  0  0  0
   45.5162   15.3448  -11.6119 C   0  0  0  0  0  0  0  0  0  0  0  0
   44.6430   14.4033  -11.0890 C   0  0  0  0  0  0  0  0  0  0  0  0
   43.2903   14.5402  -11.2823 C   0  0  0  0  0  0  0  0  0  0  0  0
  1  2  1  0  0  0
  2  3  1  0  0  0
  3  4  1  0  0  0
  4  5  1  0  0  0
  5  6  1  0  0  0
  6  7  1  0  0  0
  7  8  2  0  0  0
  8  9  1  0  0  0
  9 10  2  0  0  0
 10 18  1  0  0  0
 18 19  2  0  0  0
 18 20  2  0  0  0
 18 21  1  0  0  0
 21 22  2  0  0  0
 22 23  1  0  0  0
 23 24  2  0  0  0
 24 25  1  0  0  0
 25 26  2  0  0  0
 10 11  1  0  0  0
 11 12  2  0  0  0
 12 13  1  0  0  0
 13 14  1  0  0  0
 14  2  1  0  0  0
 13  5  2  0  0  0
 12  7  1  0  0  0
 26 21  1  0  0  0
  1 15  1  0  0  0
  1 16  1  0  0  0
  6 17  1  0  0  0
M  END
> <minimizedAffinity>
-7.43663

> <CNNscore>
0.1984174401

> <CNNaffinity>
5.7566051483

> <CNN_VS>
1.1422108412

> <CNNaffinity_variance>
0.1484765261

$$$$
[H]c1c([H])c(OC([H])([H])[H])c2c(c1[H])[C@]([H])(C([H])([H])N(C([H])([H])[H])C([H])([H])C([H])([H])c1c([H])c([H])c3c(c1[H])C([H])([H])N(S(=O)(=O)C([H])([H])[H])C3([H])[H])C([H])([H])C([H])([H])C2([H])[H]


 30 33  0  0  0  0  0  0  0  0999 V2000
   34.5176   13.8656  -12.9253 N   0  0  0  0  0  0  0  0  0  0  0  0
   33.1599   14.1264  -13.1200 C   0  0  0  0  0  0  0  0  0  0  0  0
   35.0847   12.6405  -13.2240 C   0  0  0  0  0  0  0  0  0  0  0  0
   37.4059   11.1633  -17.2846 C   0  0  0  0  0  0  0  0  0  0  0  0
   38.6237   11.3165  -16.6346 C   0  0  0  0  0  0  0  0  0  0  0  0
   38.6109   11.7577  -15.3095 C   0  0  0  0  0  0  0  0  0  0  0  0
   37.4373   12.0438  -14.6296 C   0  0  0  0  0  0  0  0  0  0  0  0
   36.2248   11.8909  -15.2791 C   0  0  0  0  0  0  0  0  0  0  0  0
   36.2626   11.4568  -16.5775 C   0  0  0  0  0  0  0  0  0  0  0  0
   34.9001   11.2870  -17.2072 C   0  0  0  0  0  0  0  0  0  0  0  0
   34.0965   10.4374  -16.2318 C   0  0  0  0  0  0  0  0  0  0  0  0
   33.9215   11.1486  -14.9100 C   0  0  0  0  0  0  0  0  0  0  0  0
   34.9266   12.2055  -14.6502 C   0  0  0  0  0  0  0  0  0  0  0  0
   38.4170   10.7574  -19.4954 C   0  0  0  0  0  0  0  0  0  0  0  0
   37.3121   10.7260  -18.6157 O   0  0  0  0  0  0  0  0  0  0  0  0
   35.3077   14.8407  -12.2701 C   0  0  0  0  0  0  0  0  0  0  0  0
   34.6508   15.6559  -11.2068 C   0  0  0  0  0  0  0  0  0  0  0  0
   35.4659   15.6405   -9.9378 C   0  0  0  0  0  0  0  0  0  0  0  0
   34.9934   16.0730   -8.7223 C   0  0  0  0  0  0  0  0  0  0  0  0
   35.7589   16.0651   -7.5813 C   0  0  0  0  0  0  0  0  0  0  0  0
   37.0744   15.6089   -7.6069 C   0  0  0  0  0  0  0  0  0  0  0  0
   37.5523   15.1780   -8.8072 C   0  0  0  0  0  0  0  0  0  0  0  0
   36.7695   15.1864   -9.9702 C   0  0  0  0  0  0  0  0  0  0  0  0
   38.9640   14.7399   -8.6411 C   0  0  0  0  0  0  0  0  0  0  0  0
   39.1805   14.7785   -7.2304 N   0  0  0  0  0  0  0  0  0  0  0  0
   38.1223   15.4754   -6.5804 C   0  0  0  0  0  0  0  0  0  0  0  0
   39.2867   13.1997   -6.5387 S   0  0  0  0  0  0  0  0  0  0  0  0
   40.6614   12.2939   -7.1899 C   0  0  0  0  0  0  0  0  0  0  0  0
   39.4128   13.3705   -5.0521 O   0  0  0  0  0  0  0  0  0  0  0  0
   37.9824   12.4687   -6.7646 O   0  0  0  0  0  0  0  0  0  0  0  0
 14 15  1  0  0  0
 15  4  1  0  0  0
  4  5  2  0  0  0
  5  6  1  0  0  0
  6  7  2  0  0  0
  7  8  1  0  0  0
  8  9  2  0  0  0
  9 10  1  0  0  0
 10 11  1  0  0  0
 11 12  1  0  0  0
 12 13  1  0  0  0
 13  3  1  0  0  0
  3  1  1  0  0  0
  1  2  1  0  0  0
  1 16  1  0  0  0
 16 17  1  0  0  0
 17 18  1  0  0  0
 18 19  2  0  0  0
 19 20  1  0  0  0
 20 21  2  0  0  0
 21 22  1  0  0  0
 22 23  2  0  0  0
 22 24  1  0  0  0
 24 25  1  0  0  0
 25 27  1  0  0  0
 27 28  1  0  0  0
 27 29  2  0  0  0
 27 30  2  0  0  0
 25 26  1  0  0  0
  9  4  1  0  0  0
 23 18  1  0  0  0
 13  8  1  0  0  0
 26 21  1  0  0  0
M  END
> <minimizedAffinity>
-8.30470

> <CNNscore>
0.4571633935

> <CNNaffinity>
6.2915749550

> <CNN_VS>
2.8762776852

> <CNNaffinity_variance>
0.1012187228

$$$$
[H]c1c([H])c(OC([H])([H])[H])c2c(c1[H])[C@]([H])(C([H])([H])N(C([H])([H])[H])C([H])([H])C([H])([H])c1c([H])c([H])c3c(c1[H])C([H])([H])N(S(=O)(=O)C([H])([H])[H])C3([H])[H])C([H])([H])C([H])([H])C2([H])[H]


 30 33  0  0  0  0  0  0  0  0999 V2000
   34.8852   14.1795  -13.2553 N   0  0  0  0  0  0  0  0  0  0  0  0
   33.5678   14.4286  -12.8656 C   0  0  0  0  0  0  0  0  0  0  0  0
   35.3677   12.8990  -13.4526 C   0  0  0  0  0  0  0  0  0  0  0  0
   37.5864   11.0538  -17.4188 C   0  0  0  0  0  0  0  0  0  0  0  0
   38.8176   11.2216  -16.7984 C   0  0  0  0  0  0  0  0  0  0  0  0
   38.8368   11.7622  -15.5107 C   0  0  0  0  0  0  0  0  0  0  0  0
   37.6817   12.1317  -14.8393 C   0  0  0  0  0  0  0  0  0  0  0  0
   36.4558   11.9641  -15.4593 C   0  0  0  0  0  0  0  0  0  0  0  0
   36.4622   11.4320  -16.7213 C   0  0  0  0  0  0  0  0  0  0  0  0
   35.0862   11.2532  -17.3183 C   0  0  0  0  0  0  0  0  0  0  0  0
   34.2750   10.5028  -16.2706 C   0  0  0  0  0  0  0  0  0  0  0  0
   34.1392   11.3167  -15.0047 C   0  0  0  0  0  0  0  0  0  0  0  0
   35.1763   12.3617  -14.8393 C   0  0  0  0  0  0  0  0  0  0  0  0
   38.4225   10.7576  -19.7184 C   0  0  0  0  0  0  0  0  0  0  0  0
   37.4607   10.5197  -18.7114 O   0  0  0  0  0  0  0  0  0  0  0  0
   35.7916   15.2656  -13.3127 C   0  0  0  0  0  0  0  0  0  0  0  0
   37.0507   15.1523  -12.5200 C   0  0  0  0  0  0  0  0  0  0  0  0
   36.7984   15.4580  -11.0646 C   0  0  0  0  0  0  0  0  0  0  0  0
   35.7778   16.2632  -10.6200 C   0  0  0  0  0  0  0  0  0  0  0  0
   35.5757   16.5414   -9.2897 C   0  0  0  0  0  0  0  0  0  0  0  0
   36.4135   16.0085   -8.3133 C   0  0  0  0  0  0  0  0  0  0  0  0
   37.4285   15.2090   -8.7439 C   0  0  0  0  0  0  0  0  0  0  0  0
   37.6326   14.9259  -10.1017 C   0  0  0  0  0  0  0  0  0  0  0  0
   38.2142   14.7436   -7.5698 C   0  0  0  0  0  0  0  0  0  0  0  0
   37.4565   15.1840   -6.4427 N   0  0  0  0  0  0  0  0  0  0  0  0
   36.4555   16.1136   -6.8447 C   0  0  0  0  0  0  0  0  0  0  0  0
   36.6774   13.8781   -5.6241 S   0  0  0  0  0  0  0  0  0  0  0  0
   34.9802   14.2448   -5.2793 C   0  0  0  0  0  0  0  0  0  0  0  0
   36.7964   12.6657   -6.5021 O   0  0  0  0  0  0  0  0  0  0  0  0
   37.4437   13.5545   -4.3613 O   0  0  0  0  0  0  0  0  0  0  0  0
 14 15  1  0  0  0
 15  4  1  0  0  0
  4  5  2  0  0  0
  5  6  1  0  0  0
  6  7  2  0  0  0
  7  8  1  0  0  0
  8  9  2  0  0  0
  9 10  1  0  0  0
 10 11  1  0  0  0
 11 12  1  0  0  0
 12 13  1  0  0  0
 13  3  1  0  0  0
  3  1  1  0  0  0
  1  2  1  0  0  0
  1 16  1  0  0  0
 16 17  1  0  0  0
 17 18  1  0  0  0
 18 19  2  0  0  0
 19 20  1  0  0  0
 20 21  2  0  0  0
 21 22  1  0  0  0
 22 23  2  0  0  0
 22 24  1  0  0  0
 24 25  1  0  0  0
 25 27  1  0  0  0
 27 28  1  0  0  0
 27 29  2  0  0  0
 27 30  2  0  0  0
 25 26  1  0  0  0
  9  4  1  0  0  0
 23 18  1  0  0  0
 13  8  1  0  0  0
 26 21  1  0  0  0
M  END
> <minimizedAffinity>
-8.15925

> <CNNscore>
0.4070785344

> <CNNaffinity>
6.3829069138

> <CNN_VS>
2.5983443260

> <CNNaffinity_variance>
0.0842309818

$$$$
[H]c1c([H])c(OC([H])([H])[H])c2c(c1[H])[C@]([H])(C([H])([H])N(C([H])([H])[H])C([H])([H])C([H])([H])c1c([H])c([H])c3c(c1[H])C([H])([H])N(S(=O)(=O)C([H])([H])[H])C3([H])[H])C([H])([H])C([H])([H])C2([H])[H]


 30 33  0  0  0  0  0  0  0  0999 V2000
   39.6635   11.2468  -18.4492 N   0  0  0  0  0  0  0  0  0  0  0  0
   39.2615   11.4649  -19.7683 C   0  0  0  0  0  0  0  0  0  0  0  0
   40.9158   11.6094  -17.9890 C   0  0  0  0  0  0  0  0  0  0  0  0
   43.7024   13.4625  -14.4030 C   0  0  0  0  0  0  0  0  0  0  0  0
   44.8400   13.0502  -15.0848 C   0  0  0  0  0  0  0  0  0  0  0  0
   44.6729   12.3931  -16.3059 C   0  0  0  0  0  0  0  0  0  0  0  0
   43.4244   12.1423  -16.8535 C   0  0  0  0  0  0  0  0  0  0  0  0
   42.2920   12.5535  -16.1724 C   0  0  0  0  0  0  0  0  0  0  0  0
   42.4809   13.1959  -14.9778 C   0  0  0  0  0  0  0  0  0  0  0  0
   41.2002   13.6388  -14.3104 C   0  0  0  0  0  0  0  0  0  0  0  0
   40.4217   14.4014  -15.3740 C   0  0  0  0  0  0  0  0  0  0  0  0
   40.0640   13.5011  -16.5338 C   0  0  0  0  0  0  0  0  0  0  0  0
   40.9209   12.2989  -16.6576 C   0  0  0  0  0  0  0  0  0  0  0  0
   44.2626   15.4465  -13.0522 C   0  0  0  0  0  0  0  0  0  0  0  0
   43.7640   14.1299  -13.1691 O   0  0  0  0  0  0  0  0  0  0  0  0
   38.8125   10.5040  -17.5956 C   0  0  0  0  0  0  0  0  0  0  0  0
   37.3632   10.4517  -17.9465 C   0  0  0  0  0  0  0  0  0  0  0  0
   36.5394   11.2179  -16.9418 C   0  0  0  0  0  0  0  0  0  0  0  0
   35.2474   10.8919  -16.6072 C   0  0  0  0  0  0  0  0  0  0  0  0
   34.5093   11.6137  -15.7005 C   0  0  0  0  0  0  0  0  0  0  0  0
   35.0492   12.7305  -15.0676 C   0  0  0  0  0  0  0  0  0  0  0  0
   36.3296   13.0621  -15.3926 C   0  0  0  0  0  0  0  0  0  0  0  0
   37.0812   12.3239  -16.3176 C   0  0  0  0  0  0  0  0  0  0  0  0
   36.7278   14.2751  -14.6294 C   0  0  0  0  0  0  0  0  0  0  0  0
   35.6499   14.4862  -13.7172 N   0  0  0  0  0  0  0  0  0  0  0  0
   34.5284   13.6843  -14.0734 C   0  0  0  0  0  0  0  0  0  0  0  0
   36.0837   14.1080  -12.0890 S   0  0  0  0  0  0  0  0  0  0  0  0
   35.2004   15.1120  -10.9290 C   0  0  0  0  0  0  0  0  0  0  0  0
   35.7860   12.6519  -11.8738 O   0  0  0  0  0  0  0  0  0  0  0  0
   37.5798   14.2556  -11.9255 O   0  0  0  0  0  0  0  0  0  0  0  0
 14 15  1  0  0  0
 15  4  1  0  0  0
  4  5  2  0  0  0
  5  6  1  0  0  0
  6  7  2  0  0  0
  7  8  1  0  0  0
  8  9  2  0  0  0
  9 10  1  0  0  0
 10 11  1  0  0  0
 11 12  1  0  0  0
 12 13  1  0  0  0
 13  3  1  0  0  0
  3  1  1  0  0  0
  1  2  1  0  0  0
  1 16  1  0  0  0
 16 17  1  0  0  0
 17 18  1  0  0  0
 18 19  2  0  0  0
 19 20  1  0  0  0
 20 21  2  0  0  0
 21 22  1  0  0  0
 22 23  2  0  0  0
 22 24  1  0  0  0
 24 25  1  0  0  0
 25 27  1  0  0  0
 27 28  1  0  0  0
 27 29  2  0  0  0
 27 30  2  0  0  0
 25 26  1  0  0  0
  9  4  1  0  0  0
 23 18  1  0  0  0
 13  8  1  0  0  0
 26 21  1  0  0  0
M  END
> <minimizedAffinity>
-8.60649

> <CNNscore>
0.3810326457

> <CNNaffinity>
7.0582532883

> <CNN_VS>
2.6894249916

> <CNNaffinity_variance>
0.2155513465

$$$$
[H]c1c([H])c(OC([H])([H])[H])c2c(c1[H])[C@]([H])(C([H])([H])N(C([H])([H])[H])C([H])([H])C([H])([H])c1c([H])c([H])c3c(c1[H])C([H])([H])N(S(=O)(=O)C([H])([H])[H])C3([H])[H])C([H])([H])C([H])([H])C2([H])[H]


 30 33  0  0  0  0  0  0  0  0999 V2000
   39.3347   11.3731  -17.9917 N   0  0  0  0  0  0  0  0  0  0  0  0
   39.0804   10.9936  -19.3110 C   0  0  0  0  0  0  0  0  0  0  0  0
   38.5986   10.8856  -16.9278 C   0  0  0  0  0  0  0  0  0  0  0  0
   34.2167   12.4600  -15.3853 C   0  0  0  0  0  0  0  0  0  0  0  0
   33.6078   11.4264  -16.0853 C   0  0  0  0  0  0  0  0  0  0  0  0
   34.4236   10.5457  -16.7992 C   0  0  0  0  0  0  0  0  0  0  0  0
   35.8040   10.6672  -16.8315 C   0  0  0  0  0  0  0  0  0  0  0  0
   36.4089   11.6981  -16.1338 C   0  0  0  0  0  0  0  0  0  0  0  0
   35.5887   12.5484  -15.4411 C   0  0  0  0  0  0  0  0  0  0  0  0
   36.3245   13.6279  -14.6826 C   0  0  0  0  0  0  0  0  0  0  0  0
   37.3943   12.9083  -13.8723 C   0  0  0  0  0  0  0  0  0  0  0  0
   38.3818   12.2093  -14.7778 C   0  0  0  0  0  0  0  0  0  0  0  0
   37.8670   11.9297  -16.1385 C   0  0  0  0  0  0  0  0  0  0  0  0
   33.5059   13.4115  -13.2256 C   0  0  0  0  0  0  0  0  0  0  0  0
   33.4852   13.3973  -14.6381 O   0  0  0  0  0  0  0  0  0  0  0  0
   40.2835   12.3963  -17.7519 C   0  0  0  0  0  0  0  0  0  0  0  0
   41.7132   11.9903  -17.6202 C   0  0  0  0  0  0  0  0  0  0  0  0
   42.3241   12.5734  -16.3704 C   0  0  0  0  0  0  0  0  0  0  0  0
   41.5917   13.1450  -15.3583 C   0  0  0  0  0  0  0  0  0  0  0  0
   42.1701   13.6848  -14.2350 C   0  0  0  0  0  0  0  0  0  0  0  0
   43.5528   13.6761  -14.0693 C   0  0  0  0  0  0  0  0  0  0  0  0
   44.2880   13.1118  -15.0672 C   0  0  0  0  0  0  0  0  0  0  0  0
   43.6958   12.5610  -16.2123 C   0  0  0  0  0  0  0  0  0  0  0  0
   45.7315   13.2013  -14.7198 C   0  0  0  0  0  0  0  0  0  0  0  0
   45.7405   13.6833  -13.3759 N   0  0  0  0  0  0  0  0  0  0  0  0
   44.4505   14.1597  -13.0062 C   0  0  0  0  0  0  0  0  0  0  0  0
   46.2065   12.4649  -12.2442 S   0  0  0  0  0  0  0  0  0  0  0  0
   44.8988   12.0944  -11.1099 C   0  0  0  0  0  0  0  0  0  0  0  0
   46.5934   11.2469  -13.0327 O   0  0  0  0  0  0  0  0  0  0  0  0
   47.4589   12.9089  -11.5225 O   0  0  0  0  0  0  0  0  0  0  0  0
 14 15  1  0  0  0
 15  4  1  0  0  0
  4  5  2  0  0  0
  5  6  1  0  0  0
  6  7  2  0  0  0
  7  8  1  0  0  0
  8  9  2  0  0  0
  9 10  1  0  0  0
 10 11  1  0  0  0
 11 12  1  0  0  0
 12 13  1  0  0  0
 13  3  1  0  0  0
  3  1  1  0  0  0
  1  2  1  0  0  0
  1 16  1  0  0  0
 16 17  1  0  0  0
 17 18  1  0  0  0
 18 19  2  0  0  0
 19 20  1  0  0  0
 20 21  2  0  0  0
 21 22  1  0  0  0
 22 23  2  0  0  0
 22 24  1  0  0  0
 24 25  1  0  0  0
 25 27  1  0  0  0
 27 28  1  0  0  0
 27 29  2  0  0  0
 27 30  2  0  0  0
 25 26  1  0  0  0
  9  4  1  0  0  0
 23 18  1  0  0  0
 13  8  1  0  0  0
 26 21  1  0  0  0
M  END
> <minimizedAffinity>
-8.87728

> <CNNscore>
0.3727373481

> <CNNaffinity>
6.9294791222

> <CNN_VS>
2.5828757286

> <CNNaffinity_variance>
0.0061605512

$$$$
[H]c1c([H])c(OC([H])([H])[H])c2c(c1[H])[C@]([H])(C([H])([H])N(C([H])([H])[H])C([H])([H])C([H])([H])c1c([H])c([H])c3c(c1[H])C([H])([H])N(S(=O)(=O)C([H])([H])[H])C3([H])[H])C([H])([H])C([H])([H])C2([H])[H]


 30 33  0  0  0  0  0  0  0  0999 V2000
   39.5863   11.4707  -17.7382 N   0  0  0  0  0  0  0  0  0  0  0  0
   39.3448   11.1383  -19.0725 C   0  0  0  0  0  0  0  0  0  0  0  0
   38.7753   11.0303  -16.7087 C   0  0  0  0  0  0  0  0  0  0  0  0
   34.4596   12.8091  -15.2022 C   0  0  0  0  0  0  0  0  0  0  0  0
   33.8101   11.7861  -15.8809 C   0  0  0  0  0  0  0  0  0  0  0  0
   34.5901   10.8591  -16.5758 C   0  0  0  0  0  0  0  0  0  0  0  0
   35.9743   10.9250  -16.6098 C   0  0  0  0  0  0  0  0  0  0  0  0
   36.6197   11.9453  -15.9332 C   0  0  0  0  0  0  0  0  0  0  0  0
   35.8341   12.8418  -15.2589 C   0  0  0  0  0  0  0  0  0  0  0  0
   36.6123   13.9068  -14.5226 C   0  0  0  0  0  0  0  0  0  0  0  0
   37.6528   13.1623  -13.6967 C   0  0  0  0  0  0  0  0  0  0  0  0
   38.6116   12.4060  -14.5869 C   0  0  0  0  0  0  0  0  0  0  0  0
   38.0859   12.1188  -15.9419 C   0  0  0  0  0  0  0  0  0  0  0  0
   33.5159   13.6611  -13.0907 C   0  0  0  0  0  0  0  0  0  0  0  0
   33.7661   13.7900  -14.4751 O   0  0  0  0  0  0  0  0  0  0  0  0
   40.6114   12.4029  -17.4470 C   0  0  0  0  0  0  0  0  0  0  0  0
   42.0223   11.9347  -17.5748 C   0  0  0  0  0  0  0  0  0  0  0  0
   42.8664   12.4570  -16.4390 C   0  0  0  0  0  0  0  0  0  0  0  0
   44.2373   12.3717  -16.4055 C   0  0  0  0  0  0  0  0  0  0  0  0
   44.9860   12.8400  -15.3529 C   0  0  0  0  0  0  0  0  0  0  0  0
   44.3759   13.4339  -14.2509 C   0  0  0  0  0  0  0  0  0  0  0  0
   43.0171   13.5231  -14.2744 C   0  0  0  0  0  0  0  0  0  0  0  0
   42.2551   13.0452  -15.3497 C   0  0  0  0  0  0  0  0  0  0  0  0
   42.5493   14.1732  -13.0210 C   0  0  0  0  0  0  0  0  0  0  0  0
   43.7493   14.6106  -12.3827 N   0  0  0  0  0  0  0  0  0  0  0  0
   44.8886   14.0214  -13.0012 C   0  0  0  0  0  0  0  0  0  0  0  0
   43.9358   16.3265  -12.4399 S   0  0  0  0  0  0  0  0  0  0  0  0
   45.1107   16.8138  -13.6712 C   0  0  0  0  0  0  0  0  0  0  0  0
   42.5838   16.9138  -12.7265 O   0  0  0  0  0  0  0  0  0  0  0  0
   44.3265   16.8304  -11.0688 O   0  0  0  0  0  0  0  0  0  0  0  0
 14 15  1  0  0  0
 15  4  1  0  0  0
  4  5  2  0  0  0
  5  6  1  0  0  0
  6  7  2  0  0  0
  7  8  1  0  0  0
  8  9  2  0  0  0
  9 10  1  0  0  0
 10 11  1  0  0  0
 11 12  1  0  0  0
 12 13  1  0  0  0
 13  3  1  0  0  0
  3  1  1  0  0  0
  1  2  1  0  0  0
  1 16  1  0  0  0
 16 17  1  0  0  0
 17 18  1  0  0  0
 18 19  2  0  0  0
 19 20  1  0  0  0
 20 21  2  0  0  0
 21 22  1  0  0  0
 22 23  2  0  0  0
 22 24  1  0  0  0
 24 25  1  0  0  0
 25 27  1  0  0  0
 27 28  1  0  0  0
 27 29  2  0  0  0
 27 30  2  0  0  0
 25 26  1  0  0  0
  9  4  1  0  0  0
 23 18  1  0  0  0
 13  8  1  0  0  0
 26 21  1  0  0  0
M  END
> <minimizedAffinity>
-8.60951

> <CNNscore>
0.3112680316

> <CNNaffinity>
6.8435950279

> <CNN_VS>
2.1301922798

> <CNNaffinity_variance>
0.0150244627

$$$$
[H]c1c([H])c(OC([H])([H])[H])c2c(c1[H])[C@]([H])(C([H])([H])N(C([H])([H])[H])C([H])([H])C([H])([H])c1c([H])c([H])c3c(c1[H])C([H])([H])N(S(=O)(=O)C([H])([H])[H])C3([H])[H])C([H])([H])C([H])([H])C2([H])[H]


 30 33  0  0  0  0  0  0  0  0999 V2000
   35.5524   14.9696  -11.8376 N   0  0  0  0  0  0  0  0  0  0  0  0
   34.1897   15.2282  -11.9974 C   0  0  0  0  0  0  0  0  0  0  0  0
   36.1357   13.7911  -12.2647 C   0  0  0  0  0  0  0  0  0  0  0  0
   37.2702   11.6128  -16.5105 C   0  0  0  0  0  0  0  0  0  0  0  0
   38.6117   11.6288  -16.1511 C   0  0  0  0  0  0  0  0  0  0  0  0
   38.9548   12.1819  -14.9153 C   0  0  0  0  0  0  0  0  0  0  0  0
   38.0123   12.7086  -14.0460 C   0  0  0  0  0  0  0  0  0  0  0  0
   36.6761   12.6922  -14.4061 C   0  0  0  0  0  0  0  0  0  0  0  0
   36.3640   12.1446  -15.6220 C   0  0  0  0  0  0  0  0  0  0  0  0
   34.8851   12.1369  -15.9297 C   0  0  0  0  0  0  0  0  0  0  0  0
   34.2127   11.5143  -14.7134 C   0  0  0  0  0  0  0  0  0  0  0  0
   34.4349   12.3583  -13.4798 C   0  0  0  0  0  0  0  0  0  0  0  0
   35.6058   13.2621  -13.5638 C   0  0  0  0  0  0  0  0  0  0  0  0
   37.7156   10.5545  -18.6915 C   0  0  0  0  0  0  0  0  0  0  0  0
   36.8234   11.0799  -17.7304 O   0  0  0  0  0  0  0  0  0  0  0  0
   36.3322   15.8835  -11.0885 C   0  0  0  0  0  0  0  0  0  0  0  0
   37.7920   15.6005  -10.9644 C   0  0  0  0  0  0  0  0  0  0  0  0
   38.1416   15.1902   -9.5556 C   0  0  0  0  0  0  0  0  0  0  0  0
   37.2271   14.7018   -8.6541 C   0  0  0  0  0  0  0  0  0  0  0  0
   37.5644   14.3489   -7.3697 C   0  0  0  0  0  0  0  0  0  0  0  0
   38.8750   14.4732   -6.9157 C   0  0  0  0  0  0  0  0  0  0  0  0
   39.7893   14.9567   -7.8019 C   0  0  0  0  0  0  0  0  0  0  0  0
   39.4431   15.3157   -9.1121 C   0  0  0  0  0  0  0  0  0  0  0  0
   41.1200   15.0253   -7.1409 C   0  0  0  0  0  0  0  0  0  0  0  0
   40.9241   14.3707   -5.8873 N   0  0  0  0  0  0  0  0  0  0  0  0
   39.5358   14.1846   -5.6313 C   0  0  0  0  0  0  0  0  0  0  0  0
   41.6923   12.8253   -5.8261 S   0  0  0  0  0  0  0  0  0  0  0  0
   43.2303   12.8959   -4.9524 C   0  0  0  0  0  0  0  0  0  0  0  0
   40.7384   11.8781   -5.1569 O   0  0  0  0  0  0  0  0  0  0  0  0
   41.8764   12.3051   -7.2340 O   0  0  0  0  0  0  0  0  0  0  0  0
 14 15  1  0  0  0
 15  4  1  0  0  0
  4  5  2  0  0  0
  5  6  1  0  0  0
  6  7  2  0  0  0
  7  8  1  0  0  0
  8  9  2  0  0  0
  9 10  1  0  0  0
 10 11  1  0  0  0
 11 12  1  0  0  0
 12 13  1  0  0  0
 13  3  1  0  0  0
  3  1  1  0  0  0
  1  2  1  0  0  0
  1 16  1  0  0  0
 16 17  1  0  0  0
 17 18  1  0  0  0
 18 19  2  0  0  0
 19 20  1  0  0  0
 20 21  2  0  0  0
 21 22  1  0  0  0
 22 23  2  0  0  0
 22 24  1  0  0  0
 24 25  1  0  0  0
 25 27  1  0  0  0
 27 28  1  0  0  0
 27 29  2  0  0  0
 27 30  2  0  0  0
 25 26  1  0  0  0
  9  4  1  0  0  0
 23 18  1  0  0  0
 13  8  1  0  0  0
 26 21  1  0  0  0
M  END
> <minimizedAffinity>
-7.46192

> <CNNscore>
0.2857531309

> <CNNaffinity>
6.0787100792

> <CNN_VS>
1.7370104790

> <CNNaffinity_variance>
0.1022552624

$$$$
[H]c1c([H])c(OC([H])([H])[H])c2c(c1[H])[C@]([H])(C([H])([H])N(C([H])([H])[H])C([H])([H])C([H])([H])c1c([H])c([H])c3c(c1[H])C([H])([H])N(S(=O)(=O)C([H])([H])[H])C3([H])[H])C([H])([H])C([H])([H])C2([H])[H]


 30 33  0  0  0  0  0  0  0  0999 V2000
   39.5697   11.6842  -17.8201 N   0  0  0  0  0  0  0  0  0  0  0  0
   40.0011   11.3832  -19.1134 C   0  0  0  0  0  0  0  0  0  0  0  0
   38.4979   11.0402  -17.2302 C   0  0  0  0  0  0  0  0  0  0  0  0
   34.3065   12.0998  -14.9133 C   0  0  0  0  0  0  0  0  0  0  0  0
   33.6066   11.3607  -15.8583 C   0  0  0  0  0  0  0  0  0  0  0  0
   34.3319   10.7469  -16.8819 C   0  0  0  0  0  0  0  0  0  0  0  0
   35.7105   10.8492  -16.9846 C   0  0  0  0  0  0  0  0  0  0  0  0
   36.4062   11.5864  -16.0423 C   0  0  0  0  0  0  0  0  0  0  0  0
   35.6736   12.1785  -15.0480 C   0  0  0  0  0  0  0  0  0  0  0  0
   36.5061   12.9397  -14.0433 C   0  0  0  0  0  0  0  0  0  0  0  0
   37.5994   11.9776  -13.5983 C   0  0  0  0  0  0  0  0  0  0  0  0
   38.4899   11.5951  -14.7576 C   0  0  0  0  0  0  0  0  0  0  0  0
   37.8687   11.7825  -16.0895 C   0  0  0  0  0  0  0  0  0  0  0  0
   33.2185   14.0895  -13.9480 C   0  0  0  0  0  0  0  0  0  0  0  0
   33.6699   12.7548  -13.8468 O   0  0  0  0  0  0  0  0  0  0  0  0
   40.1604   12.7808  -17.1469 C   0  0  0  0  0  0  0  0  0  0  0  0
   41.4951   12.5620  -16.5168 C   0  0  0  0  0  0  0  0  0  0  0  0
   41.6401   13.3903  -15.2646 C   0  0  0  0  0  0  0  0  0  0  0  0
   40.6111   14.1025  -14.6976 C   0  0  0  0  0  0  0  0  0  0  0  0
   40.7692   14.8639  -13.5648 C   0  0  0  0  0  0  0  0  0  0  0  0
   42.0049   14.9490  -12.9282 C   0  0  0  0  0  0  0  0  0  0  0  0
   43.0317   14.2466  -13.4826 C   0  0  0  0  0  0  0  0  0  0  0  0
   42.8680   13.4699  -14.6382 C   0  0  0  0  0  0  0  0  0  0  0  0
   44.2625   14.4640  -12.6763 C   0  0  0  0  0  0  0  0  0  0  0  0
   43.8089   15.1827  -11.5290 N   0  0  0  0  0  0  0  0  0  0  0  0
   42.4818   15.6587  -11.7288 C   0  0  0  0  0  0  0  0  0  0  0  0
   43.8211   14.2134  -10.0997 S   0  0  0  0  0  0  0  0  0  0  0  0
   42.4342   14.5696   -9.0587 C   0  0  0  0  0  0  0  0  0  0  0  0
   43.8102   12.7760  -10.5343 O   0  0  0  0  0  0  0  0  0  0  0  0
   45.1301   14.4181   -9.3708 O   0  0  0  0  0  0  0  0  0  0  0  0
 14 15  1  0  0  0
 15  4  1  0  0  0
  4  5  2  0  0  0
  5  6  1  0  0  0
  6  7  2  0  0  0
  7  8  1  0  0  0
  8  9  2  0  0  0
  9 10  1  0  0  0
 10 11  1  0  0  0
 11 12  1  0  0  0
 12 13  1  0  0  0
 13  3  1  0  0  0
  3  1  1  0  0  0
  1  2  1  0  0  0
  1 16  1  0  0  0
 16 17  1  0  0  0
 17 18  1  0  0  0
 18 19  2  0  0  0
 19 20  1  0  0  0
 20 21  2  0  0  0
 21 22  1  0  0  0
 22 23  2  0  0  0
 22 24  1  0  0  0
 24 25  1  0  0  0
 25 27  1  0  0  0
 27 28  1  0  0  0
 27 29  2  0  0  0
 27 30  2  0  0  0
 25 26  1  0  0  0
  9  4  1  0  0  0
 23 18  1  0  0  0
 13  8  1  0  0  0
 26 21  1  0  0  0
M  END
> <minimizedAffinity>
-8.64523

> <CNNscore>
0.2788223326

> <CNNaffinity>
6.6679716110

> <CNN_VS>
1.8591793776

> <CNNaffinity_variance>
0.0693107694

$$$$
[H]c1c([H])c(OC([H])([H])[H])c2c(c1[H])[C@]([H])(C([H])([H])N(C([H])([H])[H])C([H])([H])C([H])([H])c1c([H])c([H])c3c(c1[H])C([H])([H])N(S(=O)(=O)C([H])([H])[H])C3([H])[H])C([H])([H])C([H])([H])C2([H])[H]


 30 33  0  0  0  0  0  0  0  0999 V2000
   34.4380   13.8462  -12.9765 N   0  0  0  0  0  0  0  0  0  0  0  0
   33.1042   14.2140  -13.1628 C   0  0  0  0  0  0  0  0  0  0  0  0
   34.8972   12.5705  -13.2470 C   0  0  0  0  0  0  0  0  0  0  0  0
   37.5922   11.2355  -17.1218 C   0  0  0  0  0  0  0  0  0  0  0  0
   38.7431   11.3610  -16.3545 C   0  0  0  0  0  0  0  0  0  0  0  0
   38.6050   11.7534  -15.0212 C   0  0  0  0  0  0  0  0  0  0  0  0
   37.3723   12.0181  -14.4451 C   0  0  0  0  0  0  0  0  0  0  0  0
   36.2266   11.8930  -15.2114 C   0  0  0  0  0  0  0  0  0  0  0  0
   36.3871   11.5066  -16.5155 C   0  0  0  0  0  0  0  0  0  0  0  0
   35.0902   11.3643  -17.2769 C   0  0  0  0  0  0  0  0  0  0  0  0
   34.1983   10.4821  -16.4136 C   0  0  0  0  0  0  0  0  0  0  0  0
   33.8990   11.1450  -15.0890 C   0  0  0  0  0  0  0  0  0  0  0  0
   34.8747   12.1885  -14.6967 C   0  0  0  0  0  0  0  0  0  0  0  0
   38.8060   10.9150  -19.2428 C   0  0  0  0  0  0  0  0  0  0  0  0
   37.6247   10.8476  -18.4709 O   0  0  0  0  0  0  0  0  0  0  0  0
   35.3154   14.7694  -12.3580 C   0  0  0  0  0  0  0  0  0  0  0  0
   36.2166   14.2498  -11.2882 C   0  0  0  0  0  0  0  0  0  0  0  0
   37.5912   14.8606  -11.4005 C   0  0  0  0  0  0  0  0  0  0  0  0
   38.1586   15.6465  -10.4268 C   0  0  0  0  0  0  0  0  0  0  0  0
   39.4067   16.2063  -10.5567 C   0  0  0  0  0  0  0  0  0  0  0  0
   40.1672   15.9975  -11.7044 C   0  0  0  0  0  0  0  0  0  0  0  0
   39.6135   15.2199  -12.6758 C   0  0  0  0  0  0  0  0  0  0  0  0
   38.3401   14.6491  -12.5410 C   0  0  0  0  0  0  0  0  0  0  0  0
   40.5611   15.1175  -13.8176 C   0  0  0  0  0  0  0  0  0  0  0  0
   41.7565   15.7342  -13.3390 N   0  0  0  0  0  0  0  0  0  0  0  0
   41.5040   16.4452  -12.1313 C   0  0  0  0  0  0  0  0  0  0  0  0
   43.0105   14.5869  -13.0333 S   0  0  0  0  0  0  0  0  0  0  0  0
   43.3758   14.4655  -11.3053 C   0  0  0  0  0  0  0  0  0  0  0  0
   42.5499   13.2655  -13.5781 O   0  0  0  0  0  0  0  0  0  0  0  0
   44.2359   14.9636  -13.8352 O   0  0  0  0  0  0  0  0  0  0  0  0
 14 15  1  0  0  0
 15  4  1  0  0  0
  4  5  2  0  0  0
  5  6  1  0  0  0
  6  7  2  0  0  0
  7  8  1  0  0  0
  8  9  2  0  0  0
  9 10  1  0  0  0
 10 11  1  0  0  0
 11 12  1  0  0  0
 12 13  1  0  0  0
 13  3  1  0  0  0
  3  1  1  0  0  0
  1  2  1  0  0  0
  1 16  1  0  0  0
 16 17  1  0  0  0
 17 18  1  0  0  0
 18 19  2  0  0  0
 19 20  1  0  0  0
 20 21  2  0  0  0
 21 22  1  0  0  0
 22 23  2  0  0  0
 22 24  1  0  0  0
 24 25  1  0  0  0
 25 27  1  0  0  0
 27 28  1  0  0  0
 27 29  2  0  0  0
 27 30  2  0  0  0
 25 26  1  0  0  0
  9  4  1  0  0  0
 23 18  1  0  0  0
 13  8  1  0  0  0
 26 21  1  0  0  0
M  END
> <minimizedAffinity>
-8.14257

> <CNNscore>
0.2670504451

> <CNNaffinity>
6.6051216125

> <CNN_VS>
1.7639006376

> <CNNaffinity_variance>
0.0700281113

$$$$
[H]c1c([H])c(OC([H])([H])[H])c2c(c1[H])[C@]([H])(C([H])([H])N(C([H])([H])[H])C([H])([H])C([H])([H])c1c([H])c([H])c3c(c1[H])C([H])([H])N(S(=O)(=O)C([H])([H])[H])C3([H])[H])C([H])([H])C([H])([H])C2([H])[H]


 30 33  0  0  0  0  0  0  0  0999 V2000
   37.3707   16.0296  -11.5050 N   0  0  0  0  0  0  0  0  0  0  0  0
   36.0512   16.4170  -11.7461 C   0  0  0  0  0  0  0  0  0  0  0  0
   37.9482   14.9425  -12.1344 C   0  0  0  0  0  0  0  0  0  0  0  0
   37.5322   12.0121  -16.0459 C   0  0  0  0  0  0  0  0  0  0  0  0
   38.8886   12.1705  -16.2988 C   0  0  0  0  0  0  0  0  0  0  0  0
   39.6288   12.9794  -15.4337 C   0  0  0  0  0  0  0  0  0  0  0  0
   39.0616   13.6213  -14.3438 C   0  0  0  0  0  0  0  0  0  0  0  0
   37.7097   13.4626  -14.0936 C   0  0  0  0  0  0  0  0  0  0  0  0
   37.0049   12.6647  -14.9552 C   0  0  0  0  0  0  0  0  0  0  0  0
   35.5443   12.5177  -14.5990 C   0  0  0  0  0  0  0  0  0  0  0  0
   35.5147   12.1200  -13.1294 C   0  0  0  0  0  0  0  0  0  0  0  0
   36.1063   13.2066  -12.2616 C   0  0  0  0  0  0  0  0  0  0  0  0
   37.0102   14.1346  -12.9805 C   0  0  0  0  0  0  0  0  0  0  0  0
   37.2039   10.4867  -17.9537 C   0  0  0  0  0  0  0  0  0  0  0  0
   36.7020   11.2208  -16.8560 O   0  0  0  0  0  0  0  0  0  0  0  0
   38.0929   16.6860  -10.4793 C   0  0  0  0  0  0  0  0  0  0  0  0
   38.5244   15.8658   -9.3100 C   0  0  0  0  0  0  0  0  0  0  0  0
   40.0103   15.9932   -9.0836 C   0  0  0  0  0  0  0  0  0  0  0  0
   40.9296   16.1068  -10.0983 C   0  0  0  0  0  0  0  0  0  0  0  0
   42.2808   16.2058   -9.8699 C   0  0  0  0  0  0  0  0  0  0  0  0
   42.7887   16.1952   -8.5733 C   0  0  0  0  0  0  0  0  0  0  0  0
   41.8854   16.0828   -7.5602 C   0  0  0  0  0  0  0  0  0  0  0  0
   40.5070   15.9825   -7.7953 C   0  0  0  0  0  0  0  0  0  0  0  0
   42.6083   16.0816   -6.2603 C   0  0  0  0  0  0  0  0  0  0  0  0
   43.9581   16.3905   -6.6082 N   0  0  0  0  0  0  0  0  0  0  0  0
   44.1490   16.2850   -8.0154 C   0  0  0  0  0  0  0  0  0  0  0  0
   44.4129   17.9845   -6.1237 S   0  0  0  0  0  0  0  0  0  0  0  0
   43.0489   18.8657   -5.4189 C   0  0  0  0  0  0  0  0  0  0  0  0
   45.5328   17.8480   -5.1325 O   0  0  0  0  0  0  0  0  0  0  0  0
   44.9949   18.7184   -7.3109 O   0  0  0  0  0  0  0  0  0  0  0  0
 14 15  1  0  0  0
 15  4  1  0  0  0
  4  5  2  0  0  0
  5  6  1  0  0  0
  6  7  2  0  0  0
  7  8  1  0  0  0
  8  9  2  0  0  0
  9 10  1  0  0  0
 10 11  1  0  0  0
 11 12  1  0  0  0
 12 13  1  0  0  0
 13  3  1  0  0  0
  3  1  1  0  0  0
  1  2  1  0  0  0
  1 16  1  0  0  0
 16 17  1  0  0  0
 17 18  1  0  0  0
 18 19  2  0  0  0
 19 20  1  0  0  0
 20 21  2  0  0  0
 21 22  1  0  0  0
 22 23  2  0  0  0
 22 24  1  0  0  0
 24 25  1  0  0  0
 25 27  1  0  0  0
 27 28  1  0  0  0
 27 29  2  0  0  0
 27 30  2  0  0  0
 25 26  1  0  0  0
  9  4  1  0  0  0
 23 18  1  0  0  0
 13  8  1  0  0  0
 26 21  1  0  0  0
M  END
> <minimizedAffinity>
-7.36325

> <CNNscore>
0.2458086759

> <CNNaffinity>
5.6427621841

> <CNN_VS>
1.3870398998

> <CNNaffinity_variance>
0.2746500373

$$$$
[H]N=C(c1c([H])c([H])c(C([H])([H])N([H])C(=O)C2([H])N3C(=O)[C@](O[H])(C([H])([H])c4c([H])c([H])c([H])c([H])c4[H])C([H])([H])C([H])([H])[C@]3([H])C([H])([H])C2([H])[H])c([H])c1[H])N([H])[H]


 36 39  0  0  0  0  0  0  0  0999 V2000
   38.3832   14.7993  -16.2456 C   0  0  0  0  0  0  0  0  0  0  0  0
   39.0776   16.0708  -15.8061 C   0  0  0  0  0  0  0  0  0  0  0  0
   40.2053   15.5049  -14.9566 C   0  0  0  0  0  0  0  0  0  0  0  0
   40.7004   14.3822  -15.8394 C   0  0  0  0  0  0  0  0  0  0  0  0
   41.3678   13.2900  -15.0466 C   0  0  0  0  0  0  0  0  0  0  0  0
   41.6618   12.0915  -15.8874 C   0  0  0  0  0  0  0  0  0  0  0  0
   41.0046   12.1030  -17.2390 C   0  0  0  0  0  0  0  0  0  0  0  0
   41.7112   12.9176  -18.1399 O   0  0  0  0  0  0  0  0  0  0  0  0
   39.6070   12.5823  -17.0747 C   0  0  0  0  0  0  0  0  0  0  0  0
   38.5906   11.9620  -17.4380 O   0  0  0  0  0  0  0  0  0  0  0  0
   39.4636   13.8633  -16.4440 N   0  0  0  0  0  0  0  0  0  0  0  0
   42.6749   12.8052  -17.8844 H   0  0  0  0  0  0  0  0  0  0  0  0
   38.1094   13.5738  -14.0950 N   0  0  0  0  0  0  0  0  0  0  0  0
   37.5080   14.3853  -15.0910 C   0  0  0  0  0  0  0  0  0  0  0  0
   36.3218   14.7286  -15.0033 O   0  0  0  0  0  0  0  0  0  0  0  0
   39.1234   13.2708  -14.1572 H   0  0  0  0  0  0  0  0  0  0  0  0
   37.4012   13.0941  -12.9209 C   0  0  0  0  0  0  0  0  0  0  0  0
   33.9055   11.0140  -14.2140 C   0  0  0  0  0  0  0  0  0  0  0  0
   34.7979   10.4460  -13.3484 C   0  0  0  0  0  0  0  0  0  0  0  0
   35.9470   11.0886  -12.9006 C   0  0  0  0  0  0  0  0  0  0  0  0
   36.1970   12.3544  -13.3499 C   0  0  0  0  0  0  0  0  0  0  0  0
   35.3188   12.9498  -14.2193 C   0  0  0  0  0  0  0  0  0  0  0  0
   34.1721   12.3070  -14.6654 C   0  0  0  0  0  0  0  0  0  0  0  0
   32.2955   10.2780  -15.8818 N   0  0  0  0  0  0  0  0  0  0  0  0
   32.7081   10.3243  -14.6716 C   0  0  0  0  0  0  0  0  0  0  0  0
   31.8908    9.6226  -13.7179 N   0  0  0  0  0  0  0  0  0  0  0  0
   32.8290   10.7576  -16.6225 H   0  0  0  0  0  0  0  0  0  0  0  0
   32.2658    8.8015  -13.1979 H   0  0  0  0  0  0  0  0  0  0  0  0
   30.9149    9.9533  -13.5583 H   0  0  0  0  0  0  0  0  0  0  0  0
   41.0381   10.7084  -17.8186 C   0  0  0  0  0  0  0  0  0  0  0  0
   39.7776   10.3054  -18.4380 C   0  0  0  0  0  0  0  0  0  0  0  0
   38.5801   10.2404  -17.7532 C   0  0  0  0  0  0  0  0  0  0  0  0
   37.4047    9.8504  -18.3752 C   0  0  0  0  0  0  0  0  0  0  0  0
   37.4052    9.5134  -19.7109 C   0  0  0  0  0  0  0  0  0  0  0  0
   38.5776    9.5709  -20.4052 C   0  0  0  0  0  0  0  0  0  0  0  0
   39.7549    9.9639  -19.7733 C   0  0  0  0  0  0  0  0  0  0  0  0
 24 25  2  0  0  0
 25 26  1  0  0  0
 25 18  1  0  0  0
 18 19  2  0  0  0
 19 20  1  0  0  0
 20 21  2  0  0  0
 21 17  1  0  0  0
 17 13  1  0  0  0
 13 14  1  0  0  0
 14 15  2  0  0  0
 14  1  1  0  0  0
  1  2  1  0  0  0
  2  3  1  0  0  0
  3  4  1  0  0  0
  4  5  1  0  0  0
  5  6  1  0  0  0
  6  7  1  0  0  0
  7  8  1  0  0  0
  7 30  1  0  0  0
 30 31  1  0  0  0
 31 32  2  0  0  0
 32 33  1  0  0  0
 33 34  2  0  0  0
 34 35  1  0  0  0
 35 36  2  0  0  0
  7  9  1  0  0  0
  9 10  2  0  0  0
  9 11  1  0  0  0
 21 22  1  0  0  0
 22 23  2  0  0  0
 23 18  1  0  0  0
 11  1  1  0  0  0
 11  4  1  0  0  0
 36 31  1  0  0  0
 24 27  1  0  0  0
 26 28  1  0  0  0
 26 29  1  0  0  0
 13 16  1  0  0  0
  8 12  1  0  0  0
M  END
> <minimizedAffinity>
21.26607

> <CNNscore>
0.4215660989

> <CNNaffinity>
6.2236156464

> <CNN_VS>
2.6236653328

> <CNNaffinity_variance>
1.7475521564

$$$$
[H]N=C(c1c([H])c([H])c(C([H])([H])N([H])C(=O)C2([H])N3C(=O)[C@](O[H])(C([H])([H])c4c([H])c([H])c([H])c([H])c4[H])C([H])([H])C([H])([H])[C@]3([H])C([H])([H])C2([H])[H])c([H])c1[H])N([H])[H]


 36 39  0  0  0  0  0  0  0  0999 V2000
   36.5901   15.5113  -12.3282 C   0  0  0  0  0  0  0  0  0  0  0  0
   35.2727   15.8229  -11.6504 C   0  0  0  0  0  0  0  0  0  0  0  0
   35.5188   15.2485  -10.2636 C   0  0  0  0  0  0  0  0  0  0  0  0
   36.9079   15.7695   -9.9743 C   0  0  0  0  0  0  0  0  0  0  0  0
   37.6460   14.9002   -8.9912 C   0  0  0  0  0  0  0  0  0  0  0  0
   39.0823   15.2906   -8.8713 C   0  0  0  0  0  0  0  0  0  0  0  0
   39.5553   16.2544   -9.9232 C   0  0  0  0  0  0  0  0  0  0  0  0
   39.1647   17.5694   -9.6189 O   0  0  0  0  0  0  0  0  0  0  0  0
   38.9990   15.8256  -11.2334 C   0  0  0  0  0  0  0  0  0  0  0  0
   39.6730   15.5798  -12.2508 O   0  0  0  0  0  0  0  0  0  0  0  0
   37.5706   15.6980  -11.2859 N   0  0  0  0  0  0  0  0  0  0  0  0
   39.2079   17.6238   -8.6180 H   0  0  0  0  0  0  0  0  0  0  0  0
   36.0698   13.8117  -14.0724 N   0  0  0  0  0  0  0  0  0  0  0  0
   36.5083   14.0664  -12.7476 C   0  0  0  0  0  0  0  0  0  0  0  0
   36.8054   13.1379  -11.9846 O   0  0  0  0  0  0  0  0  0  0  0  0
   35.8107   14.5962  -14.7367 H   0  0  0  0  0  0  0  0  0  0  0  0
   35.9395   12.4756  -14.6274 C   0  0  0  0  0  0  0  0  0  0  0  0
   39.1389   11.7088  -17.3468 C   0  0  0  0  0  0  0  0  0  0  0  0
   39.3107   12.4951  -16.2420 C   0  0  0  0  0  0  0  0  0  0  0  0
   38.2969   12.7686  -15.3303 C   0  0  0  0  0  0  0  0  0  0  0  0
   37.0641   12.2226  -15.5508 C   0  0  0  0  0  0  0  0  0  0  0  0
   36.8623   11.4292  -16.6513 C   0  0  0  0  0  0  0  0  0  0  0  0
   37.8754   11.1570  -17.5606 C   0  0  0  0  0  0  0  0  0  0  0  0
   40.0760   10.8566  -19.4231 N   0  0  0  0  0  0  0  0  0  0  0  0
   40.2131   11.4348  -18.2900 C   0  0  0  0  0  0  0  0  0  0  0  0
   41.5571   11.8302  -17.9622 N   0  0  0  0  0  0  0  0  0  0  0  0
   39.1417   10.5441  -19.7277 H   0  0  0  0  0  0  0  0  0  0  0  0
   41.8026   12.8360  -17.8467 H   0  0  0  0  0  0  0  0  0  0  0  0
   42.2803   11.0886  -17.8427 H   0  0  0  0  0  0  0  0  0  0  0  0
   41.0656   16.2598   -9.9476 C   0  0  0  0  0  0  0  0  0  0  0  0
   41.6687   15.6345   -8.7727 C   0  0  0  0  0  0  0  0  0  0  0  0
   42.3142   14.4141   -8.8075 C   0  0  0  0  0  0  0  0  0  0  0  0
   42.8717   13.8515   -7.6703 C   0  0  0  0  0  0  0  0  0  0  0  0
   42.7928   14.5074   -6.4615 C   0  0  0  0  0  0  0  0  0  0  0  0
   42.1594   15.7139   -6.4059 C   0  0  0  0  0  0  0  0  0  0  0  0
   41.6015   16.2732   -7.5529 C   0  0  0  0  0  0  0  0  0  0  0  0
 24 25  2  0  0  0
 25 26  1  0  0  0
 25 18  1  0  0  0
 18 19  2  0  0  0
 19 20  1  0  0  0
 20 21  2  0  0  0
 21 17  1  0  0  0
 17 13  1  0  0  0
 13 14  1  0  0  0
 14 15  2  0  0  0
 14  1  1  0  0  0
  1  2  1  0  0  0
  2  3  1  0  0  0
  3  4  1  0  0  0
  4  5  1  0  0  0
  5  6  1  0  0  0
  6  7  1  0  0  0
  7  8  1  0  0  0
  7 30  1  0  0  0
 30 31  1  0  0  0
 31 32  2  0  0  0
 32 33  1  0  0  0
 33 34  2  0  0  0
 34 35  1  0  0  0
 35 36  2  0  0  0
  7  9  1  0  0  0
  9 10  2  0  0  0
  9 11  1  0  0  0
 21 22  1  0  0  0
 22 23  2  0  0  0
 23 18  1  0  0  0
 11  1  1  0  0  0
 11  4  1  0  0  0
 36 31  1  0  0  0
 24 27  1  0  0  0
 26 28  1  0  0  0
 26 29  1  0  0  0
 13 16  1  0  0  0
  8 12  1  0  0  0
M  END
> <minimizedAffinity>
-8.70050

> <CNNscore>
0.2520438433

> <CNNaffinity>
5.9539709091

> <CNN_VS>
1.5006617308

> <CNNaffinity_variance>
0.1470721066

$$$$
[H]N=C(c1c([H])c([H])c(C([H])([H])N([H])C(=O)C2([H])N3C(=O)[C@](O[H])(C([H])([H])c4c([H])c([H])c([H])c([H])c4[H])C([H])([H])C([H])([H])[C@]3([H])C([H])([H])C2([H])[H])c([H])c1[H])N([H])[H]


 36 39  0  0  0  0  0  0  0  0999 V2000
   41.2825   16.4136   -9.9630 C   0  0  0  0  0  0  0  0  0  0  0  0
   41.5845   15.9105   -8.5673 C   0  0  0  0  0  0  0  0  0  0  0  0
   42.1822   14.5462   -8.8755 C   0  0  0  0  0  0  0  0  0  0  0  0
   43.1210   14.8884  -10.0097 C   0  0  0  0  0  0  0  0  0  0  0  0
   43.3821   13.7067  -10.9054 C   0  0  0  0  0  0  0  0  0  0  0  0
   44.1307   14.0963  -12.1373 C   0  0  0  0  0  0  0  0  0  0  0  0
   44.2253   15.5789  -12.3655 C   0  0  0  0  0  0  0  0  0  0  0  0
   45.2282   16.1524  -11.5657 O   0  0  0  0  0  0  0  0  0  0  0  0
   42.8998   16.1826  -12.0681 C   0  0  0  0  0  0  0  0  0  0  0  0
   42.2378   16.8802  -12.8586 O   0  0  0  0  0  0  0  0  0  0  0  0
   42.3799   15.9160  -10.7574 N   0  0  0  0  0  0  0  0  0  0  0  0
   45.9461   15.4533  -11.5155 H   0  0  0  0  0  0  0  0  0  0  0  0
   39.7429   15.6259  -11.7549 N   0  0  0  0  0  0  0  0  0  0  0  0
   39.9819   15.7671  -10.3638 C   0  0  0  0  0  0  0  0  0  0  0  0
   39.1539   15.3743   -9.5314 O   0  0  0  0  0  0  0  0  0  0  0  0
   40.4418   15.9587  -12.4793 H   0  0  0  0  0  0  0  0  0  0  0  0
   38.5397   15.0228  -12.3013 C   0  0  0  0  0  0  0  0  0  0  0  0
   39.4608   12.8574  -15.8625 C   0  0  0  0  0  0  0  0  0  0  0  0
   40.4061   13.5983  -15.2099 C   0  0  0  0  0  0  0  0  0  0  0  0
   40.1493   14.3164  -14.0471 C   0  0  0  0  0  0  0  0  0  0  0  0
   38.8853   14.2794  -13.5299 C   0  0  0  0  0  0  0  0  0  0  0  0
   37.9161   13.5441  -14.1633 C   0  0  0  0  0  0  0  0  0  0  0  0
   38.1740   12.8277  -15.3242 C   0  0  0  0  0  0  0  0  0  0  0  0
   39.3176   10.9396  -17.3514 N   0  0  0  0  0  0  0  0  0  0  0  0
   39.7495   12.1128  -17.0794 C   0  0  0  0  0  0  0  0  0  0  0  0
   40.5856   12.7074  -18.0882 N   0  0  0  0  0  0  0  0  0  0  0  0
   38.7122   10.4486  -16.6763 H   0  0  0  0  0  0  0  0  0  0  0  0
   40.2843   13.5702  -18.5883 H   0  0  0  0  0  0  0  0  0  0  0  0
   41.4996   12.2563  -18.3081 H   0  0  0  0  0  0  0  0  0  0  0  0
   44.6322   15.8352  -13.7975 C   0  0  0  0  0  0  0  0  0  0  0  0
   44.8777   14.6134  -14.5602 C   0  0  0  0  0  0  0  0  0  0  0  0
   46.1317   14.0589  -14.7256 C   0  0  0  0  0  0  0  0  0  0  0  0
   46.3251   12.8992  -15.4593 C   0  0  0  0  0  0  0  0  0  0  0  0
   45.2541   12.2645  -16.0490 C   0  0  0  0  0  0  0  0  0  0  0  0
   44.0073   12.7960  -15.8976 C   0  0  0  0  0  0  0  0  0  0  0  0
   43.8207   13.9617  -15.1588 C   0  0  0  0  0  0  0  0  0  0  0  0
 24 25  2  0  0  0
 25 26  1  0  0  0
 25 18  1  0  0  0
 18 19  2  0  0  0
 19 20  1  0  0  0
 20 21  2  0  0  0
 21 17  1  0  0  0
 17 13  1  0  0  0
 13 14  1  0  0  0
 14 15  2  0  0  0
 14  1  1  0  0  0
  1  2  1  0  0  0
  2  3  1  0  0  0
  3  4  1  0  0  0
  4  5  1  0  0  0
  5  6  1  0  0  0
  6  7  1  0  0  0
  7  8  1  0  0  0
  7 30  1  0  0  0
 30 31  1  0  0  0
 31 32  2  0  0  0
 32 33  1  0  0  0
 33 34  2  0  0  0
 34 35  1  0  0  0
 35 36  2  0  0  0
  7  9  1  0  0  0
  9 10  2  0  0  0
  9 11  1  0  0  0
 21 22  1  0  0  0
 22 23  2  0  0  0
 23 18  1  0  0  0
 11  1  1  0  0  0
 11  4  1  0  0  0
 36 31  1  0  0  0
 24 27  1  0  0  0
 26 28  1  0  0  0
 26 29  1  0  0  0
 13 16  1  0  0  0
  8 12  1  0  0  0
M  END
> <minimizedAffinity>
-7.48783

> <CNNscore>
0.2265393436

> <CNNaffinity>
5.9167070389

> <CNN_VS>
1.3403669596

> <CNNaffinity_variance>
0.0647940487

$$$$
[H]N=C(c1c([H])c([H])c(C([H])([H])N([H])C(=O)C2([H])N3C(=O)[C@](O[H])(C([H])([H])c4c([H])c([H])c([H])c([H])c4[H])C([H])([H])C([H])([H])[C@]3([H])C([H])([H])C2([H])[H])c([H])c1[H])N([H])[H]


 36 39  0  0  0  0  0  0  0  0999 V2000
   36.6993   15.2886  -12.4390 C   0  0  0  0  0  0  0  0  0  0  0  0
   35.5104   15.4456  -11.5149 C   0  0  0  0  0  0  0  0  0  0  0  0
   36.0927   14.9340  -10.2062 C   0  0  0  0  0  0  0  0  0  0  0  0
   37.4340   15.6308  -10.1915 C   0  0  0  0  0  0  0  0  0  0  0  0
   38.4536   14.8805   -9.3764 C   0  0  0  0  0  0  0  0  0  0  0  0
   39.8244   15.4504   -9.5377 C   0  0  0  0  0  0  0  0  0  0  0  0
   39.9573   16.4451  -10.6566 C   0  0  0  0  0  0  0  0  0  0  0  0
   39.4697   17.7064  -10.2747 O   0  0  0  0  0  0  0  0  0  0  0  0
   39.2155   15.9243  -11.8349 C   0  0  0  0  0  0  0  0  0  0  0  0
   39.7042   15.7451  -12.9658 O   0  0  0  0  0  0  0  0  0  0  0  0
   37.8323   15.6174  -11.6077 N   0  0  0  0  0  0  0  0  0  0  0  0
   39.6996   17.7854   -9.3013 H   0  0  0  0  0  0  0  0  0  0  0  0
   36.0016   13.4904  -14.0142 N   0  0  0  0  0  0  0  0  0  0  0  0
   36.7215   13.8370  -12.8421 C   0  0  0  0  0  0  0  0  0  0  0  0
   37.3330   12.9789  -12.1922 O   0  0  0  0  0  0  0  0  0  0  0  0
   35.4722   14.2138  -14.5802 H   0  0  0  0  0  0  0  0  0  0  0  0
   35.9272   12.1362  -14.5346 C   0  0  0  0  0  0  0  0  0  0  0  0
   38.8935   11.5783  -17.5527 C   0  0  0  0  0  0  0  0  0  0  0  0
   39.1638   12.2620  -16.4004 C   0  0  0  0  0  0  0  0  0  0  0  0
   38.2283   12.4647  -15.3916 C   0  0  0  0  0  0  0  0  0  0  0  0
   36.9727   11.9537  -15.5618 C   0  0  0  0  0  0  0  0  0  0  0  0
   36.6727   11.2630  -16.7082 C   0  0  0  0  0  0  0  0  0  0  0  0
   37.6077   11.0614  -17.7143 C   0  0  0  0  0  0  0  0  0  0  0  0
   41.1220   11.7018  -18.5191 N   0  0  0  0  0  0  0  0  0  0  0  0
   39.8868   11.3773  -18.5975 C   0  0  0  0  0  0  0  0  0  0  0  0
   39.4912   10.7655  -19.8381 N   0  0  0  0  0  0  0  0  0  0  0  0
   41.4804   12.1454  -17.6601 H   0  0  0  0  0  0  0  0  0  0  0  0
   39.1469    9.7826  -19.8608 H   0  0  0  0  0  0  0  0  0  0  0  0
   39.5565   11.3270  -20.7144 H   0  0  0  0  0  0  0  0  0  0  0  0
   41.4208   16.6397  -10.9760 C   0  0  0  0  0  0  0  0  0  0  0  0
   42.2342   15.4524  -10.7232 C   0  0  0  0  0  0  0  0  0  0  0  0
   42.7559   14.6600  -11.7268 C   0  0  0  0  0  0  0  0  0  0  0  0
   43.5211   13.5390  -11.4471 C   0  0  0  0  0  0  0  0  0  0  0  0
   43.7819   13.1849  -10.1417 C   0  0  0  0  0  0  0  0  0  0  0  0
   43.2758   13.9543   -9.1358 C   0  0  0  0  0  0  0  0  0  0  0  0
   42.5076   15.0796   -9.4246 C   0  0  0  0  0  0  0  0  0  0  0  0
 24 25  2  0  0  0
 25 26  1  0  0  0
 25 18  1  0  0  0
 18 19  2  0  0  0
 19 20  1  0  0  0
 20 21  2  0  0  0
 21 17  1  0  0  0
 17 13  1  0  0  0
 13 14  1  0  0  0
 14 15  2  0  0  0
 14  1  1  0  0  0
  1  2  1  0  0  0
  2  3  1  0  0  0
  3  4  1  0  0  0
  4  5  1  0  0  0
  5  6  1  0  0  0
  6  7  1  0  0  0
  7  8  1  0  0  0
  7 30  1  0  0  0
 30 31  1  0  0  0
 31 32  2  0  0  0
 32 33  1  0  0  0
 33 34  2  0  0  0
 34 35  1  0  0  0
 35 36  2  0  0  0
  7  9  1  0  0  0
  9 10  2  0  0  0
  9 11  1  0  0  0
 21 22  1  0  0  0
 22 23  2  0  0  0
 23 18  1  0  0  0
 11  1  1  0  0  0
 11  4  1  0  0  0
 36 31  1  0  0  0
 24 27  1  0  0  0
 26 28  1  0  0  0
 26 29  1  0  0  0
 13 16  1  0  0  0
  8 12  1  0  0  0
M  END
> <minimizedAffinity>
-8.46985

> <CNNscore>
0.2242801934

> <CNNaffinity>
6.1037406921

> <CNN_VS>
1.3689481020

> <CNNaffinity_variance>
0.1794831306

$$$$
[H]N=C(c1c([H])c([H])c(C([H])([H])N([H])C(=O)C2([H])N3C(=O)[C@](O[H])(C([H])([H])c4c([H])c([H])c([H])c([H])c4[H])C([H])([H])C([H])([H])[C@]3([H])C([H])([H])C2([H])[H])c([H])c1[H])N([H])[H]


 36 39  0  0  0  0  0  0  0  0999 V2000
   37.7515   14.7417   -8.6003 C   0  0  0  0  0  0  0  0  0  0  0  0
   38.2221   15.7490   -9.6280 C   0  0  0  0  0  0  0  0  0  0  0  0
   39.2145   16.5574   -8.8063 C   0  0  0  0  0  0  0  0  0  0  0  0
   39.9764   15.4571   -8.1038 C   0  0  0  0  0  0  0  0  0  0  0  0
   40.5811   15.9252   -6.8069 C   0  0  0  0  0  0  0  0  0  0  0  0
   41.1460   14.7924   -6.0147 C   0  0  0  0  0  0  0  0  0  0  0  0
   40.7633   13.4289   -6.5183 C   0  0  0  0  0  0  0  0  0  0  0  0
   41.5481   13.0575   -7.6232 O   0  0  0  0  0  0  0  0  0  0  0  0
   39.3206   13.4512   -6.8760 C   0  0  0  0  0  0  0  0  0  0  0  0
   38.4580   12.6793   -6.4181 O   0  0  0  0  0  0  0  0  0  0  0  0
   38.9353   14.4555   -7.8259 N   0  0  0  0  0  0  0  0  0  0  0  0
   42.4508   13.4556   -7.4410 H   0  0  0  0  0  0  0  0  0  0  0  0
   35.5252   15.8452   -8.4346 N   0  0  0  0  0  0  0  0  0  0  0  0
   36.7146   15.4519   -7.7692 C   0  0  0  0  0  0  0  0  0  0  0  0
   36.8792   15.6873   -6.5650 O   0  0  0  0  0  0  0  0  0  0  0  0
   35.3706   15.6518   -9.4655 H   0  0  0  0  0  0  0  0  0  0  0  0
   34.4315   16.5360   -7.7738 C   0  0  0  0  0  0  0  0  0  0  0  0
   31.2810   13.7583   -7.0134 C   0  0  0  0  0  0  0  0  0  0  0  0
   32.3364   13.8967   -6.1559 C   0  0  0  0  0  0  0  0  0  0  0  0
   33.3817   14.7900   -6.3643 C   0  0  0  0  0  0  0  0  0  0  0  0
   33.3520   15.5701   -7.4855 C   0  0  0  0  0  0  0  0  0  0  0  0
   32.3051   15.4530   -8.3640 C   0  0  0  0  0  0  0  0  0  0  0  0
   31.2624   14.5608   -8.1546 C   0  0  0  0  0  0  0  0  0  0  0  0
   30.2515   11.8007   -6.0018 N   0  0  0  0  0  0  0  0  0  0  0  0
   30.1964   12.8167   -6.7776 C   0  0  0  0  0  0  0  0  0  0  0  0
   28.9395   13.0058   -7.4518 N   0  0  0  0  0  0  0  0  0  0  0  0
   31.1201   11.5996   -5.4839 H   0  0  0  0  0  0  0  0  0  0  0  0
   28.3581   13.8501   -7.2665 H   0  0  0  0  0  0  0  0  0  0  0  0
   28.6229   12.2796   -8.1298 H   0  0  0  0  0  0  0  0  0  0  0  0
   41.0425   12.4065   -5.4421 C   0  0  0  0  0  0  0  0  0  0  0  0
   42.4232   11.9284   -5.4378 C   0  0  0  0  0  0  0  0  0  0  0  0
   42.8128   10.7234   -5.9887 C   0  0  0  0  0  0  0  0  0  0  0  0
   44.1329   10.3026   -5.9625 C   0  0  0  0  0  0  0  0  0  0  0  0
   45.1005   11.0892   -5.3772 C   0  0  0  0  0  0  0  0  0  0  0  0
   44.7364   12.2830   -4.8273 C   0  0  0  0  0  0  0  0  0  0  0  0
   43.4077   12.6993   -4.8574 C   0  0  0  0  0  0  0  0  0  0  0  0
 24 25  2  0  0  0
 25 26  1  0  0  0
 25 18  1  0  0  0
 18 19  2  0  0  0
 19 20  1  0  0  0
 20 21  2  0  0  0
 21 17  1  0  0  0
 17 13  1  0  0  0
 13 14  1  0  0  0
 14 15  2  0  0  0
 14  1  1  0  0  0
  1  2  1  0  0  0
  2  3  1  0  0  0
  3  4  1  0  0  0
  4  5  1  0  0  0
  5  6  1  0  0  0
  6  7  1  0  0  0
  7  8  1  0  0  0
  7 30  1  0  0  0
 30 31  1  0  0  0
 31 32  2  0  0  0
 32 33  1  0  0  0
 33 34  2  0  0  0
 34 35  1  0  0  0
 35 36  2  0  0  0
  7  9  1  0  0  0
  9 10  2  0  0  0
  9 11  1  0  0  0
 21 22  1  0  0  0
 22 23  2  0  0  0
 23 18  1  0  0  0
 11  1  1  0  0  0
 11  4  1  0  0  0
 36 31  1  0  0  0
 24 27  1  0  0  0
 26 28  1  0  0  0
 26 29  1  0  0  0
 13 16  1  0  0  0
  8 12  1  0  0  0
M  END
> <minimizedAffinity>
-6.79806

> <CNNscore>
0.1872369945

> <CNNaffinity>
4.4643597603

> <CNN_VS>
0.8358933330

> <CNNaffinity_variance>
0.6042404175

$$$$
[H]N=C(c1c([H])c([H])c(C([H])([H])N([H])C(=O)C2([H])N3C(=O)[C@](O[H])(C([H])([H])c4c([H])c([H])c([H])c([H])c4[H])C([H])([H])C([H])([H])[C@]3([H])C([H])([H])C2([H])[H])c([H])c1[H])N([H])[H]


 36 39  0  0  0  0  0  0  0  0999 V2000
   35.9542   17.0019   -7.7097 C   0  0  0  0  0  0  0  0  0  0  0  0
   36.0480   18.5127   -7.6810 C   0  0  0  0  0  0  0  0  0  0  0  0
   37.4200   18.7284   -8.3012 C   0  0  0  0  0  0  0  0  0  0  0  0
   37.3610   17.7803   -9.4770 C   0  0  0  0  0  0  0  0  0  0  0  0
   38.7299   17.3217   -9.9045 C   0  0  0  0  0  0  0  0  0  0  0  0
   38.6594   16.2273  -10.9178 C   0  0  0  0  0  0  0  0  0  0  0  0
   37.2915   15.6299  -11.0947 C   0  0  0  0  0  0  0  0  0  0  0  0
   36.4835   16.4439  -11.9066 O   0  0  0  0  0  0  0  0  0  0  0  0
   36.6827   15.4509   -9.7504 C   0  0  0  0  0  0  0  0  0  0  0  0
   36.2522   14.3742   -9.2976 O   0  0  0  0  0  0  0  0  0  0  0  0
   36.6046   16.6361   -8.9451 N   0  0  0  0  0  0  0  0  0  0  0  0
   37.1139   16.8402  -12.5790 H   0  0  0  0  0  0  0  0  0  0  0  0
   37.5826   15.3964   -6.7236 N   0  0  0  0  0  0  0  0  0  0  0  0
   36.7361   16.5158   -6.5170 C   0  0  0  0  0  0  0  0  0  0  0  0
   36.6534   17.0564   -5.4063 O   0  0  0  0  0  0  0  0  0  0  0  0
   37.6628   14.9223   -7.6684 H   0  0  0  0  0  0  0  0  0  0  0  0
   38.4014   14.8104   -5.6766 C   0  0  0  0  0  0  0  0  0  0  0  0
   41.9344   13.2197   -7.4674 C   0  0  0  0  0  0  0  0  0  0  0  0
   41.3769   12.6523   -6.3558 C   0  0  0  0  0  0  0  0  0  0  0  0
   40.2267   13.1366   -5.7425 C   0  0  0  0  0  0  0  0  0  0  0  0
   39.6223   14.2381   -6.2793 C   0  0  0  0  0  0  0  0  0  0  0  0
   40.1593   14.8286   -7.3948 C   0  0  0  0  0  0  0  0  0  0  0  0
   41.3076   14.3438   -8.0060 C   0  0  0  0  0  0  0  0  0  0  0  0
   44.1152   12.1430   -7.4799 N   0  0  0  0  0  0  0  0  0  0  0  0
   43.1397   12.6977   -8.0945 C   0  0  0  0  0  0  0  0  0  0  0  0
   43.2888   12.7916   -9.5225 N   0  0  0  0  0  0  0  0  0  0  0  0
   44.0807   12.0396   -6.4545 H   0  0  0  0  0  0  0  0  0  0  0  0
   42.6381   12.2861  -10.1598 H   0  0  0  0  0  0  0  0  0  0  0  0
   44.0622   13.3766   -9.9059 H   0  0  0  0  0  0  0  0  0  0  0  0
   37.4168   14.3090  -11.8167 C   0  0  0  0  0  0  0  0  0  0  0  0
   36.3357   14.0611  -12.7679 C   0  0  0  0  0  0  0  0  0  0  0  0
   35.0447   13.7508  -12.3882 C   0  0  0  0  0  0  0  0  0  0  0  0
   34.0461   13.5193  -13.3209 C   0  0  0  0  0  0  0  0  0  0  0  0
   34.3239   13.5944  -14.6680 C   0  0  0  0  0  0  0  0  0  0  0  0
   35.5928   13.8995  -15.0638 C   0  0  0  0  0  0  0  0  0  0  0  0
   36.5912   14.1310  -14.1208 C   0  0  0  0  0  0  0  0  0  0  0  0
 24 25  2  0  0  0
 25 26  1  0  0  0
 25 18  1  0  0  0
 18 19  2  0  0  0
 19 20  1  0  0  0
 20 21  2  0  0  0
 21 17  1  0  0  0
 17 13  1  0  0  0
 13 14  1  0  0  0
 14 15  2  0  0  0
 14  1  1  0  0  0
  1  2  1  0  0  0
  2  3  1  0  0  0
  3  4  1  0  0  0
  4  5  1  0  0  0
  5  6  1  0  0  0
  6  7  1  0  0  0
  7  8  1  0  0  0
  7 30  1  0  0  0
 30 31  1  0  0  0
 31 32  2  0  0  0
 32 33  1  0  0  0
 33 34  2  0  0  0
 34 35  1  0  0  0
 35 36  2  0  0  0
  7  9  1  0  0  0
  9 10  2  0  0  0
  9 11  1  0  0  0
 21 22  1  0  0  0
 22 23  2  0  0  0
 23 18  1  0  0  0
 11  1  1  0  0  0
 11  4  1  0  0  0
 36 31  1  0  0  0
 24 27  1  0  0  0
 26 28  1  0  0  0
 26 29  1  0  0  0
 13 16  1  0  0  0
  8 12  1  0  0  0
M  END
> <minimizedAffinity>
-6.79733

> <CNNscore>
0.1714001745

> <CNNaffinity>
5.1166677475

> <CNN_VS>
0.8769977689

> <CNNaffinity_variance>
0.3399551809

$$$$
[H]N=C(c1c([H])c([H])c(C([H])([H])N([H])C(=O)C2([H])N3C(=O)[C@](O[H])(C([H])([H])c4c([H])c([H])c([H])c([H])c4[H])C([H])([H])C([H])([H])[C@]3([H])C([H])([H])C2([H])[H])c([H])c1[H])N([H])[H]


 36 39  0  0  0  0  0  0  0  0999 V2000
   36.4553   15.5110  -12.1561 C   0  0  0  0  0  0  0  0  0  0  0  0
   35.0141   15.9540  -12.0194 C   0  0  0  0  0  0  0  0  0  0  0  0
   34.7029   15.4910  -10.6043 C   0  0  0  0  0  0  0  0  0  0  0  0
   35.9373   15.9571   -9.8668 C   0  0  0  0  0  0  0  0  0  0  0  0
   36.2028   15.1379   -8.6318 C   0  0  0  0  0  0  0  0  0  0  0  0
   37.5303   15.4565   -8.0268 C   0  0  0  0  0  0  0  0  0  0  0  0
   38.4247   16.2962   -8.8952 C   0  0  0  0  0  0  0  0  0  0  0  0
   38.0630   17.6526   -8.8344 O   0  0  0  0  0  0  0  0  0  0  0  0
   38.3360   15.7856  -10.2884 C   0  0  0  0  0  0  0  0  0  0  0  0
   39.3041   15.4140  -10.9772 O   0  0  0  0  0  0  0  0  0  0  0  0
   37.0139   15.7337  -10.8441 N   0  0  0  0  0  0  0  0  0  0  0  0
   37.7524   17.7923   -7.8906 H   0  0  0  0  0  0  0  0  0  0  0  0
   36.1271   13.7006  -13.8344 N   0  0  0  0  0  0  0  0  0  0  0  0
   36.4072   14.0416  -12.4862 C   0  0  0  0  0  0  0  0  0  0  0  0
   36.6002   13.1650  -11.6336 O   0  0  0  0  0  0  0  0  0  0  0  0
   35.9583   14.4400  -14.5751 H   0  0  0  0  0  0  0  0  0  0  0  0
   36.0482   12.3310  -14.3118 C   0  0  0  0  0  0  0  0  0  0  0  0
   39.1112   11.7329  -17.2239 C   0  0  0  0  0  0  0  0  0  0  0  0
   37.8363   11.2813  -17.4220 C   0  0  0  0  0  0  0  0  0  0  0  0
   36.8090   11.4565  -16.5013 C   0  0  0  0  0  0  0  0  0  0  0  0
   37.0890   12.1145  -15.3371 C   0  0  0  0  0  0  0  0  0  0  0  0
   38.3596   12.5790  -15.1110 C   0  0  0  0  0  0  0  0  0  0  0  0
   39.3842   12.4034  -16.0311 C   0  0  0  0  0  0  0  0  0  0  0  0
   40.0262   11.0309  -19.3651 N   0  0  0  0  0  0  0  0  0  0  0  0
   40.1732   11.5390  -18.2001 C   0  0  0  0  0  0  0  0  0  0  0  0
   41.5156   11.9380  -17.8702 N   0  0  0  0  0  0  0  0  0  0  0  0
   39.0924   10.7208  -19.6735 H   0  0  0  0  0  0  0  0  0  0  0  0
   41.7454   12.9389  -17.6953 H   0  0  0  0  0  0  0  0  0  0  0  0
   42.2537   11.2039  -17.8099 H   0  0  0  0  0  0  0  0  0  0  0  0
   39.8402   16.2152   -8.3739 C   0  0  0  0  0  0  0  0  0  0  0  0
   40.0618   15.0934   -7.4643 C   0  0  0  0  0  0  0  0  0  0  0  0
   39.8658   15.1704   -6.0995 C   0  0  0  0  0  0  0  0  0  0  0  0
   40.0898   14.0844   -5.2682 C   0  0  0  0  0  0  0  0  0  0  0  0
   40.5198   12.8857   -5.7933 C   0  0  0  0  0  0  0  0  0  0  0  0
   40.7195   12.7888   -7.1389 C   0  0  0  0  0  0  0  0  0  0  0  0
   40.4922   13.8845   -7.9681 C   0  0  0  0  0  0  0  0  0  0  0  0
 24 25  2  0  0  0
 25 26  1  0  0  0
 25 18  1  0  0  0
 18 19  2  0  0  0
 19 20  1  0  0  0
 20 21  2  0  0  0
 21 17  1  0  0  0
 17 13  1  0  0  0
 13 14  1  0  0  0
 14 15  2  0  0  0
 14  1  1  0  0  0
  1  2  1  0  0  0
  2  3  1  0  0  0
  3  4  1  0  0  0
  4  5  1  0  0  0
  5  6  1  0  0  0
  6  7  1  0  0  0
  7  8  1  0  0  0
  7 30  1  0  0  0
 30 31  1  0  0  0
 31 32  2  0  0  0
 32 33  1  0  0  0
 33 34  2  0  0  0
 34 35  1  0  0  0
 35 36  2  0  0  0
  7  9  1  0  0  0
  9 10  2  0  0  0
  9 11  1  0  0  0
 21 22  1  0  0  0
 22 23  2  0  0  0
 23 18  1  0  0  0
 11  1  1  0  0  0
 11  4  1  0  0  0
 36 31  1  0  0  0
 24 27  1  0  0  0
 26 28  1  0  0  0
 26 29  1  0  0  0
 13 16  1  0  0  0
  8 12  1  0  0  0
M  END
> <minimizedAffinity>
-8.16650

> <CNNscore>
0.1620889306

> <CNNaffinity>
5.7329068184

> <CNN_VS>
0.9292407632

> <CNNaffinity_variance>
0.0512766950

$$$$
[H]N=C(c1c([H])c([H])c(C([H])([H])N([H])C(=O)C2([H])N3C(=O)[C@](O[H])(C([H])([H])c4c([H])c([H])c([H])c([H])c4[H])C([H])([H])C([H])([H])[C@]3([H])C([H])([H])C2([H])[H])c([H])c1[H])N([H])[H]


 36 39  0  0  0  0  0  0  0  0999 V2000
   35.1495   16.3835   -7.2687 C   0  0  0  0  0  0  0  0  0  0  0  0
   34.5348   17.7153   -6.8935 C   0  0  0  0  0  0  0  0  0  0  0  0
   35.7189   18.6477   -7.0992 C   0  0  0  0  0  0  0  0  0  0  0  0
   36.2461   18.1607   -8.4295 C   0  0  0  0  0  0  0  0  0  0  0  0
   37.7134   18.4526   -8.5989 C   0  0  0  0  0  0  0  0  0  0  0  0
   38.2778   17.7858   -9.8099 C   0  0  0  0  0  0  0  0  0  0  0  0
   37.3701   16.7663  -10.4391 C   0  0  0  0  0  0  0  0  0  0  0  0
   36.3847   17.3829  -11.2286 O   0  0  0  0  0  0  0  0  0  0  0  0
   36.7522   15.9587   -9.3547 C   0  0  0  0  0  0  0  0  0  0  0  0
   36.8124   14.7187   -9.2632 O   0  0  0  0  0  0  0  0  0  0  0  0
   36.0408   16.7057   -8.3572 N   0  0  0  0  0  0  0  0  0  0  0  0
   36.8397   18.1841  -11.6256 H   0  0  0  0  0  0  0  0  0  0  0  0
   37.1748   15.3159   -6.2889 N   0  0  0  0  0  0  0  0  0  0  0  0
   35.9148   15.9241   -6.0548 C   0  0  0  0  0  0  0  0  0  0  0  0
   35.4779   16.0639   -4.9049 O   0  0  0  0  0  0  0  0  0  0  0  0
   37.5613   15.1882   -7.2677 H   0  0  0  0  0  0  0  0  0  0  0  0
   38.0331   14.8225   -5.2259 C   0  0  0  0  0  0  0  0  0  0  0  0
   41.5620   13.1771   -6.9750 C   0  0  0  0  0  0  0  0  0  0  0  0
   41.5955   14.3336   -6.2471 C   0  0  0  0  0  0  0  0  0  0  0  0
   40.4710   14.9024   -5.6590 C   0  0  0  0  0  0  0  0  0  0  0  0
   39.2693   14.2719   -5.8175 C   0  0  0  0  0  0  0  0  0  0  0  0
   39.2053   13.1095   -6.5428 C   0  0  0  0  0  0  0  0  0  0  0  0
   40.3288   12.5429   -7.1293 C   0  0  0  0  0  0  0  0  0  0  0  0
   43.6450   11.9218   -6.9670 N   0  0  0  0  0  0  0  0  0  0  0  0
   42.7506   12.5979   -7.5834 C   0  0  0  0  0  0  0  0  0  0  0  0
   42.9788   12.7749   -8.9929 N   0  0  0  0  0  0  0  0  0  0  0  0
   43.5505   11.7528   -5.9542 H   0  0  0  0  0  0  0  0  0  0  0  0
   42.3219   12.3709   -9.6932 H   0  0  0  0  0  0  0  0  0  0  0  0
   43.8159   13.3163   -9.2986 H   0  0  0  0  0  0  0  0  0  0  0  0
   38.1751   15.8964  -11.3756 C   0  0  0  0  0  0  0  0  0  0  0  0
   39.6147   15.9570  -11.1328 C   0  0  0  0  0  0  0  0  0  0  0  0
   40.1833   15.7926   -9.8850 C   0  0  0  0  0  0  0  0  0  0  0  0
   41.5542   15.8599   -9.6939 C   0  0  0  0  0  0  0  0  0  0  0  0
   42.3928   16.0962  -10.7609 C   0  0  0  0  0  0  0  0  0  0  0  0
   41.8512   16.2614  -12.0016 C   0  0  0  0  0  0  0  0  0  0  0  0
   40.4724   16.1924  -12.1860 C   0  0  0  0  0  0  0  0  0  0  0  0
 24 25  2  0  0  0
 25 26  1  0  0  0
 25 18  1  0  0  0
 18 19  2  0  0  0
 19 20  1  0  0  0
 20 21  2  0  0  0
 21 17  1  0  0  0
 17 13  1  0  0  0
 13 14  1  0  0  0
 14 15  2  0  0  0
 14  1  1  0  0  0
  1  2  1  0  0  0
  2  3  1  0  0  0
  3  4  1  0  0  0
  4  5  1  0  0  0
  5  6  1  0  0  0
  6  7  1  0  0  0
  7  8  1  0  0  0
  7 30  1  0  0  0
 30 31  1  0  0  0
 31 32  2  0  0  0
 32 33  1  0  0  0
 33 34  2  0  0  0
 34 35  1  0  0  0
 35 36  2  0  0  0
  7  9  1  0  0  0
  9 10  2  0  0  0
  9 11  1  0  0  0
 21 22  1  0  0  0
 22 23  2  0  0  0
 23 18  1  0  0  0
 11  1  1  0  0  0
 11  4  1  0  0  0
 36 31  1  0  0  0
 24 27  1  0  0  0
 26 28  1  0  0  0
 26 29  1  0  0  0
 13 16  1  0  0  0
  8 12  1  0  0  0
M  END
> <minimizedAffinity>
-6.51385

> <CNNscore>
0.1592278183

> <CNNaffinity>
4.8013935089

> <CNN_VS>
0.7645153999

> <CNNaffinity_variance>
0.4623933434

$$$$
[H]N=C(c1c([H])c([H])c(C([H])([H])N([H])C(=O)C2([H])N3C(=O)[C@](O[H])(C([H])([H])c4c([H])c([H])c([H])c([H])c4[H])C([H])([H])C([H])([H])[C@]3([H])C([H])([H])C2([H])[H])c([H])c1[H])N([H])[H]


 36 39  0  0  0  0  0  0  0  0999 V2000
   37.6953   15.6211  -10.1932 C   0  0  0  0  0  0  0  0  0  0  0  0
   38.7089   16.7270  -10.3981 C   0  0  0  0  0  0  0  0  0  0  0  0
   38.0634   17.8590   -9.6137 C   0  0  0  0  0  0  0  0  0  0  0  0
   37.6514   17.1401   -8.3495 C   0  0  0  0  0  0  0  0  0  0  0  0
   36.4878   17.8111   -7.6693 C   0  0  0  0  0  0  0  0  0  0  0  0
   35.9473   16.9867   -6.5477 C   0  0  0  0  0  0  0  0  0  0  0  0
   36.4710   15.5786   -6.5015 C   0  0  0  0  0  0  0  0  0  0  0  0
   37.7528   15.5325   -5.9277 O   0  0  0  0  0  0  0  0  0  0  0  0
   36.4909   15.0422   -7.8878 C   0  0  0  0  0  0  0  0  0  0  0  0
   35.9208   13.9999   -8.2598 O   0  0  0  0  0  0  0  0  0  0  0  0
   37.2363   15.8162   -8.8389 N   0  0  0  0  0  0  0  0  0  0  0  0
   37.7440   16.2483   -5.2247 H   0  0  0  0  0  0  0  0  0  0  0  0
   35.6526   14.8370  -11.3822 N   0  0  0  0  0  0  0  0  0  0  0  0
   36.5921   15.8815  -11.1858 C   0  0  0  0  0  0  0  0  0  0  0  0
   36.4983   16.9486  -11.8063 O   0  0  0  0  0  0  0  0  0  0  0  0
   35.7207   13.9174  -10.8592 H   0  0  0  0  0  0  0  0  0  0  0  0
   34.5321   14.9333  -12.3017 C   0  0  0  0  0  0  0  0  0  0  0  0
   35.1407   12.1214  -15.4549 C   0  0  0  0  0  0  0  0  0  0  0  0
   33.9299   12.2502  -14.8337 C   0  0  0  0  0  0  0  0  0  0  0  0
   33.6883   13.1539  -13.8048 C   0  0  0  0  0  0  0  0  0  0  0  0
   34.7155   13.9552  -13.3931 C   0  0  0  0  0  0  0  0  0  0  0  0
   35.9417   13.8481  -13.9983 C   0  0  0  0  0  0  0  0  0  0  0  0
   36.1815   12.9455  -15.0254 C   0  0  0  0  0  0  0  0  0  0  0  0
   36.4278   11.1090  -17.2531 N   0  0  0  0  0  0  0  0  0  0  0  0
   35.3738   11.1686  -16.5302 C   0  0  0  0  0  0  0  0  0  0  0  0
   34.3619   10.1940  -16.8403 N   0  0  0  0  0  0  0  0  0  0  0  0
   37.1977   11.7753  -17.0902 H   0  0  0  0  0  0  0  0  0  0  0  0
   34.0907    9.4684  -16.1438 H   0  0  0  0  0  0  0  0  0  0  0  0
   33.9056   10.2294  -17.7773 H   0  0  0  0  0  0  0  0  0  0  0  0
   35.5807   14.7475   -5.6081 C   0  0  0  0  0  0  0  0  0  0  0  0
   34.2119   15.2513   -5.5198 C   0  0  0  0  0  0  0  0  0  0  0  0
   33.2110   14.8926   -6.4011 C   0  0  0  0  0  0  0  0  0  0  0  0
   31.9243   15.3944   -6.2865 C   0  0  0  0  0  0  0  0  0  0  0  0
   31.6107   16.2757   -5.2753 C   0  0  0  0  0  0  0  0  0  0  0  0
   32.5850   16.6426   -4.3944 C   0  0  0  0  0  0  0  0  0  0  0  0
   33.8759   16.1342   -4.5159 C   0  0  0  0  0  0  0  0  0  0  0  0
 24 25  2  0  0  0
 25 26  1  0  0  0
 25 18  1  0  0  0
 18 19  2  0  0  0
 19 20  1  0  0  0
 20 21  2  0  0  0
 21 17  1  0  0  0
 17 13  1  0  0  0
 13 14  1  0  0  0
 14 15  2  0  0  0
 14  1  1  0  0  0
  1  2  1  0  0  0
  2  3  1  0  0  0
  3  4  1  0  0  0
  4  5  1  0  0  0
  5  6  1  0  0  0
  6  7  1  0  0  0
  7  8  1  0  0  0
  7 30  1  0  0  0
 30 31  1  0  0  0
 31 32  2  0  0  0
 32 33  1  0  0  0
 33 34  2  0  0  0
 34 35  1  0  0  0
 35 36  2  0  0  0
  7  9  1  0  0  0
  9 10  2  0  0  0
  9 11  1  0  0  0
 21 22  1  0  0  0
 22 23  2  0  0  0
 23 18  1  0  0  0
 11  1  1  0  0  0
 11  4  1  0  0  0
 36 31  1  0  0  0
 24 27  1  0  0  0
 26 28  1  0  0  0
 26 29  1  0  0  0
 13 16  1  0  0  0
  8 12  1  0  0  0
M  END
> <minimizedAffinity>
-7.74948

> <CNNscore>
0.1577393711

> <CNNaffinity>
5.5360803604

> <CNN_VS>
0.8732578158

> <CNNaffinity_variance>
0.3813479543

$$$$
[H]c1c(OC([H])([H])[H])c(C([H])([H])N(C([H])([H])[H])C([H])([H])[H])c([H])c(OC([H])([H])[H])c1-c1c([H])n(C([H])([H])[H])c(=O)c2c([H])c([H])c([H])c([H])c12


 26 28  0  0  0  0  0  0  0  0999 V2000
   35.8545   14.3700  -13.2858 C   0  0  0  0  0  0  0  0  0  0  0  0
   36.7632   13.7697  -14.1911 C   0  0  0  0  0  0  0  0  0  0  0  0
   38.2130   14.0173  -14.1212 C   0  0  0  0  0  0  0  0  0  0  0  0
   38.6523   14.8375  -13.1979 C   0  0  0  0  0  0  0  0  0  0  0  0
   37.7810   15.5115  -12.3043 C   0  0  0  0  0  0  0  0  0  0  0  0
   36.5036   15.2579  -12.3902 C   0  0  0  0  0  0  0  0  0  0  0  0
   38.9164   12.9883  -14.8897 C   0  0  0  0  0  0  0  0  0  0  0  0
   40.3406   13.1448  -15.1000 C   0  0  0  0  0  0  0  0  0  0  0  0
   40.9846   12.5767  -16.1781 N   0  0  0  0  0  0  0  0  0  0  0  0
   42.3464   12.7203  -16.4929 C   0  0  0  0  0  0  0  0  0  0  0  0
   40.1134   11.9296  -16.8988 C   0  0  0  0  0  0  0  0  0  0  0  0
   40.8529   11.3729  -17.9862 O   0  0  0  0  0  0  0  0  0  0  0  0
   38.8989   11.6331  -16.9873 C   0  0  0  0  0  0  0  0  0  0  0  0
   38.2464   10.8705  -17.9757 C   0  0  0  0  0  0  0  0  0  0  0  0
   36.7889   10.7911  -17.6014 C   0  0  0  0  0  0  0  0  0  0  0  0
   36.2596   11.2653  -16.6769 C   0  0  0  0  0  0  0  0  0  0  0  0
   36.8869   12.0630  -15.6450 C   0  0  0  0  0  0  0  0  0  0  0  0
   38.1736   12.2258  -15.8267 C   0  0  0  0  0  0  0  0  0  0  0  0
   33.3298   14.0166  -13.0772 C   0  0  0  0  0  0  0  0  0  0  0  0
   34.5821   14.2120  -13.1334 O   0  0  0  0  0  0  0  0  0  0  0  0
   40.0357   15.0917  -12.9993 O   0  0  0  0  0  0  0  0  0  0  0  0
   40.1892   16.0433  -11.9416 C   0  0  0  0  0  0  0  0  0  0  0  0
   35.5182   15.8280  -11.4177 C   0  0  0  0  0  0  0  0  0  0  0  0
   35.3251   15.3922  -10.1405 N   0  0  0  0  0  0  0  0  0  0  0  0
   34.0520   15.8609   -9.6359 C   0  0  0  0  0  0  0  0  0  0  0  0
   36.1321   14.8530   -9.1960 C   0  0  0  0  0  0  0  0  0  0  0  0
 19 20  1  0  0  0
 20  1  1  0  0  0
  1  2  2  0  0  0
  2  3  1  0  0  0
  3  7  1  0  0  0
  7  8  2  0  0  0
  8  9  1  0  0  0
  9 10  1  0  0  0
  9 11  1  0  0  0
 11 12  2  0  0  0
 11 13  1  0  0  0
 13 14  2  0  0  0
 14 15  1  0  0  0
 15 16  2  0  0  0
 16 17  1  0  0  0
 17 18  2  0  0  0
  3  4  2  0  0  0
  4 21  1  0  0  0
 21 22  1  0  0  0
  4  5  1  0  0  0
  5  6  2  0  0  0
  6 23  1  0  0  0
 23 24  1  0  0  0
 24 25  1  0  0  0
 24 26  1  0  0  0
  6  1  1  0  0  0
 18  7  1  0  0  0
 18 13  1  0  0  0
M  END
> <minimizedAffinity>
-8.65549

> <CNNscore>
0.7314265966

> <CNNaffinity>
6.5508565903

> <CNN_VS>
4.7914705276

> <CNNaffinity_variance>
0.2261971682

$$$$
[H]c1c(OC([H])([H])[H])c(C([H])([H])N(C([H])([H])[H])C([H])([H])[H])c([H])c(OC([H])([H])[H])c1-c1c([H])n(C([H])([H])[H])c(=O)c2c([H])c([H])c([H])c([H])c12


 26 28  0  0  0  0  0  0  0  0999 V2000
   41.7471   13.5547  -14.3009 C   0  0  0  0  0  0  0  0  0  0  0  0
   40.3402   13.3926  -14.2956 C   0  0  0  0  0  0  0  0  0  0  0  0
   39.5898   13.0451  -15.5139 C   0  0  0  0  0  0  0  0  0  0  0  0
   40.2621   12.9061  -16.6307 C   0  0  0  0  0  0  0  0  0  0  0  0
   41.6630   13.1152  -16.7046 C   0  0  0  0  0  0  0  0  0  0  0  0
   42.2946   13.4114  -15.6015 C   0  0  0  0  0  0  0  0  0  0  0  0
   38.2591   12.5619  -15.1403 C   0  0  0  0  0  0  0  0  0  0  0  0
   37.6066   11.6090  -16.0141 C   0  0  0  0  0  0  0  0  0  0  0  0
   36.2346   11.4871  -16.0640 N   0  0  0  0  0  0  0  0  0  0  0  0
   35.5143   10.6341  -16.9172 C   0  0  0  0  0  0  0  0  0  0  0  0
   35.7034   12.3372  -15.2320 C   0  0  0  0  0  0  0  0  0  0  0  0
   34.2921   12.1493  -15.3404 O   0  0  0  0  0  0  0  0  0  0  0  0
   35.9710   13.2377  -14.4022 C   0  0  0  0  0  0  0  0  0  0  0  0
   35.0873   14.0198  -13.6331 C   0  0  0  0  0  0  0  0  0  0  0  0
   35.9200   14.9375  -12.7756 C   0  0  0  0  0  0  0  0  0  0  0  0
   37.0823   15.0198  -12.7329 C   0  0  0  0  0  0  0  0  0  0  0  0
   38.0262   14.2459  -13.5108 C   0  0  0  0  0  0  0  0  0  0  0  0
   37.4524   13.3877  -14.3167 C   0  0  0  0  0  0  0  0  0  0  0  0
   43.3213   13.9524  -12.3245 C   0  0  0  0  0  0  0  0  0  0  0  0
   42.5786   13.7686  -13.3365 O   0  0  0  0  0  0  0  0  0  0  0  0
   39.6464   12.5050  -17.8464 O   0  0  0  0  0  0  0  0  0  0  0  0
   40.3809   11.4106  -18.4037 C   0  0  0  0  0  0  0  0  0  0  0  0
   43.7859   13.5355  -15.5545 C   0  0  0  0  0  0  0  0  0  0  0  0
   44.6720   12.5727  -15.9371 N   0  0  0  0  0  0  0  0  0  0  0  0
   45.8930   12.6778  -15.1668 C   0  0  0  0  0  0  0  0  0  0  0  0
   44.7560   11.7371  -16.9994 C   0  0  0  0  0  0  0  0  0  0  0  0
 19 20  1  0  0  0
 20  1  1  0  0  0
  1  2  2  0  0  0
  2  3  1  0  0  0
  3  7  1  0  0  0
  7  8  2  0  0  0
  8  9  1  0  0  0
  9 10  1  0  0  0
  9 11  1  0  0  0
 11 12  2  0  0  0
 11 13  1  0  0  0
 13 14  2  0  0  0
 14 15  1  0  0  0
 15 16  2  0  0  0
 16 17  1  0  0  0
 17 18  2  0  0  0
  3  4  2  0  0  0
  4 21  1  0  0  0
 21 22  1  0  0  0
  4  5  1  0  0  0
  5  6  2  0  0  0
  6 23  1  0  0  0
 23 24  1  0  0  0
 24 25  1  0  0  0
 24 26  1  0  0  0
  6  1  1  0  0  0
 18  7  1  0  0  0
 18 13  1  0  0  0
M  END
> <minimizedAffinity>
-7.99669

> <CNNscore>
0.5660494566

> <CNNaffinity>
6.4850311279

> <CNN_VS>
3.6708483696

> <CNNaffinity_variance>
0.0880711451

$$$$
[H]c1c(OC([H])([H])[H])c(C([H])([H])N(C([H])([H])[H])C([H])([H])[H])c([H])c(OC([H])([H])[H])c1-c1c([H])n(C([H])([H])[H])c(=O)c2c([H])c([H])c([H])c([H])c12


 26 28  0  0  0  0  0  0  0  0999 V2000
   42.8508   12.8649  -15.6653 C   0  0  0  0  0  0  0  0  0  0  0  0
   41.4796   12.5335  -15.7907 C   0  0  0  0  0  0  0  0  0  0  0  0
   40.4409   13.1874  -14.9773 C   0  0  0  0  0  0  0  0  0  0  0  0
   40.8213   14.0863  -14.1023 C   0  0  0  0  0  0  0  0  0  0  0  0
   42.1857   14.4133  -13.8938 C   0  0  0  0  0  0  0  0  0  0  0  0
   43.0761   13.8203  -14.6414 C   0  0  0  0  0  0  0  0  0  0  0  0
   39.1302   12.9488  -15.5849 C   0  0  0  0  0  0  0  0  0  0  0  0
   37.9646   12.9632  -14.7256 C   0  0  0  0  0  0  0  0  0  0  0  0
   36.8149   12.2738  -15.0458 N   0  0  0  0  0  0  0  0  0  0  0  0
   35.6599   12.1843  -14.2506 C   0  0  0  0  0  0  0  0  0  0  0  0
   36.9902   11.6634  -16.1833 C   0  0  0  0  0  0  0  0  0  0  0  0
   35.7644   10.9789  -16.4442 O   0  0  0  0  0  0  0  0  0  0  0  0
   37.8197   11.4577  -17.1001 C   0  0  0  0  0  0  0  0  0  0  0  0
   37.6731   10.6783  -18.2643 C   0  0  0  0  0  0  0  0  0  0  0  0
   38.9562   10.7838  -19.0474 C   0  0  0  0  0  0  0  0  0  0  0  0
   39.9173   11.3836  -18.7711 C   0  0  0  0  0  0  0  0  0  0  0  0
   40.1152   12.1869  -17.5835 C   0  0  0  0  0  0  0  0  0  0  0  0
   39.0748   12.2004  -16.7881 C   0  0  0  0  0  0  0  0  0  0  0  0
   44.8305   12.0372  -17.0575 C   0  0  0  0  0  0  0  0  0  0  0  0
   43.8816   12.4732  -16.3370 O   0  0  0  0  0  0  0  0  0  0  0  0
   39.8965   14.8254  -13.3172 O   0  0  0  0  0  0  0  0  0  0  0  0
   40.6053   15.8220  -12.5742 C   0  0  0  0  0  0  0  0  0  0  0  0
   44.5275   14.1826  -14.5785 C   0  0  0  0  0  0  0  0  0  0  0  0
   45.3805   13.8576  -13.5660 N   0  0  0  0  0  0  0  0  0  0  0  0
   46.4445   14.8344  -13.4714 C   0  0  0  0  0  0  0  0  0  0  0  0
   45.5835   12.7422  -12.8255 C   0  0  0  0  0  0  0  0  0  0  0  0
 19 20  1  0  0  0
 20  1  1  0  0  0
  1  2  2  0  0  0
  2  3  1  0  0  0
  3  7  1  0  0  0
  7  8  2  0  0  0
  8  9  1  0  0  0
  9 10  1  0  0  0
  9 11  1  0  0  0
 11 12  2  0  0  0
 11 13  1  0  0  0
 13 14  2  0  0  0
 14 15  1  0  0  0
 15 16  2  0  0  0
 16 17  1  0  0  0
 17 18  2  0  0  0
  3  4  2  0  0  0
  4 21  1  0  0  0
 21 22  1  0  0  0
  4  5  1  0  0  0
  5  6  2  0  0  0
  6 23  1  0  0  0
 23 24  1  0  0  0
 24 25  1  0  0  0
 24 26  1  0  0  0
  6  1  1  0  0  0
 18  7  1  0  0  0
 18 13  1  0  0  0
M  END
> <minimizedAffinity>
-8.16407

> <CNNscore>
0.5120671391

> <CNNaffinity>
6.0591278076

> <CNN_VS>
3.1026802063

> <CNNaffinity_variance>
0.1472040862

$$$$
[H]c1c(OC([H])([H])[H])c(C([H])([H])N(C([H])([H])[H])C([H])([H])[H])c([H])c(OC([H])([H])[H])c1-c1c([H])n(C([H])([H])[H])c(=O)c2c([H])c([H])c([H])c([H])c12


 26 28  0  0  0  0  0  0  0  0999 V2000
   37.5327   14.7590  -11.2131 C   0  0  0  0  0  0  0  0  0  0  0  0
   37.8817   13.7774  -12.1724 C   0  0  0  0  0  0  0  0  0  0  0  0
   37.1730   13.6547  -13.4572 C   0  0  0  0  0  0  0  0  0  0  0  0
   36.1786   14.4762  -13.6911 C   0  0  0  0  0  0  0  0  0  0  0  0
   35.7490   15.4381  -12.7413 C   0  0  0  0  0  0  0  0  0  0  0  0
   36.4090   15.5237  -11.6185 C   0  0  0  0  0  0  0  0  0  0  0  0
   37.9807   12.8546  -14.3800 C   0  0  0  0  0  0  0  0  0  0  0  0
   39.3417   13.2757  -14.6400 C   0  0  0  0  0  0  0  0  0  0  0  0
   39.9937   12.9513  -15.8102 N   0  0  0  0  0  0  0  0  0  0  0  0
   41.2881   13.3608  -16.1724 C   0  0  0  0  0  0  0  0  0  0  0  0
   39.1927   12.2496  -16.5606 C   0  0  0  0  0  0  0  0  0  0  0  0
   39.9360   11.9539  -17.7434 O   0  0  0  0  0  0  0  0  0  0  0  0
   38.0402   11.7611  -16.6244 C   0  0  0  0  0  0  0  0  0  0  0  0
   37.4548   11.0140  -17.6652 C   0  0  0  0  0  0  0  0  0  0  0  0
   36.0598   10.6442  -17.2315 C   0  0  0  0  0  0  0  0  0  0  0  0
   35.5254   10.9136  -16.2307 C   0  0  0  0  0  0  0  0  0  0  0  0
   36.0834   11.6859  -15.1412 C   0  0  0  0  0  0  0  0  0  0  0  0
   37.3100   12.0864  -15.3653 C   0  0  0  0  0  0  0  0  0  0  0  0
   38.6832   15.3095   -8.9959 C   0  0  0  0  0  0  0  0  0  0  0  0
   38.0804   15.0757  -10.0875 O   0  0  0  0  0  0  0  0  0  0  0  0
   35.4741   14.4890  -14.9245 O   0  0  0  0  0  0  0  0  0  0  0  0
   34.0990   14.1766  -14.6810 C   0  0  0  0  0  0  0  0  0  0  0  0
   36.1074   16.5829  -10.6042 C   0  0  0  0  0  0  0  0  0  0  0  0
   35.1257   16.5175   -9.6605 N   0  0  0  0  0  0  0  0  0  0  0  0
   35.5596   17.1591   -8.4377 C   0  0  0  0  0  0  0  0  0  0  0  0
   33.9836   15.8006   -9.5362 C   0  0  0  0  0  0  0  0  0  0  0  0
 19 20  1  0  0  0
 20  1  1  0  0  0
  1  2  2  0  0  0
  2  3  1  0  0  0
  3  7  1  0  0  0
  7  8  2  0  0  0
  8  9  1  0  0  0
  9 10  1  0  0  0
  9 11  1  0  0  0
 11 12  2  0  0  0
 11 13  1  0  0  0
 13 14  2  0  0  0
 14 15  1  0  0  0
 15 16  2  0  0  0
 16 17  1  0  0  0
 17 18  2  0  0  0
  3  4  2  0  0  0
  4 21  1  0  0  0
 21 22  1  0  0  0
  4  5  1  0  0  0
  5  6  2  0  0  0
  6 23  1  0  0  0
 23 24  1  0  0  0
 24 25  1  0  0  0
 24 26  1  0  0  0
  6  1  1  0  0  0
 18  7  1  0  0  0
 18 13  1  0  0  0
M  END
> <minimizedAffinity>
-7.20206

> <CNNscore>
0.4736499488

> <CNNaffinity>
6.2903490067

> <CNN_VS>
2.9794235229

> <CNNaffinity_variance>
0.3100015521

$$$$
[H]c1c(OC([H])([H])[H])c(C([H])([H])N(C([H])([H])[H])C([H])([H])[H])c([H])c(OC([H])([H])[H])c1-c1c([H])n(C([H])([H])[H])c(=O)c2c([H])c([H])c([H])c([H])c12


 26 28  0  0  0  0  0  0  0  0999 V2000
   40.1004   15.1173  -13.0693 C   0  0  0  0  0  0  0  0  0  0  0  0
   39.6429   14.2752  -14.1121 C   0  0  0  0  0  0  0  0  0  0  0  0
   40.5673   13.4702  -14.9279 C   0  0  0  0  0  0  0  0  0  0  0  0
   41.8504   13.5665  -14.6776 C   0  0  0  0  0  0  0  0  0  0  0  0
   42.3671   14.4386  -13.6854 C   0  0  0  0  0  0  0  0  0  0  0  0
   41.5157   15.1277  -12.9758 C   0  0  0  0  0  0  0  0  0  0  0  0
   39.8121   12.4299  -15.6289 C   0  0  0  0  0  0  0  0  0  0  0  0
   40.2564   12.0335  -16.9490 C   0  0  0  0  0  0  0  0  0  0  0  0
   39.3925   11.4919  -17.8764 N   0  0  0  0  0  0  0  0  0  0  0  0
   39.7197   11.1313  -19.1944 C   0  0  0  0  0  0  0  0  0  0  0  0
   38.2009   11.4219  -17.3546 C   0  0  0  0  0  0  0  0  0  0  0  0
   37.3710   10.8537  -18.3683 O   0  0  0  0  0  0  0  0  0  0  0  0
   37.5359   11.6711  -16.3218 C   0  0  0  0  0  0  0  0  0  0  0  0
   36.1626   11.4655  -16.0855 C   0  0  0  0  0  0  0  0  0  0  0  0
   35.8717   11.9097  -14.6752 C   0  0  0  0  0  0  0  0  0  0  0  0
   36.6167   12.3533  -13.8954 C   0  0  0  0  0  0  0  0  0  0  0  0
   38.0299   12.5913  -14.0983 C   0  0  0  0  0  0  0  0  0  0  0  0
   38.4463   12.2504  -15.2923 C   0  0  0  0  0  0  0  0  0  0  0  0
   38.7367   16.4469  -11.3621 C   0  0  0  0  0  0  0  0  0  0  0  0
   39.4517   15.8207  -12.2024 O   0  0  0  0  0  0  0  0  0  0  0  0
   42.8209   12.7831  -15.3576 O   0  0  0  0  0  0  0  0  0  0  0  0
   44.0260   13.5432  -15.4904 C   0  0  0  0  0  0  0  0  0  0  0  0
   41.9547   15.9850  -11.8294 C   0  0  0  0  0  0  0  0  0  0  0  0
   42.6069   15.5439  -10.7165 N   0  0  0  0  0  0  0  0  0  0  0  0
   41.8624   15.8935   -9.5254 C   0  0  0  0  0  0  0  0  0  0  0  0
   43.8605   15.0924  -10.4750 C   0  0  0  0  0  0  0  0  0  0  0  0
 19 20  1  0  0  0
 20  1  1  0  0  0
  1  2  2  0  0  0
  2  3  1  0  0  0
  3  7  1  0  0  0
  7  8  2  0  0  0
  8  9  1  0  0  0
  9 10  1  0  0  0
  9 11  1  0  0  0
 11 12  2  0  0  0
 11 13  1  0  0  0
 13 14  2  0  0  0
 14 15  1  0  0  0
 15 16  2  0  0  0
 16 17  1  0  0  0
 17 18  2  0  0  0
  3  4  2  0  0  0
  4 21  1  0  0  0
 21 22  1  0  0  0
  4  5  1  0  0  0
  5  6  2  0  0  0
  6 23  1  0  0  0
 23 24  1  0  0  0
 24 25  1  0  0  0
 24 26  1  0  0  0
  6  1  1  0  0  0
 18  7  1  0  0  0
 18 13  1  0  0  0
M  END
> <minimizedAffinity>
-7.72033

> <CNNscore>
0.4509413242

> <CNNaffinity>
6.0653238297

> <CNN_VS>
2.7351052761

> <CNNaffinity_variance>
0.0834101886

$$$$
[H]c1c(OC([H])([H])[H])c(C([H])([H])N(C([H])([H])[H])C([H])([H])[H])c([H])c(OC([H])([H])[H])c1-c1c([H])n(C([H])([H])[H])c(=O)c2c([H])c([H])c([H])c([H])c12


 26 28  0  0  0  0  0  0  0  0999 V2000
   39.8388   12.2957  -16.5862 C   0  0  0  0  0  0  0  0  0  0  0  0
   38.5548   12.4528  -16.0096 C   0  0  0  0  0  0  0  0  0  0  0  0
   38.3365   13.2615  -14.7987 C   0  0  0  0  0  0  0  0  0  0  0  0
   39.3794   13.8280  -14.2421 C   0  0  0  0  0  0  0  0  0  0  0  0
   40.6951   13.6551  -14.7431 C   0  0  0  0  0  0  0  0  0  0  0  0
   40.8469   12.9400  -15.8244 C   0  0  0  0  0  0  0  0  0  0  0  0
   36.9100   13.5663  -14.6721 C   0  0  0  0  0  0  0  0  0  0  0  0
   36.4868   14.4222  -13.5832 C   0  0  0  0  0  0  0  0  0  0  0  0
   35.2122   14.3621  -13.0623 N   0  0  0  0  0  0  0  0  0  0  0  0
   34.7311   15.1102  -11.9746 C   0  0  0  0  0  0  0  0  0  0  0  0
   34.5354   13.4520  -13.7032 C   0  0  0  0  0  0  0  0  0  0  0  0
   33.2361   13.4519  -13.1108 O   0  0  0  0  0  0  0  0  0  0  0  0
   34.6089   12.5971  -14.6169 C   0  0  0  0  0  0  0  0  0  0  0  0
   33.6175   11.7077  -15.0751 C   0  0  0  0  0  0  0  0  0  0  0  0
   34.2095   10.9103  -16.2084 C   0  0  0  0  0  0  0  0  0  0  0  0
   35.2867   10.9821  -16.6491 C   0  0  0  0  0  0  0  0  0  0  0  0
   36.3383   11.8712  -16.2035 C   0  0  0  0  0  0  0  0  0  0  0  0
   35.9766   12.6439  -15.2098 C   0  0  0  0  0  0  0  0  0  0  0  0
   40.4814   11.1272  -18.7689 C   0  0  0  0  0  0  0  0  0  0  0  0
   40.2126   11.7099  -17.6745 O   0  0  0  0  0  0  0  0  0  0  0  0
   39.2707   14.6839  -13.1136 O   0  0  0  0  0  0  0  0  0  0  0  0
   40.4425   15.5012  -13.0319 C   0  0  0  0  0  0  0  0  0  0  0  0
   42.1776   12.7964  -16.4956 C   0  0  0  0  0  0  0  0  0  0  0  0
   43.3893   12.9041  -15.8803 N   0  0  0  0  0  0  0  0  0  0  0  0
   44.3439   12.0012  -16.4874 C   0  0  0  0  0  0  0  0  0  0  0  0
   43.8115   13.4604  -14.7201 C   0  0  0  0  0  0  0  0  0  0  0  0
 19 20  1  0  0  0
 20  1  1  0  0  0
  1  2  2  0  0  0
  2  3  1  0  0  0
  3  7  1  0  0  0
  7  8  2  0  0  0
  8  9  1  0  0  0
  9 10  1  0  0  0
  9 11  1  0  0  0
 11 12  2  0  0  0
 11 13  1  0  0  0
 13 14  2  0  0  0
 14 15  1  0  0  0
 15 16  2  0  0  0
 16 17  1  0  0  0
 17 18  2  0  0  0
  3  4  2  0  0  0
  4 21  1  0  0  0
 21 22  1  0  0  0
  4  5  1  0  0  0
  5  6  2  0  0  0
  6 23  1  0  0  0
 23 24  1  0  0  0
 24 25  1  0  0  0
 24 26  1  0  0  0
  6  1  1  0  0  0
 18  7  1  0  0  0
 18 13  1  0  0  0
M  END
> <minimizedAffinity>
-8.89154

> <CNNscore>
0.4408684373

> <CNNaffinity>
6.3191637993

> <CNN_VS>
2.7859199047

> <CNNaffinity_variance>
0.1309235841

$$$$
[H]c1c(OC([H])([H])[H])c(C([H])([H])N(C([H])([H])[H])C([H])([H])[H])c([H])c(OC([H])([H])[H])c1-c1c([H])n(C([H])([H])[H])c(=O)c2c([H])c([H])c([H])c([H])c12


 26 28  0  0  0  0  0  0  0  0999 V2000
   38.2419   15.1090  -12.9959 C   0  0  0  0  0  0  0  0  0  0  0  0
   38.1347   14.2165  -14.0904 C   0  0  0  0  0  0  0  0  0  0  0  0
   39.3185   13.6109  -14.7227 C   0  0  0  0  0  0  0  0  0  0  0  0
   40.4990   13.9372  -14.2555 C   0  0  0  0  0  0  0  0  0  0  0  0
   40.6666   14.8711  -13.2011 C   0  0  0  0  0  0  0  0  0  0  0  0
   39.5931   15.3783  -12.6591 C   0  0  0  0  0  0  0  0  0  0  0  0
   38.9009   12.4624  -15.5293 C   0  0  0  0  0  0  0  0  0  0  0  0
   39.7524   12.0502  -16.6258 C   0  0  0  0  0  0  0  0  0  0  0  0
   39.2558   11.3741  -17.7194 N   0  0  0  0  0  0  0  0  0  0  0  0
   39.9923   10.9851  -18.8510 C   0  0  0  0  0  0  0  0  0  0  0  0
   37.9735   11.2038  -17.5655 C   0  0  0  0  0  0  0  0  0  0  0  0
   37.5375   10.5006  -18.7293 O   0  0  0  0  0  0  0  0  0  0  0  0
   37.0110   11.4321  -16.7957 C   0  0  0  0  0  0  0  0  0  0  0  0
   35.6532   11.0935  -16.9562 C   0  0  0  0  0  0  0  0  0  0  0  0
   34.9164   11.5740  -15.7327 C   0  0  0  0  0  0  0  0  0  0  0  0
   35.3525   12.1327  -14.8067 C   0  0  0  0  0  0  0  0  0  0  0  0
   36.7354   12.5093  -14.6052 C   0  0  0  0  0  0  0  0  0  0  0  0
   37.5179   12.1556  -15.5941 C   0  0  0  0  0  0  0  0  0  0  0  0
   36.3963   16.2377  -11.6313 C   0  0  0  0  0  0  0  0  0  0  0  0
   37.3347   15.6646  -12.2642 O   0  0  0  0  0  0  0  0  0  0  0  0
   41.6999   13.3587  -14.7464 O   0  0  0  0  0  0  0  0  0  0  0  0
   42.7555   13.6101  -13.8135 C   0  0  0  0  0  0  0  0  0  0  0  0
   39.6618   16.2804  -11.4660 C   0  0  0  0  0  0  0  0  0  0  0  0
   40.2795   15.9863  -10.2869 N   0  0  0  0  0  0  0  0  0  0  0  0
   39.2984   15.6826   -9.2669 C   0  0  0  0  0  0  0  0  0  0  0  0
   41.5381   16.1512   -9.8150 C   0  0  0  0  0  0  0  0  0  0  0  0
 19 20  1  0  0  0
 20  1  1  0  0  0
  1  2  2  0  0  0
  2  3  1  0  0  0
  3  7  1  0  0  0
  7  8  2  0  0  0
  8  9  1  0  0  0
  9 10  1  0  0  0
  9 11  1  0  0  0
 11 12  2  0  0  0
 11 13  1  0  0  0
 13 14  2  0  0  0
 14 15  1  0  0  0
 15 16  2  0  0  0
 16 17  1  0  0  0
 17 18  2  0  0  0
  3  4  2  0  0  0
  4 21  1  0  0  0
 21 22  1  0  0  0
  4  5  1  0  0  0
  5  6  2  0  0  0
  6 23  1  0  0  0
 23 24  1  0  0  0
 24 25  1  0  0  0
 24 26  1  0  0  0
  6  1  1  0  0  0
 18  7  1  0  0  0
 18 13  1  0  0  0
M  END
> <minimizedAffinity>
-8.62628

> <CNNscore>
0.3779518008

> <CNNaffinity>
6.0586533546

> <CNN_VS>
2.2898788452

> <CNNaffinity_variance>
0.1391997933

$$$$
[H]c1c(OC([H])([H])[H])c(C([H])([H])N(C([H])([H])[H])C([H])([H])[H])c([H])c(OC([H])([H])[H])c1-c1c([H])n(C([H])([H])[H])c(=O)c2c([H])c([H])c([H])c([H])c12


 26 28  0  0  0  0  0  0  0  0999 V2000
   39.4759   15.1140  -12.9128 C   0  0  0  0  0  0  0  0  0  0  0  0
   39.1859   14.2082  -13.9622 C   0  0  0  0  0  0  0  0  0  0  0  0
   37.9594   13.3937  -13.9737 C   0  0  0  0  0  0  0  0  0  0  0  0
   37.1343   13.5113  -12.9619 C   0  0  0  0  0  0  0  0  0  0  0  0
   37.4043   14.3583  -11.8566 C   0  0  0  0  0  0  0  0  0  0  0  0
   38.4962   15.0725  -11.8879 C   0  0  0  0  0  0  0  0  0  0  0  0
   37.7372   12.8742  -15.3246 C   0  0  0  0  0  0  0  0  0  0  0  0
   36.4687   12.2380  -15.6133 C   0  0  0  0  0  0  0  0  0  0  0  0
   36.3365   11.2959  -16.6106 N   0  0  0  0  0  0  0  0  0  0  0  0
   35.1640   10.5879  -16.9243 C   0  0  0  0  0  0  0  0  0  0  0  0
   37.4937   11.1193  -17.1823 C   0  0  0  0  0  0  0  0  0  0  0  0
   37.2747   10.1384  -18.1967 O   0  0  0  0  0  0  0  0  0  0  0  0
   38.6940   11.4795  -17.1621 C   0  0  0  0  0  0  0  0  0  0  0  0
   39.7599   11.0438  -17.9733 C   0  0  0  0  0  0  0  0  0  0  0  0
   40.9901   11.8088  -17.5584 C   0  0  0  0  0  0  0  0  0  0  0  0
   41.0844   12.6149  -16.7212 C   0  0  0  0  0  0  0  0  0  0  0  0
   40.0210   13.0842  -15.8587 C   0  0  0  0  0  0  0  0  0  0  0  0
   38.8688   12.5093  -16.0975 C   0  0  0  0  0  0  0  0  0  0  0  0
   41.4473   16.7208  -12.6414 C   0  0  0  0  0  0  0  0  0  0  0  0
   40.4376   15.9634  -12.7687 O   0  0  0  0  0  0  0  0  0  0  0  0
   35.8919   12.8247  -12.9072 O   0  0  0  0  0  0  0  0  0  0  0  0
   34.8371   13.7785  -12.7476 C   0  0  0  0  0  0  0  0  0  0  0  0
   38.8107   16.0810  -10.8269 C   0  0  0  0  0  0  0  0  0  0  0  0
   39.2850   15.7963   -9.5809 N   0  0  0  0  0  0  0  0  0  0  0  0
   38.2494   15.9983   -8.5900 C   0  0  0  0  0  0  0  0  0  0  0  0
   40.5225   15.6156   -9.0616 C   0  0  0  0  0  0  0  0  0  0  0  0
 19 20  1  0  0  0
 20  1  1  0  0  0
  1  2  2  0  0  0
  2  3  1  0  0  0
  3  7  1  0  0  0
  7  8  2  0  0  0
  8  9  1  0  0  0
  9 10  1  0  0  0
  9 11  1  0  0  0
 11 12  2  0  0  0
 11 13  1  0  0  0
 13 14  2  0  0  0
 14 15  1  0  0  0
 15 16  2  0  0  0
 16 17  1  0  0  0
 17 18  2  0  0  0
  3  4  2  0  0  0
  4 21  1  0  0  0
 21 22  1  0  0  0
  4  5  1  0  0  0
  5  6  2  0  0  0
  6 23  1  0  0  0
 23 24  1  0  0  0
 24 25  1  0  0  0
 24 26  1  0  0  0
  6  1  1  0  0  0
 18  7  1  0  0  0
 18 13  1  0  0  0
M  END
> <minimizedAffinity>
-8.54006

> <CNNscore>
0.3687335849

> <CNNaffinity>
5.9695997238

> <CNN_VS>
2.2011919022

> <CNNaffinity_variance>
0.1510894001

$$$$
[H]c1c(OC([H])([H])[H])c(C([H])([H])N(C([H])([H])[H])C([H])([H])[H])c([H])c(OC([H])([H])[H])c1-c1c([H])n(C([H])([H])[H])c(=O)c2c([H])c([H])c([H])c([H])c12


 26 28  0  0  0  0  0  0  0  0999 V2000
   38.8723   15.0171  -12.4834 C   0  0  0  0  0  0  0  0  0  0  0  0
   38.6613   14.1540  -13.5862 C   0  0  0  0  0  0  0  0  0  0  0  0
   37.4423   13.3387  -13.7174 C   0  0  0  0  0  0  0  0  0  0  0  0
   36.5472   13.4142  -12.7627 C   0  0  0  0  0  0  0  0  0  0  0  0
   36.7345   14.2164  -11.6080 C   0  0  0  0  0  0  0  0  0  0  0  0
   37.8228   14.9329  -11.5330 C   0  0  0  0  0  0  0  0  0  0  0  0
   37.3186   12.8738  -15.1003 C   0  0  0  0  0  0  0  0  0  0  0  0
   36.0805   12.2381  -15.5007 C   0  0  0  0  0  0  0  0  0  0  0  0
   36.0277   11.3371  -16.5423 N   0  0  0  0  0  0  0  0  0  0  0  0
   34.8880   10.6317  -16.9639 C   0  0  0  0  0  0  0  0  0  0  0  0
   37.2231   11.1954  -17.0405 C   0  0  0  0  0  0  0  0  0  0  0  0
   37.0854   10.2555  -18.1066 O   0  0  0  0  0  0  0  0  0  0  0  0
   38.4148   11.5658  -16.9237 C   0  0  0  0  0  0  0  0  0  0  0  0
   39.5385   11.1743  -17.6773 C   0  0  0  0  0  0  0  0  0  0  0  0
   40.7283   11.9330  -17.1486 C   0  0  0  0  0  0  0  0  0  0  0  0
   40.7557   12.7045  -16.2747 C   0  0  0  0  0  0  0  0  0  0  0  0
   39.6306   13.1274  -15.4683 C   0  0  0  0  0  0  0  0  0  0  0  0
   38.5044   12.5520  -15.8084 C   0  0  0  0  0  0  0  0  0  0  0  0
   40.8075   16.6336  -12.0537 C   0  0  0  0  0  0  0  0  0  0  0  0
   39.8177   15.8615  -12.2375 O   0  0  0  0  0  0  0  0  0  0  0  0
   35.3070   12.7241  -12.8239 O   0  0  0  0  0  0  0  0  0  0  0  0
   34.2432   13.6790  -12.8888 C   0  0  0  0  0  0  0  0  0  0  0  0
   38.0569   15.8983  -10.4128 C   0  0  0  0  0  0  0  0  0  0  0  0
   37.1630   16.8274   -9.9698 N   0  0  0  0  0  0  0  0  0  0  0  0
   37.7921   18.1279   -9.8793 C   0  0  0  0  0  0  0  0  0  0  0  0
   35.9434   16.7589   -9.3853 C   0  0  0  0  0  0  0  0  0  0  0  0
 19 20  1  0  0  0
 20  1  1  0  0  0
  1  2  2  0  0  0
  2  3  1  0  0  0
  3  7  1  0  0  0
  7  8  2  0  0  0
  8  9  1  0  0  0
  9 10  1  0  0  0
  9 11  1  0  0  0
 11 12  2  0  0  0
 11 13  1  0  0  0
 13 14  2  0  0  0
 14 15  1  0  0  0
 15 16  2  0  0  0
 16 17  1  0  0  0
 17 18  2  0  0  0
  3  4  2  0  0  0
  4 21  1  0  0  0
 21 22  1  0  0  0
  4  5  1  0  0  0
  5  6  2  0  0  0
  6 23  1  0  0  0
 23 24  1  0  0  0
 24 25  1  0  0  0
 24 26  1  0  0  0
  6  1  1  0  0  0
 18  7  1  0  0  0
 18 13  1  0  0  0
M  END
> <minimizedAffinity>
-8.67978

> <CNNscore>
0.3684073389

> <CNNaffinity>
5.9706878662

> <CNN_VS>
2.1996452808

> <CNNaffinity_variance>
0.2164894342

$$$$
[H]c1nc([H])c(N([H])C(=O)c2nn(-c3c([H])c([H])c([H])c([H])c3Cl)c(-c3c([H])c([H])c(Cl)c([H])c3[H])c2C([H])([H])C(=O)N([H])[H])c(C([H])([H])[H])c1[H]


 36 39  0  0  0  0  0  0  0  0999 V2000
   40.7637   13.2463  -14.9721 C   0  0  0  0  0  0  0  0  0  0  0  0
   39.9659   13.7960  -14.0437 N   0  0  0  0  0  0  0  0  0  0  0  0
   38.6867   13.4523  -14.2387 N   0  0  0  0  0  0  0  0  0  0  0  0
   38.5982   12.6391  -15.3370 C   0  0  0  0  0  0  0  0  0  0  0  0
   39.8970   12.5149  -15.7840 C   0  0  0  0  0  0  0  0  0  0  0  0
   37.6768   13.9540  -13.3889 C   0  0  0  0  0  0  0  0  0  0  0  0
   37.5131   15.3111  -13.2375 C   0  0  0  0  0  0  0  0  0  0  0  0
   36.5357   15.8290  -12.3791 C   0  0  0  0  0  0  0  0  0  0  0  0
   35.7102   14.9803  -11.6616 C   0  0  0  0  0  0  0  0  0  0  0  0
   35.8773   13.6261  -11.8159 C   0  0  0  0  0  0  0  0  0  0  0  0
   36.8375   13.1173  -12.6591 C   0  0  0  0  0  0  0  0  0  0  0  0
   37.0615   11.3948  -12.8656 Cl  0  0  0  0  0  0  0  0  0  0  0  0
   37.3556   12.1871  -15.9429 C   0  0  0  0  0  0  0  0  0  0  0  0
   37.2227   11.0680  -16.7250 C   0  0  0  0  0  0  0  0  0  0  0  0
   36.0156   10.5805  -17.2097 C   0  0  0  0  0  0  0  0  0  0  0  0
   34.8560   11.2457  -16.9029 C   0  0  0  0  0  0  0  0  0  0  0  0
   33.3508   10.6122  -17.5249 Cl  0  0  0  0  0  0  0  0  0  0  0  0
   34.9262   12.3631  -16.1319 C   0  0  0  0  0  0  0  0  0  0  0  0
   36.1512   12.8383  -15.6513 C   0  0  0  0  0  0  0  0  0  0  0  0
   42.9058   13.9258  -13.9606 N   0  0  0  0  0  0  0  0  0  0  0  0
   42.2161   13.4091  -15.0770 C   0  0  0  0  0  0  0  0  0  0  0  0
   42.8057   13.1014  -16.1109 O   0  0  0  0  0  0  0  0  0  0  0  0
   42.2742   14.1540  -13.1186 H   0  0  0  0  0  0  0  0  0  0  0  0
   44.1360   12.8713  -11.7043 C   0  0  0  0  0  0  0  0  0  0  0  0
   44.9257   13.6418  -12.6817 C   0  0  0  0  0  0  0  0  0  0  0  0
   46.2763   13.8330  -12.4699 C   0  0  0  0  0  0  0  0  0  0  0  0
   47.0455   14.5479  -13.3538 C   0  0  0  0  0  0  0  0  0  0  0  0
   46.4236   15.0471  -14.4249 N   0  0  0  0  0  0  0  0  0  0  0  0
   45.0846   14.8753  -14.6644 C   0  0  0  0  0  0  0  0  0  0  0  0
   44.2776   14.1703  -13.8117 C   0  0  0  0  0  0  0  0  0  0  0  0
   40.4101   11.6655  -16.9039 C   0  0  0  0  0  0  0  0  0  0  0  0
   40.2946   12.5051  -18.1588 C   0  0  0  0  0  0  0  0  0  0  0  0
   40.5073   13.8887  -18.0336 N   0  0  0  0  0  0  0  0  0  0  0  0
   40.0240   11.9963  -19.2527 O   0  0  0  0  0  0  0  0  0  0  0  0
   39.9766   14.5049  -17.3522 H   0  0  0  0  0  0  0  0  0  0  0  0
   41.2188   14.4249  -18.6145 H   0  0  0  0  0  0  0  0  0  0  0  0
 24 25  1  0  0  0
 25 26  2  0  0  0
 26 27  1  0  0  0
 27 28  2  0  0  0
 28 29  1  0  0  0
 29 30  2  0  0  0
 30 20  1  0  0  0
 20 21  1  0  0  0
 21 22  2  0  0  0
 21  1  1  0  0  0
  1  2  2  0  0  0
  2  3  1  0  0  0
  3  6  1  0  0  0
  6  7  2  0  0  0
  7  8  1  0  0  0
  8  9  2  0  0  0
  9 10  1  0  0  0
 10 11  2  0  0  0
 11 12  1  0  0  0
  3  4  1  0  0  0
  4 13  1  0  0  0
 13 14  2  0  0  0
 14 15  1  0  0  0
 15 16  2  0  0  0
 16 17  1  0  0  0
 16 18  1  0  0  0
 18 19  2  0  0  0
  4  5  2  0  0  0
  5 31  1  0  0  0
 31 32  1  0  0  0
 32 33  1  0  0  0
 32 34  2  0  0  0
 30 25  1  0  0  0
  5  1  1  0  0  0
 11  6  1  0  0  0
 19 13  1  0  0  0
 20 23  1  0  0  0
 33 35  1  0  0  0
 33 36  1  0  0  0
M  END
> <minimizedAffinity>
-8.37799

> <CNNscore>
0.6539701223

> <CNNaffinity>
7.6715459824

> <CNN_VS>
5.0169620514

> <CNNaffinity_variance>
0.1161087528

$$$$
[H]c1nc([H])c(N([H])C(=O)c2nn(-c3c([H])c([H])c([H])c([H])c3Cl)c(-c3c([H])c([H])c(Cl)c([H])c3[H])c2C([H])([H])C(=O)N([H])[H])c(C([H])([H])[H])c1[H]


 36 39  0  0  0  0  0  0  0  0999 V2000
   40.1511   14.9421  -13.1255 C   0  0  0  0  0  0  0  0  0  0  0  0
   41.4289   14.6003  -13.3515 N   0  0  0  0  0  0  0  0  0  0  0  0
   41.5465   13.8775  -14.4723 N   0  0  0  0  0  0  0  0  0  0  0  0
   40.3102   13.7149  -15.0386 C   0  0  0  0  0  0  0  0  0  0  0  0
   39.4494   14.3840  -14.1940 C   0  0  0  0  0  0  0  0  0  0  0  0
   42.8080   13.3869  -14.8745 C   0  0  0  0  0  0  0  0  0  0  0  0
   42.9370   12.7054  -16.0621 C   0  0  0  0  0  0  0  0  0  0  0  0
   44.1733   12.1872  -16.4663 C   0  0  0  0  0  0  0  0  0  0  0  0
   45.2965   12.3515  -15.6739 C   0  0  0  0  0  0  0  0  0  0  0  0
   45.1629   13.0326  -14.4891 C   0  0  0  0  0  0  0  0  0  0  0  0
   43.9484   13.5416  -14.0919 C   0  0  0  0  0  0  0  0  0  0  0  0
   43.7635   14.4112  -12.5855 Cl  0  0  0  0  0  0  0  0  0  0  0  0
   40.0216   12.8644  -16.1827 C   0  0  0  0  0  0  0  0  0  0  0  0
   39.3148   11.6898  -16.1318 C   0  0  0  0  0  0  0  0  0  0  0  0
   38.9480   10.9387  -17.2413 C   0  0  0  0  0  0  0  0  0  0  0  0
   39.3058   11.3763  -18.4910 C   0  0  0  0  0  0  0  0  0  0  0  0
   38.8323   10.4133  -19.8704 Cl  0  0  0  0  0  0  0  0  0  0  0  0
   40.0090   12.5341  -18.6032 C   0  0  0  0  0  0  0  0  0  0  0  0
   40.3683   13.2782  -17.4743 C   0  0  0  0  0  0  0  0  0  0  0  0
   38.7314   15.1033  -11.1175 N   0  0  0  0  0  0  0  0  0  0  0  0
   39.6473   15.7231  -11.9927 C   0  0  0  0  0  0  0  0  0  0  0  0
   40.0183   16.8823  -11.8195 O   0  0  0  0  0  0  0  0  0  0  0  0
   38.4894   14.0870  -11.3794 H   0  0  0  0  0  0  0  0  0  0  0  0
   36.2634   16.3283  -11.4699 C   0  0  0  0  0  0  0  0  0  0  0  0
   36.8612   16.2494  -10.1249 C   0  0  0  0  0  0  0  0  0  0  0  0
   36.1876   16.7845   -9.0454 C   0  0  0  0  0  0  0  0  0  0  0  0
   36.7123   16.7352   -7.7780 C   0  0  0  0  0  0  0  0  0  0  0  0
   37.9028   16.1456   -7.6426 N   0  0  0  0  0  0  0  0  0  0  0  0
   38.5973   15.6047   -8.6937 C   0  0  0  0  0  0  0  0  0  0  0  0
   38.1144   15.6301   -9.9749 C   0  0  0  0  0  0  0  0  0  0  0  0
   37.9813   14.6152  -14.3668 C   0  0  0  0  0  0  0  0  0  0  0  0
   37.2925   13.3747  -13.8377 C   0  0  0  0  0  0  0  0  0  0  0  0
   36.1462   12.9307  -14.5188 N   0  0  0  0  0  0  0  0  0  0  0  0
   37.7196   12.7735  -12.8453 O   0  0  0  0  0  0  0  0  0  0  0  0
   35.3004   13.5433  -14.7059 H   0  0  0  0  0  0  0  0  0  0  0  0
   36.0392   11.9434  -14.8996 H   0  0  0  0  0  0  0  0  0  0  0  0
 24 25  1  0  0  0
 25 26  2  0  0  0
 26 27  1  0  0  0
 27 28  2  0  0  0
 28 29  1  0  0  0
 29 30  2  0  0  0
 30 20  1  0  0  0
 20 21  1  0  0  0
 21 22  2  0  0  0
 21  1  1  0  0  0
  1  2  2  0  0  0
  2  3  1  0  0  0
  3  6  1  0  0  0
  6  7  2  0  0  0
  7  8  1  0  0  0
  8  9  2  0  0  0
  9 10  1  0  0  0
 10 11  2  0  0  0
 11 12  1  0  0  0
  3  4  1  0  0  0
  4 13  1  0  0  0
 13 14  2  0  0  0
 14 15  1  0  0  0
 15 16  2  0  0  0
 16 17  1  0  0  0
 16 18  1  0  0  0
 18 19  2  0  0  0
  4  5  2  0  0  0
  5 31  1  0  0  0
 31 32  1  0  0  0
 32 33  1  0  0  0
 32 34  2  0  0  0
 30 25  1  0  0  0
  5  1  1  0  0  0
 11  6  1  0  0  0
 19 13  1  0  0  0
 20 23  1  0  0  0
 33 35  1  0  0  0
 33 36  1  0  0  0
M  END
> <minimizedAffinity>
-8.73176

> <CNNscore>
0.1890915036

> <CNNaffinity>
6.7274527550

> <CNN_VS>
1.2721041441

> <CNNaffinity_variance>
0.2505734861

$$$$
[H]c1nc([H])c(N([H])C(=O)c2nn(-c3c([H])c([H])c([H])c([H])c3Cl)c(-c3c([H])c([H])c(Cl)c([H])c3[H])c2C([H])([H])C(=O)N([H])[H])c(C([H])([H])[H])c1[H]


 36 39  0  0  0  0  0  0  0  0999 V2000
   42.2098   13.4055  -14.7700 C   0  0  0  0  0  0  0  0  0  0  0  0
   41.8559   13.7418  -13.5201 N   0  0  0  0  0  0  0  0  0  0  0  0
   42.8745   14.3121  -12.8645 N   0  0  0  0  0  0  0  0  0  0  0  0
   43.9670   14.3715  -13.6883 C   0  0  0  0  0  0  0  0  0  0  0  0
   43.5414   13.8074  -14.8726 C   0  0  0  0  0  0  0  0  0  0  0  0
   42.7215   14.7108  -11.5187 C   0  0  0  0  0  0  0  0  0  0  0  0
   43.3452   14.0071  -10.5150 C   0  0  0  0  0  0  0  0  0  0  0  0
   43.1847   14.3694   -9.1722 C   0  0  0  0  0  0  0  0  0  0  0  0
   42.3904   15.4492   -8.8263 C   0  0  0  0  0  0  0  0  0  0  0  0
   41.7697   16.1487   -9.8316 C   0  0  0  0  0  0  0  0  0  0  0  0
   41.9272   15.7929  -11.1509 C   0  0  0  0  0  0  0  0  0  0  0  0
   41.1429   16.6748  -12.4418 Cl  0  0  0  0  0  0  0  0  0  0  0  0
   45.2987   14.7900  -13.2794 C   0  0  0  0  0  0  0  0  0  0  0  0
   45.7947   16.0634  -13.3982 C   0  0  0  0  0  0  0  0  0  0  0  0
   47.0246   16.4823  -12.9067 C   0  0  0  0  0  0  0  0  0  0  0  0
   47.8240   15.5799  -12.2527 C   0  0  0  0  0  0  0  0  0  0  0  0
   49.3663   16.1318  -11.6439 Cl  0  0  0  0  0  0  0  0  0  0  0  0
   47.3851   14.3017  -12.1060 C   0  0  0  0  0  0  0  0  0  0  0  0
   46.1424   13.8984  -12.6065 C   0  0  0  0  0  0  0  0  0  0  0  0
   40.0008   12.5484  -15.4474 N   0  0  0  0  0  0  0  0  0  0  0  0
   41.3579   12.7562  -15.7699 C   0  0  0  0  0  0  0  0  0  0  0  0
   41.8219   12.4075  -16.8536 O   0  0  0  0  0  0  0  0  0  0  0  0
   39.7208   12.9002  -14.4688 H   0  0  0  0  0  0  0  0  0  0  0  0
   37.3757   12.9945  -14.6562 C   0  0  0  0  0  0  0  0  0  0  0  0
   37.6564   12.1748  -15.8486 C   0  0  0  0  0  0  0  0  0  0  0  0
   36.6095   11.6343  -16.5680 C   0  0  0  0  0  0  0  0  0  0  0  0
   36.8292   10.8621  -17.6813 C   0  0  0  0  0  0  0  0  0  0  0  0
   38.1019   10.6609  -18.0319 N   0  0  0  0  0  0  0  0  0  0  0  0
   39.1637   11.1832  -17.3394 C   0  0  0  0  0  0  0  0  0  0  0  0
   38.9939   11.9589  -16.2237 C   0  0  0  0  0  0  0  0  0  0  0  0
   44.2929   13.6901  -16.1612 C   0  0  0  0  0  0  0  0  0  0  0  0
   45.0366   12.3725  -16.0987 C   0  0  0  0  0  0  0  0  0  0  0  0
   44.4918   11.2877  -16.8068 N   0  0  0  0  0  0  0  0  0  0  0  0
   46.0829   12.2524  -15.4509 O   0  0  0  0  0  0  0  0  0  0  0  0
   43.4971   10.9421  -16.6772 H   0  0  0  0  0  0  0  0  0  0  0  0
   45.0373   10.7288  -17.5289 H   0  0  0  0  0  0  0  0  0  0  0  0
 24 25  1  0  0  0
 25 26  2  0  0  0
 26 27  1  0  0  0
 27 28  2  0  0  0
 28 29  1  0  0  0
 29 30  2  0  0  0
 30 20  1  0  0  0
 20 21  1  0  0  0
 21 22  2  0  0  0
 21  1  1  0  0  0
  1  2  2  0  0  0
  2  3  1  0  0  0
  3  6  1  0  0  0
  6  7  2  0  0  0
  7  8  1  0  0  0
  8  9  2  0  0  0
  9 10  1  0  0  0
 10 11  2  0  0  0
 11 12  1  0  0  0
  3  4  1  0  0  0
  4 13  1  0  0  0
 13 14  2  0  0  0
 14 15  1  0  0  0
 15 16  2  0  0  0
 16 17  1  0  0  0
 16 18  1  0  0  0
 18 19  2  0  0  0
  4  5  2  0  0  0
  5 31  1  0  0  0
 31 32  1  0  0  0
 32 33  1  0  0  0
 32 34  2  0  0  0
 30 25  1  0  0  0
  5  1  1  0  0  0
 11  6  1  0  0  0
 19 13  1  0  0  0
 20 23  1  0  0  0
 33 35  1  0  0  0
 33 36  1  0  0  0
M  END
> <minimizedAffinity>
-7.65924

> <CNNscore>
0.1479614824

> <CNNaffinity>
6.7550153732

> <CNN_VS>
0.9994820952

> <CNNaffinity_variance>
0.1006715074

$$$$
[H]c1nc([H])c(N([H])C(=O)c2nn(-c3c([H])c([H])c([H])c([H])c3Cl)c(-c3c([H])c([H])c(Cl)c([H])c3[H])c2C([H])([H])C(=O)N([H])[H])c(C([H])([H])[H])c1[H]


 36 39  0  0  0  0  0  0  0  0999 V2000
   37.3246   13.3557  -12.6381 C   0  0  0  0  0  0  0  0  0  0  0  0
   38.0026   14.1465  -11.7922 N   0  0  0  0  0  0  0  0  0  0  0  0
   37.1729   14.8029  -10.9717 N   0  0  0  0  0  0  0  0  0  0  0  0
   35.8803   14.4542  -11.2603 C   0  0  0  0  0  0  0  0  0  0  0  0
   35.9864   13.5507  -12.2969 C   0  0  0  0  0  0  0  0  0  0  0  0
   37.6835   15.7161  -10.0235 C   0  0  0  0  0  0  0  0  0  0  0  0
   38.3777   15.2581   -8.9282 C   0  0  0  0  0  0  0  0  0  0  0  0
   38.8687   16.1448   -7.9623 C   0  0  0  0  0  0  0  0  0  0  0  0
   38.6640   17.5078   -8.0916 C   0  0  0  0  0  0  0  0  0  0  0  0
   37.9704   17.9605   -9.1868 C   0  0  0  0  0  0  0  0  0  0  0  0
   37.4878   17.0895  -10.1357 C   0  0  0  0  0  0  0  0  0  0  0  0
   36.6029   17.6518  -11.5357 Cl  0  0  0  0  0  0  0  0  0  0  0  0
   34.6993   15.0728  -10.6788 C   0  0  0  0  0  0  0  0  0  0  0  0
   33.5418   15.3535  -11.3593 C   0  0  0  0  0  0  0  0  0  0  0  0
   32.3798   15.8423  -10.7758 C   0  0  0  0  0  0  0  0  0  0  0  0
   32.3583   16.0731   -9.4239 C   0  0  0  0  0  0  0  0  0  0  0  0
   30.8846   16.6881   -8.7142 Cl  0  0  0  0  0  0  0  0  0  0  0  0
   33.4778   15.8145   -8.6973 C   0  0  0  0  0  0  0  0  0  0  0  0
   34.6386   15.3208   -9.3023 C   0  0  0  0  0  0  0  0  0  0  0  0
   38.2191   13.0888  -14.9189 N   0  0  0  0  0  0  0  0  0  0  0  0
   37.9006   12.4990  -13.6781 C   0  0  0  0  0  0  0  0  0  0  0  0
   38.0963   11.3042  -13.4651 O   0  0  0  0  0  0  0  0  0  0  0  0
   38.0003   14.1418  -14.9762 H   0  0  0  0  0  0  0  0  0  0  0  0
   36.5418   11.4865  -16.4470 C   0  0  0  0  0  0  0  0  0  0  0  0
   37.9453   11.6811  -16.8528 C   0  0  0  0  0  0  0  0  0  0  0  0
   38.4180   11.0658  -17.9946 C   0  0  0  0  0  0  0  0  0  0  0  0
   39.7192   11.2185  -18.4038 C   0  0  0  0  0  0  0  0  0  0  0  0
   40.5018   11.9894  -17.6445 N   0  0  0  0  0  0  0  0  0  0  0  0
   40.0635   12.6144  -16.5056 C   0  0  0  0  0  0  0  0  0  0  0  0
   38.7749   12.4916  -16.0583 C   0  0  0  0  0  0  0  0  0  0  0  0
   34.8932   12.7697  -12.9556 C   0  0  0  0  0  0  0  0  0  0  0  0
   34.4368   13.5965  -14.1394 C   0  0  0  0  0  0  0  0  0  0  0  0
   33.0675   13.5744  -14.4548 N   0  0  0  0  0  0  0  0  0  0  0  0
   35.2354   14.2663  -14.8046 O   0  0  0  0  0  0  0  0  0  0  0  0
   32.5205   12.6830  -14.6331 H   0  0  0  0  0  0  0  0  0  0  0  0
   32.4736   14.4527  -14.5391 H   0  0  0  0  0  0  0  0  0  0  0  0
 24 25  1  0  0  0
 25 26  2  0  0  0
 26 27  1  0  0  0
 27 28  2  0  0  0
 28 29  1  0  0  0
 29 30  2  0  0  0
 30 20  1  0  0  0
 20 21  1  0  0  0
 21 22  2  0  0  0
 21  1  1  0  0  0
  1  2  2  0  0  0
  2  3  1  0  0  0
  3  6  1  0  0  0
  6  7  2  0  0  0
  7  8  1  0  0  0
  8  9  2  0  0  0
  9 10  1  0  0  0
 10 11  2  0  0  0
 11 12  1  0  0  0
  3  4  1  0  0  0
  4 13  1  0  0  0
 13 14  2  0  0  0
 14 15  1  0  0  0
 15 16  2  0  0  0
 16 17  1  0  0  0
 16 18  1  0  0  0
 18 19  2  0  0  0
  4  5  2  0  0  0
  5 31  1  0  0  0
 31 32  1  0  0  0
 32 33  1  0  0  0
 32 34  2  0  0  0
 30 25  1  0  0  0
  5  1  1  0  0  0
 11  6  1  0  0  0
 19 13  1  0  0  0
 20 23  1  0  0  0
 33 35  1  0  0  0
 33 36  1  0  0  0
M  END
> <minimizedAffinity>
-7.49551

> <CNNscore>
0.1360285729

> <CNNaffinity>
6.6841974258

> <CNN_VS>
0.9092418551

> <CNNaffinity_variance>
0.1725321114

$$$$
[H]c1nc([H])c(N([H])C(=O)c2nn(-c3c([H])c([H])c([H])c([H])c3Cl)c(-c3c([H])c([H])c(Cl)c([H])c3[H])c2C([H])([H])C(=O)N([H])[H])c(C([H])([H])[H])c1[H]


 36 39  0  0  0  0  0  0  0  0999 V2000
   44.3736   14.3421  -12.8060 C   0  0  0  0  0  0  0  0  0  0  0  0
   44.9683   13.4410  -12.0092 N   0  0  0  0  0  0  0  0  0  0  0  0
   45.3443   13.9931  -10.8488 N   0  0  0  0  0  0  0  0  0  0  0  0
   44.9981   15.3182  -10.8442 C   0  0  0  0  0  0  0  0  0  0  0  0
   44.3919   15.5241  -12.0658 C   0  0  0  0  0  0  0  0  0  0  0  0
   46.0211   13.2216   -9.8791 C   0  0  0  0  0  0  0  0  0  0  0  0
   47.3613   12.9500  -10.0254 C   0  0  0  0  0  0  0  0  0  0  0  0
   48.0450   12.1644   -9.0895 C   0  0  0  0  0  0  0  0  0  0  0  0
   47.3815   11.6427   -7.9922 C   0  0  0  0  0  0  0  0  0  0  0  0
   46.0434   11.9166   -7.8502 C   0  0  0  0  0  0  0  0  0  0  0  0
   45.3717   12.6882   -8.7696 C   0  0  0  0  0  0  0  0  0  0  0  0
   43.6677   13.0453   -8.6016 Cl  0  0  0  0  0  0  0  0  0  0  0  0
   45.3752   16.2757   -9.8164 C   0  0  0  0  0  0  0  0  0  0  0  0
   46.5659   16.9555   -9.7728 C   0  0  0  0  0  0  0  0  0  0  0  0
   46.8766   17.9484   -8.8523 C   0  0  0  0  0  0  0  0  0  0  0  0
   45.9469   18.2945   -7.9051 C   0  0  0  0  0  0  0  0  0  0  0  0
   46.3622   19.5464   -6.7587 Cl  0  0  0  0  0  0  0  0  0  0  0  0
   44.7484   17.6531   -7.8986 C   0  0  0  0  0  0  0  0  0  0  0  0
   44.4526   16.6565   -8.8348 C   0  0  0  0  0  0  0  0  0  0  0  0
   42.6702   13.3241  -14.2673 N   0  0  0  0  0  0  0  0  0  0  0  0
   43.8432   14.0983  -14.1500 C   0  0  0  0  0  0  0  0  0  0  0  0
   44.4108   14.5593  -15.1382 O   0  0  0  0  0  0  0  0  0  0  0  0
   42.2716   12.9815  -13.3273 H   0  0  0  0  0  0  0  0  0  0  0  0
   39.9823   14.0137  -14.3923 C   0  0  0  0  0  0  0  0  0  0  0  0
   40.6126   13.2997  -15.5172 C   0  0  0  0  0  0  0  0  0  0  0  0
   39.8612   12.9794  -16.6300 C   0  0  0  0  0  0  0  0  0  0  0  0
   40.4098   12.3114  -17.6963 C   0  0  0  0  0  0  0  0  0  0  0  0
   41.7021   11.9884  -17.6030 N   0  0  0  0  0  0  0  0  0  0  0  0
   42.4758   12.2918  -16.5125 C   0  0  0  0  0  0  0  0  0  0  0  0
   41.9728   12.9565  -15.4259 C   0  0  0  0  0  0  0  0  0  0  0  0
   43.7335   16.7692  -12.5708 C   0  0  0  0  0  0  0  0  0  0  0  0
   44.8473   17.6604  -13.0791 C   0  0  0  0  0  0  0  0  0  0  0  0
   45.4658   17.2976  -14.2878 N   0  0  0  0  0  0  0  0  0  0  0  0
   45.2012   18.6687  -12.4573 O   0  0  0  0  0  0  0  0  0  0  0  0
   45.8998   16.3454  -14.4625 H   0  0  0  0  0  0  0  0  0  0  0  0
   45.5460   17.9525  -15.1220 H   0  0  0  0  0  0  0  0  0  0  0  0
 24 25  1  0  0  0
 25 26  2  0  0  0
 26 27  1  0  0  0
 27 28  2  0  0  0
 28 29  1  0  0  0
 29 30  2  0  0  0
 30 20  1  0  0  0
 20 21  1  0  0  0
 21 22  2  0  0  0
 21  1  1  0  0  0
  1  2  2  0  0  0
  2  3  1  0  0  0
  3  6  1  0  0  0
  6  7  2  0  0  0
  7  8  1  0  0  0
  8  9  2  0  0  0
  9 10  1  0  0  0
 10 11  2  0  0  0
 11 12  1  0  0  0
  3  4  1  0  0  0
  4 13  1  0  0  0
 13 14  2  0  0  0
 14 15  1  0  0  0
 15 16  2  0  0  0
 16 17  1  0  0  0
 16 18  1  0  0  0
 18 19  2  0  0  0
  4  5  2  0  0  0
  5 31  1  0  0  0
 31 32  1  0  0  0
 32 33  1  0  0  0
 32 34  2  0  0  0
 30 25  1  0  0  0
  5  1  1  0  0  0
 11  6  1  0  0  0
 19 13  1  0  0  0
 20 23  1  0  0  0
 33 35  1  0  0  0
 33 36  1  0  0  0
M  END
> <minimizedAffinity>
-5.94896

> <CNNscore>
0.1156860888

> <CNNaffinity>
6.0758738518

> <CNN_VS>
0.7028940916

> <CNNaffinity_variance>
0.3575366139

$$$$
[H]c1nc([H])c(N([H])C(=O)c2nn(-c3c([H])c([H])c([H])c([H])c3Cl)c(-c3c([H])c([H])c(Cl)c([H])c3[H])c2C([H])([H])C(=O)N([H])[H])c(C([H])([H])[H])c1[H]


 36 39  0  0  0  0  0  0  0  0999 V2000
   41.9731   13.6694  -14.6970 C   0  0  0  0  0  0  0  0  0  0  0  0
   43.2854   13.4327  -14.8467 N   0  0  0  0  0  0  0  0  0  0  0  0
   43.9728   13.8076  -13.7607 N   0  0  0  0  0  0  0  0  0  0  0  0
   43.1072   14.3198  -12.8310 C   0  0  0  0  0  0  0  0  0  0  0  0
   41.8650   14.2262  -13.4228 C   0  0  0  0  0  0  0  0  0  0  0  0
   45.3781   13.6750  -13.7261 C   0  0  0  0  0  0  0  0  0  0  0  0
   45.9502   12.5010  -13.2950 C   0  0  0  0  0  0  0  0  0  0  0  0
   47.3414   12.3583  -13.2273 C   0  0  0  0  0  0  0  0  0  0  0  0
   48.1731   13.4022  -13.5950 C   0  0  0  0  0  0  0  0  0  0  0  0
   47.5974   14.5724  -14.0247 C   0  0  0  0  0  0  0  0  0  0  0  0
   46.2307   14.7127  -14.0912 C   0  0  0  0  0  0  0  0  0  0  0  0
   45.4835   16.1971  -14.6367 Cl  0  0  0  0  0  0  0  0  0  0  0  0
   43.5026   14.9630  -11.5879 C   0  0  0  0  0  0  0  0  0  0  0  0
   43.9753   16.2464  -11.4814 C   0  0  0  0  0  0  0  0  0  0  0  0
   44.2470   16.8922  -10.2819 C   0  0  0  0  0  0  0  0  0  0  0  0
   44.0397   16.2236   -9.1024 C   0  0  0  0  0  0  0  0  0  0  0  0
   44.3892   17.0582   -7.6072 Cl  0  0  0  0  0  0  0  0  0  0  0  0
   43.5732   14.9475   -9.1459 C   0  0  0  0  0  0  0  0  0  0  0  0
   43.3036   14.3138  -10.3637 C   0  0  0  0  0  0  0  0  0  0  0  0
   40.1209   12.2503  -15.4900 N   0  0  0  0  0  0  0  0  0  0  0  0
   40.9224   13.3949  -15.6808 C   0  0  0  0  0  0  0  0  0  0  0  0
   40.7529   14.1460  -16.6391 O   0  0  0  0  0  0  0  0  0  0  0  0
   40.3707   11.6778  -14.6127 H   0  0  0  0  0  0  0  0  0  0  0  0
   37.5514   12.6132  -14.4992 C   0  0  0  0  0  0  0  0  0  0  0  0
   37.7520   11.9549  -15.8026 C   0  0  0  0  0  0  0  0  0  0  0  0
   36.6581   11.5238  -16.5258 C   0  0  0  0  0  0  0  0  0  0  0  0
   36.8029   10.9028  -17.7412 C   0  0  0  0  0  0  0  0  0  0  0  0
   38.0508   10.7374  -18.1870 N   0  0  0  0  0  0  0  0  0  0  0  0
   39.1578   11.1539  -17.4937 C   0  0  0  0  0  0  0  0  0  0  0  0
   39.0630   11.7776  -16.2782 C   0  0  0  0  0  0  0  0  0  0  0  0
   40.5323   14.5552  -12.8275 C   0  0  0  0  0  0  0  0  0  0  0  0
   40.6373   15.9761  -12.3145 C   0  0  0  0  0  0  0  0  0  0  0  0
   40.2896   16.2070  -10.9725 N   0  0  0  0  0  0  0  0  0  0  0  0
   41.0139   16.8995  -13.0453 O   0  0  0  0  0  0  0  0  0  0  0  0
   39.3559   15.9296  -10.5519 H   0  0  0  0  0  0  0  0  0  0  0  0
   40.9384   16.6790  -10.2743 H   0  0  0  0  0  0  0  0  0  0  0  0
 24 25  1  0  0  0
 25 26  2  0  0  0
 26 27  1  0  0  0
 27 28  2  0  0  0
 28 29  1  0  0  0
 29 30  2  0  0  0
 30 20  1  0  0  0
 20 21  1  0  0  0
 21 22  2  0  0  0
 21  1  1  0  0  0
  1  2  2  0  0  0
  2  3  1  0  0  0
  3  6  1  0  0  0
  6  7  2  0  0  0
  7  8  1  0  0  0
  8  9  2  0  0  0
  9 10  1  0  0  0
 10 11  2  0  0  0
 11 12  1  0  0  0
  3  4  1  0  0  0
  4 13  1  0  0  0
 13 14  2  0  0  0
 14 15  1  0  0  0
 15 16  2  0  0  0
 16 17  1  0  0  0
 16 18  1  0  0  0
 18 19  2  0  0  0
  4  5  2  0  0  0
  5 31  1  0  0  0
 31 32  1  0  0  0
 32 33  1  0  0  0
 32 34  2  0  0  0
 30 25  1  0  0  0
  5  1  1  0  0  0
 11  6  1  0  0  0
 19 13  1  0  0  0
 20 23  1  0  0  0
 33 35  1  0  0  0
 33 36  1  0  0  0
M  END
> <minimizedAffinity>
-7.04698

> <CNNscore>
0.1006701067

> <CNNaffinity>
6.4078369141

> <CNN_VS>
0.6450776458

> <CNNaffinity_variance>
0.1055948511

$$$$
[H]c1nc([H])c(N([H])C(=O)c2nn(-c3c([H])c([H])c([H])c([H])c3Cl)c(-c3c([H])c([H])c(Cl)c([H])c3[H])c2C([H])([H])C(=O)N([H])[H])c(C([H])([H])[H])c1[H]


 36 39  0  0  0  0  0  0  0  0999 V2000
   39.0732   15.6599  -11.8365 C   0  0  0  0  0  0  0  0  0  0  0  0
   38.1566   15.0427  -12.5977 N   0  0  0  0  0  0  0  0  0  0  0  0
   36.9959   14.9066  -11.9445 N   0  0  0  0  0  0  0  0  0  0  0  0
   37.1148   15.4471  -10.6917 C   0  0  0  0  0  0  0  0  0  0  0  0
   38.4107   15.9158  -10.6362 C   0  0  0  0  0  0  0  0  0  0  0  0
   35.9060   14.2508  -12.5575 C   0  0  0  0  0  0  0  0  0  0  0  0
   34.6479   14.8037  -12.5024 C   0  0  0  0  0  0  0  0  0  0  0  0
   33.5491   14.1565  -13.0802 C   0  0  0  0  0  0  0  0  0  0  0  0
   33.7082   12.9402  -13.7219 C   0  0  0  0  0  0  0  0  0  0  0  0
   34.9660   12.3920  -13.7745 C   0  0  0  0  0  0  0  0  0  0  0  0
   36.0456   13.0277  -13.2068 C   0  0  0  0  0  0  0  0  0  0  0  0
   37.6533   12.3413  -13.2662 Cl  0  0  0  0  0  0  0  0  0  0  0  0
   36.1103   15.3543   -9.6440 C   0  0  0  0  0  0  0  0  0  0  0  0
   36.1329   14.4536   -8.6095 C   0  0  0  0  0  0  0  0  0  0  0  0
   35.2320   14.4405   -7.5522 C   0  0  0  0  0  0  0  0  0  0  0  0
   34.2356   15.3823   -7.5132 C   0  0  0  0  0  0  0  0  0  0  0  0
   33.1151   15.3444   -6.1726 Cl  0  0  0  0  0  0  0  0  0  0  0  0
   34.1625   16.3005   -8.5129 C   0  0  0  0  0  0  0  0  0  0  0  0
   35.0800   16.2990   -9.5691 C   0  0  0  0  0  0  0  0  0  0  0  0
   41.4567   15.0354  -11.8886 N   0  0  0  0  0  0  0  0  0  0  0  0
   40.4535   15.9705  -12.2179 C   0  0  0  0  0  0  0  0  0  0  0  0
   40.7181   17.0166  -12.8067 O   0  0  0  0  0  0  0  0  0  0  0  0
   41.0936   14.1610  -11.3753 H   0  0  0  0  0  0  0  0  0  0  0  0
   43.0510   16.1741   -9.9195 C   0  0  0  0  0  0  0  0  0  0  0  0
   43.6634   15.6638  -11.1593 C   0  0  0  0  0  0  0  0  0  0  0  0
   45.0299   15.7533  -11.3334 C   0  0  0  0  0  0  0  0  0  0  0  0
   45.6378   15.2938  -12.4750 C   0  0  0  0  0  0  0  0  0  0  0  0
   44.8436   14.7578  -13.4052 N   0  0  0  0  0  0  0  0  0  0  0  0
   43.4838   14.6541  -13.2632 C   0  0  0  0  0  0  0  0  0  0  0  0
   42.8333   15.0982  -12.1429 C   0  0  0  0  0  0  0  0  0  0  0  0
   39.0671   16.6849   -9.5333 C   0  0  0  0  0  0  0  0  0  0  0  0
   38.3851   18.0364   -9.4959 C   0  0  0  0  0  0  0  0  0  0  0  0
   38.1349   18.6003   -8.2332 N   0  0  0  0  0  0  0  0  0  0  0  0
   38.0598   18.6237  -10.5342 O   0  0  0  0  0  0  0  0  0  0  0  0
   37.5983   18.1038   -7.4644 H   0  0  0  0  0  0  0  0  0  0  0  0
   38.4657   19.5712   -7.9515 H   0  0  0  0  0  0  0  0  0  0  0  0
 24 25  1  0  0  0
 25 26  2  0  0  0
 26 27  1  0  0  0
 27 28  2  0  0  0
 28 29  1  0  0  0
 29 30  2  0  0  0
 30 20  1  0  0  0
 20 21  1  0  0  0
 21 22  2  0  0  0
 21  1  1  0  0  0
  1  2  2  0  0  0
  2  3  1  0  0  0
  3  6  1  0  0  0
  6  7  2  0  0  0
  7  8  1  0  0  0
  8  9  2  0  0  0
  9 10  1  0  0  0
 10 11  2  0  0  0
 11 12  1  0  0  0
  3  4  1  0  0  0
  4 13  1  0  0  0
 13 14  2  0  0  0
 14 15  1  0  0  0
 15 16  2  0  0  0
 16 17  1  0  0  0
 16 18  1  0  0  0
 18 19  2  0  0  0
  4  5  2  0  0  0
  5 31  1  0  0  0
 31 32  1  0  0  0
 32 33  1  0  0  0
 32 34  2  0  0  0
 30 25  1  0  0  0
  5  1  1  0  0  0
 11  6  1  0  0  0
 19 13  1  0  0  0
 20 23  1  0  0  0
 33 35  1  0  0  0
 33 36  1  0  0  0
M  END
> <minimizedAffinity>
-8.06889

> <CNNscore>
0.0846859589

> <CNNaffinity>
5.8424849510

> <CNN_VS>
0.4947764277

> <CNNaffinity_variance>
0.5668653846

$$$$
[H]c1nc([H])c(N([H])C(=O)c2nn(-c3c([H])c([H])c([H])c([H])c3Cl)c(-c3c([H])c([H])c(Cl)c([H])c3[H])c2C([H])([H])C(=O)N([H])[H])c(C([H])([H])[H])c1[H]


 36 39  0  0  0  0  0  0  0  0999 V2000
   38.1398   15.2479  -12.4948 C   0  0  0  0  0  0  0  0  0  0  0  0
   39.4740   15.2813  -12.3556 N   0  0  0  0  0  0  0  0  0  0  0  0
   40.0834   14.6611  -13.3737 N   0  0  0  0  0  0  0  0  0  0  0  0
   39.1396   14.1841  -14.2440 C   0  0  0  0  0  0  0  0  0  0  0  0
   37.9336   14.5575  -13.6890 C   0  0  0  0  0  0  0  0  0  0  0  0
   41.4910   14.5535  -13.4026 C   0  0  0  0  0  0  0  0  0  0  0  0
   42.0863   13.4115  -13.8852 C   0  0  0  0  0  0  0  0  0  0  0  0
   43.4795   13.2737  -13.8974 C   0  0  0  0  0  0  0  0  0  0  0  0
   44.2899   14.2900  -13.4211 C   0  0  0  0  0  0  0  0  0  0  0  0
   43.6911   15.4283  -12.9402 C   0  0  0  0  0  0  0  0  0  0  0  0
   42.3224   15.5638  -12.9281 C   0  0  0  0  0  0  0  0  0  0  0  0
   41.5460   17.0078  -12.3187 Cl  0  0  0  0  0  0  0  0  0  0  0  0
   39.4156   13.3298  -15.3883 C   0  0  0  0  0  0  0  0  0  0  0  0
   38.9192   12.0629  -15.5627 C   0  0  0  0  0  0  0  0  0  0  0  0
   39.0960   11.2944  -16.7063 C   0  0  0  0  0  0  0  0  0  0  0  0
   39.8162   11.8117  -17.7527 C   0  0  0  0  0  0  0  0  0  0  0  0
   40.0243   10.8249  -19.1800 Cl  0  0  0  0  0  0  0  0  0  0  0  0
   40.3341   13.0631  -17.6363 C   0  0  0  0  0  0  0  0  0  0  0  0
   40.1443   13.8230  -16.4771 C   0  0  0  0  0  0  0  0  0  0  0  0
   36.4576   14.9331  -10.7215 N   0  0  0  0  0  0  0  0  0  0  0  0
   37.1548   15.8169  -11.5711 C   0  0  0  0  0  0  0  0  0  0  0  0
   36.9504   17.0288  -11.5454 O   0  0  0  0  0  0  0  0  0  0  0  0
   36.7300   13.8981  -10.8420 H   0  0  0  0  0  0  0  0  0  0  0  0
   37.1257   14.4728   -8.0648 C   0  0  0  0  0  0  0  0  0  0  0  0
   35.7960   15.0085   -8.4078 C   0  0  0  0  0  0  0  0  0  0  0  0
   34.8894   15.2811   -7.4032 C   0  0  0  0  0  0  0  0  0  0  0  0
   33.6399   15.7766   -7.6815 C   0  0  0  0  0  0  0  0  0  0  0  0
   33.3470   15.9809   -8.9682 N   0  0  0  0  0  0  0  0  0  0  0  0
   34.2244   15.7207   -9.9891 C   0  0  0  0  0  0  0  0  0  0  0  0
   35.4808   15.2262   -9.7604 C   0  0  0  0  0  0  0  0  0  0  0  0
   36.5614   14.3800  -14.2586 C   0  0  0  0  0  0  0  0  0  0  0  0
   36.0967   13.0063  -13.8224 C   0  0  0  0  0  0  0  0  0  0  0  0
   35.3749   12.2411  -14.7543 N   0  0  0  0  0  0  0  0  0  0  0  0
   36.3412   12.5719  -12.6909 O   0  0  0  0  0  0  0  0  0  0  0  0
   34.4973   12.5844  -15.2417 H   0  0  0  0  0  0  0  0  0  0  0  0
   35.6546   11.2563  -15.0426 H   0  0  0  0  0  0  0  0  0  0  0  0
 24 25  1  0  0  0
 25 26  2  0  0  0
 26 27  1  0  0  0
 27 28  2  0  0  0
 28 29  1  0  0  0
 29 30  2  0  0  0
 30 20  1  0  0  0
 20 21  1  0  0  0
 21 22  2  0  0  0
 21  1  1  0  0  0
  1  2  2  0  0  0
  2  3  1  0  0  0
  3  6  1  0  0  0
  6  7  2  0  0  0
  7  8  1  0  0  0
  8  9  2  0  0  0
  9 10  1  0  0  0
 10 11  2  0  0  0
 11 12  1  0  0  0
  3  4  1  0  0  0
  4 13  1  0  0  0
 13 14  2  0  0  0
 14 15  1  0  0  0
 15 16  2  0  0  0
 16 17  1  0  0  0
 16 18  1  0  0  0
 18 19  2  0  0  0
  4  5  2  0  0  0
  5 31  1  0  0  0
 31 32  1  0  0  0
 32 33  1  0  0  0
 32 34  2  0  0  0
 30 25  1  0  0  0
  5  1  1  0  0  0
 11  6  1  0  0  0
 19 13  1  0  0  0
 20 23  1  0  0  0
 33 35  1  0  0  0
 33 36  1  0  0  0
M  END
> <minimizedAffinity>
-8.32389

> <CNNscore>
0.0824503750

> <CNNaffinity>
6.3511514664

> <CNN_VS>
0.5236548185

> <CNNaffinity_variance>
0.4160697460

$$$$
[H]c1nc([H])c(N([H])C(=O)c2nn(-c3c([H])c([H])c([H])c([H])c3Cl)c(-c3c([H])c([H])c(Cl)c([H])c3[H])c2C([H])([H])C(=O)N([H])[H])c(C([H])([H])[H])c1[H]


 36 39  0  0  0  0  0  0  0  0999 V2000
   39.2006   15.7150  -11.7305 C   0  0  0  0  0  0  0  0  0  0  0  0
   40.5345   15.5952  -11.8137 N   0  0  0  0  0  0  0  0  0  0  0  0
   40.8961   14.9743  -12.9435 N   0  0  0  0  0  0  0  0  0  0  0  0
   39.7757   14.6550  -13.6636 C   0  0  0  0  0  0  0  0  0  0  0  0
   38.7263   15.1233  -12.9010 C   0  0  0  0  0  0  0  0  0  0  0  0
   42.2585   14.7167  -13.2102 C   0  0  0  0  0  0  0  0  0  0  0  0
   42.6788   13.4353  -13.4798 C   0  0  0  0  0  0  0  0  0  0  0  0
   44.0292   13.1541  -13.7201 C   0  0  0  0  0  0  0  0  0  0  0  0
   44.9732   14.1663  -13.6908 C   0  0  0  0  0  0  0  0  0  0  0  0
   44.5489   15.4441  -13.4212 C   0  0  0  0  0  0  0  0  0  0  0  0
   43.2224   15.7203  -13.1850 C   0  0  0  0  0  0  0  0  0  0  0  0
   42.6676   17.3430  -12.8404 Cl  0  0  0  0  0  0  0  0  0  0  0  0
   39.7629   13.8454  -14.8718 C   0  0  0  0  0  0  0  0  0  0  0  0
   40.4547   14.1347  -16.0205 C   0  0  0  0  0  0  0  0  0  0  0  0
   40.5268   13.3035  -17.1311 C   0  0  0  0  0  0  0  0  0  0  0  0
   39.8672   12.1011  -17.1083 C   0  0  0  0  0  0  0  0  0  0  0  0
   39.9734   11.0736  -18.5180 Cl  0  0  0  0  0  0  0  0  0  0  0  0
   39.1632   11.7611  -15.9962 C   0  0  0  0  0  0  0  0  0  0  0  0
   39.1034   12.6107  -14.8864 C   0  0  0  0  0  0  0  0  0  0  0  0
   38.7142   15.8887   -9.3208 N   0  0  0  0  0  0  0  0  0  0  0  0
   38.4498   16.3314  -10.6335 C   0  0  0  0  0  0  0  0  0  0  0  0
   37.6175   17.2070  -10.8612 O   0  0  0  0  0  0  0  0  0  0  0  0
   39.4651   15.1193   -9.2574 H   0  0  0  0  0  0  0  0  0  0  0  0
   36.5574   14.4227   -8.3640 C   0  0  0  0  0  0  0  0  0  0  0  0
   37.0497   15.5879   -7.6074 C   0  0  0  0  0  0  0  0  0  0  0  0
   36.4353   15.9429   -6.4233 C   0  0  0  0  0  0  0  0  0  0  0  0
   36.8610   17.0234   -5.6917 C   0  0  0  0  0  0  0  0  0  0  0  0
   37.8955   17.7113   -6.1814 N   0  0  0  0  0  0  0  0  0  0  0  0
   38.5275   17.3851   -7.3536 C   0  0  0  0  0  0  0  0  0  0  0  0
   38.1386   16.3167   -8.1169 C   0  0  0  0  0  0  0  0  0  0  0  0
   37.2693   15.1298  -13.2415 C   0  0  0  0  0  0  0  0  0  0  0  0
   36.6415   14.0120  -12.4355 C   0  0  0  0  0  0  0  0  0  0  0  0
   35.4707   14.3104  -11.7176 N   0  0  0  0  0  0  0  0  0  0  0  0
   37.1372   12.8796  -12.4079 O   0  0  0  0  0  0  0  0  0  0  0  0
   35.3978   15.1038  -11.0170 H   0  0  0  0  0  0  0  0  0  0  0  0
   34.5658   13.7615  -11.8226 H   0  0  0  0  0  0  0  0  0  0  0  0
 24 25  1  0  0  0
 25 26  2  0  0  0
 26 27  1  0  0  0
 27 28  2  0  0  0
 28 29  1  0  0  0
 29 30  2  0  0  0
 30 20  1  0  0  0
 20 21  1  0  0  0
 21 22  2  0  0  0
 21  1  1  0  0  0
  1  2  2  0  0  0
  2  3  1  0  0  0
  3  6  1  0  0  0
  6  7  2  0  0  0
  7  8  1  0  0  0
  8  9  2  0  0  0
  9 10  1  0  0  0
 10 11  2  0  0  0
 11 12  1  0  0  0
  3  4  1  0  0  0
  4 13  1  0  0  0
 13 14  2  0  0  0
 14 15  1  0  0  0
 15 16  2  0  0  0
 16 17  1  0  0  0
 16 18  1  0  0  0
 18 19  2  0  0  0
  4  5  2  0  0  0
  5 31  1  0  0  0
 31 32  1  0  0  0
 32 33  1  0  0  0
 32 34  2  0  0  0
 30 25  1  0  0  0
  5  1  1  0  0  0
 11  6  1  0  0  0
 19 13  1  0  0  0
 20 23  1  0  0  0
 33 35  1  0  0  0
 33 36  1  0  0  0
M  END
> <minimizedAffinity>
-7.38424

> <CNNscore>
0.0779588148

> <CNNaffinity>
5.9846029282

> <CNN_VS>
0.4665525556

> <CNNaffinity_variance>
0.5470125079

$$$$
[H]OC([H])([H])C([H])([H])n1c(C2([H])C([H])([H])C([H])([H])N(c3nc([H])nc(N([H])[H])c3C#N)C([H])([H])C2([H])[H])nc(-c2c([H])c([H])c(F)c(C([H])([H])[H])c2[H])c1[H]


 34 37  0  0  0  0  0  0  0  0999 V2000
   36.2486   16.0029  -10.4207 C   0  0  0  0  0  0  0  0  0  0  0  0
   35.1311   15.6248  -11.1270 C   0  0  0  0  0  0  0  0  0  0  0  0
   35.5543   14.7756  -12.1163 N   0  0  0  0  0  0  0  0  0  0  0  0
   36.8789   14.6318  -12.0291 C   0  0  0  0  0  0  0  0  0  0  0  0
   37.2786   15.3860  -10.9925 N   0  0  0  0  0  0  0  0  0  0  0  0
   34.4348   17.5807   -6.0355 C   0  0  0  0  0  0  0  0  0  0  0  0
   35.3963   17.6839   -7.1606 C   0  0  0  0  0  0  0  0  0  0  0  0
   35.3638   16.8034   -8.2424 C   0  0  0  0  0  0  0  0  0  0  0  0
   36.2546   16.9053   -9.2765 C   0  0  0  0  0  0  0  0  0  0  0  0
   37.2049   17.9018   -9.2459 C   0  0  0  0  0  0  0  0  0  0  0  0
   37.2613   18.7878   -8.1886 C   0  0  0  0  0  0  0  0  0  0  0  0
   36.3535   18.6765   -7.1443 C   0  0  0  0  0  0  0  0  0  0  0  0
   36.4469   19.5760   -6.1178 F   0  0  0  0  0  0  0  0  0  0  0  0
   37.7490   13.8248  -12.8815 C   0  0  0  0  0  0  0  0  0  0  0  0
   38.1555   14.5758  -14.1348 C   0  0  0  0  0  0  0  0  0  0  0  0
   39.3613   13.8335  -14.6543 C   0  0  0  0  0  0  0  0  0  0  0  0
   38.9501   12.4580  -15.0178 N   0  0  0  0  0  0  0  0  0  0  0  0
   38.1358   11.7252  -14.1116 C   0  0  0  0  0  0  0  0  0  0  0  0
   37.0701   12.5734  -13.3967 C   0  0  0  0  0  0  0  0  0  0  0  0
   39.4127   12.0410  -16.2910 C   0  0  0  0  0  0  0  0  0  0  0  0
   40.7334   12.1789  -16.6315 N   0  0  0  0  0  0  0  0  0  0  0  0
   41.1942   11.8316  -17.8357 C   0  0  0  0  0  0  0  0  0  0  0  0
   40.3907   11.3299  -18.7748 N   0  0  0  0  0  0  0  0  0  0  0  0
   39.0868   11.1649  -18.5155 C   0  0  0  0  0  0  0  0  0  0  0  0
   38.1820   10.6318  -19.4866 N   0  0  0  0  0  0  0  0  0  0  0  0
   38.5978   11.5302  -17.2447 C   0  0  0  0  0  0  0  0  0  0  0  0
   37.9459   11.2038  -20.3444 H   0  0  0  0  0  0  0  0  0  0  0  0
   37.7345    9.6992  -19.3982 H   0  0  0  0  0  0  0  0  0  0  0  0
   37.1958   11.2934  -16.9977 C   0  0  0  0  0  0  0  0  0  0  0  0
   36.0618   11.1297  -16.8132 N   0  0  0  0  0  0  0  0  0  0  0  0
   34.6369   14.1826  -13.0435 C   0  0  0  0  0  0  0  0  0  0  0  0
   33.2329   14.5202  -12.6387 C   0  0  0  0  0  0  0  0  0  0  0  0
   32.2504   13.7872  -13.2525 O   0  0  0  0  0  0  0  0  0  0  0  0
   31.5534   13.4486  -12.6153 H   0  0  0  0  0  0  0  0  0  0  0  0
  6  7  1  0  0  0
  7  8  2  0  0  0
  8  9  1  0  0  0
  9  1  1  0  0  0
  1  2  2  0  0  0
  2  3  1  0  0  0
  3 31  1  0  0  0
 31 32  1  0  0  0
 32 33  1  0  0  0
  3  4  1  0  0  0
  4 14  1  0  0  0
 14 15  1  0  0  0
 15 16  1  0  0  0
 16 17  1  0  0  0
 17 20  1  0  0  0
 20 21  2  0  0  0
 21 22  1  0  0  0
 22 23  2  0  0  0
 23 24  1  0  0  0
 24 25  1  0  0  0
 24 26  2  0  0  0
 26 29  1  0  0  0
 29 30  3  0  0  0
 17 18  1  0  0  0
 18 19  1  0  0  0
  4  5  2  0  0  0
  9 10  2  0  0  0
 10 11  1  0  0  0
 11 12  2  0  0  0
 12 13  1  0  0  0
 12  7  1  0  0  0
  5  1  1  0  0  0
 19 14  1  0  0  0
 26 20  1  0  0  0
 33 34  1  0  0  0
 25 27  1  0  0  0
 25 28  1  0  0  0
M  END
> <minimizedAffinity>
-8.30913

> <CNNscore>
0.4739550650

> <CNNaffinity>
6.8917083740

> <CNN_VS>
3.2663600445

> <CNNaffinity_variance>
0.2187794894

$$$$
[H]OC([H])([H])C([H])([H])n1c(C2([H])C([H])([H])C([H])([H])N(c3nc([H])nc(N([H])[H])c3C#N)C([H])([H])C2([H])[H])nc(-c2c([H])c([H])c(F)c(C([H])([H])[H])c2[H])c1[H]


 34 37  0  0  0  0  0  0  0  0999 V2000
   35.6164   15.2797   -9.6922 C   0  0  0  0  0  0  0  0  0  0  0  0
   34.4162   15.6415  -10.2573 C   0  0  0  0  0  0  0  0  0  0  0  0
   34.3799   15.0802  -11.5074 N   0  0  0  0  0  0  0  0  0  0  0  0
   35.5097   14.3983  -11.7112 C   0  0  0  0  0  0  0  0  0  0  0  0
   36.2451   14.5335  -10.5958 N   0  0  0  0  0  0  0  0  0  0  0  0
   35.8219   14.6115   -4.7403 C   0  0  0  0  0  0  0  0  0  0  0  0
   36.1813   15.3597   -5.9699 C   0  0  0  0  0  0  0  0  0  0  0  0
   35.7319   14.9667   -7.2311 C   0  0  0  0  0  0  0  0  0  0  0  0
   36.0681   15.6625   -8.3607 C   0  0  0  0  0  0  0  0  0  0  0  0
   36.8694   16.7770   -8.2470 C   0  0  0  0  0  0  0  0  0  0  0  0
   37.3291   17.1899   -7.0124 C   0  0  0  0  0  0  0  0  0  0  0  0
   36.9828   16.4776   -5.8723 C   0  0  0  0  0  0  0  0  0  0  0  0
   37.4611   16.9233   -4.6705 F   0  0  0  0  0  0  0  0  0  0  0  0
   35.8991   13.6483  -12.9030 C   0  0  0  0  0  0  0  0  0  0  0  0
   37.2963   13.0738  -12.7695 C   0  0  0  0  0  0  0  0  0  0  0  0
   37.3706   11.9943  -13.8203 C   0  0  0  0  0  0  0  0  0  0  0  0
   37.2227   12.6209  -15.1540 N   0  0  0  0  0  0  0  0  0  0  0  0
   36.1924   13.5811  -15.3485 C   0  0  0  0  0  0  0  0  0  0  0  0
   35.9648   14.5117  -14.1451 C   0  0  0  0  0  0  0  0  0  0  0  0
   38.1882   12.1899  -16.0980 C   0  0  0  0  0  0  0  0  0  0  0  0
   37.8763   11.2279  -17.0234 N   0  0  0  0  0  0  0  0  0  0  0  0
   38.7734   10.7725  -17.9013 C   0  0  0  0  0  0  0  0  0  0  0  0
   40.0257   11.2314  -17.9246 N   0  0  0  0  0  0  0  0  0  0  0  0
   40.4050   12.1733  -17.0508 C   0  0  0  0  0  0  0  0  0  0  0  0
   41.7349   12.6994  -17.0325 N   0  0  0  0  0  0  0  0  0  0  0  0
   39.4595   12.6563  -16.1232 C   0  0  0  0  0  0  0  0  0  0  0  0
   42.5335   12.0796  -16.7213 H   0  0  0  0  0  0  0  0  0  0  0  0
   41.9679   13.6719  -17.3118 H   0  0  0  0  0  0  0  0  0  0  0  0
   39.9024   13.7011  -15.2315 C   0  0  0  0  0  0  0  0  0  0  0  0
   40.2834   14.5240  -14.5073 N   0  0  0  0  0  0  0  0  0  0  0  0
   33.2554   15.2530  -12.3782 C   0  0  0  0  0  0  0  0  0  0  0  0
   31.9937   14.9451  -11.6284 C   0  0  0  0  0  0  0  0  0  0  0  0
   31.0405   14.2589  -12.3355 O   0  0  0  0  0  0  0  0  0  0  0  0
   30.6425   13.4939  -11.8228 H   0  0  0  0  0  0  0  0  0  0  0  0
  6  7  1  0  0  0
  7  8  2  0  0  0
  8  9  1  0  0  0
  9  1  1  0  0  0
  1  2  2  0  0  0
  2  3  1  0  0  0
  3 31  1  0  0  0
 31 32  1  0  0  0
 32 33  1  0  0  0
  3  4  1  0  0  0
  4 14  1  0  0  0
 14 15  1  0  0  0
 15 16  1  0  0  0
 16 17  1  0  0  0
 17 20  1  0  0  0
 20 21  2  0  0  0
 21 22  1  0  0  0
 22 23  2  0  0  0
 23 24  1  0  0  0
 24 25  1  0  0  0
 24 26  2  0  0  0
 26 29  1  0  0  0
 29 30  3  0  0  0
 17 18  1  0  0  0
 18 19  1  0  0  0
  4  5  2  0  0  0
  9 10  2  0  0  0
 10 11  1  0  0  0
 11 12  2  0  0  0
 12 13  1  0  0  0
 12  7  1  0  0  0
  5  1  1  0  0  0
 19 14  1  0  0  0
 26 20  1  0  0  0
 33 34  1  0  0  0
 25 27  1  0  0  0
 25 28  1  0  0  0
M  END
> <minimizedAffinity>
-7.78794

> <CNNscore>
0.3119571209

> <CNNaffinity>
6.8452024460

> <CNN_VS>
2.1354095936

> <CNNaffinity_variance>
0.2116131783

$$$$
[H]OC([H])([H])C([H])([H])n1c(C2([H])C([H])([H])C([H])([H])N(c3nc([H])nc(N([H])[H])c3C#N)C([H])([H])C2([H])[H])nc(-c2c([H])c([H])c(F)c(C([H])([H])[H])c2[H])c1[H]


 34 37  0  0  0  0  0  0  0  0999 V2000
   35.6500   15.8767   -9.3617 C   0  0  0  0  0  0  0  0  0  0  0  0
   34.3459   16.0654   -9.7546 C   0  0  0  0  0  0  0  0  0  0  0  0
   34.1919   15.4118  -10.9496 N   0  0  0  0  0  0  0  0  0  0  0  0
   35.3512   14.8408  -11.2858 C   0  0  0  0  0  0  0  0  0  0  0  0
   36.2217   15.1363  -10.3070 N   0  0  0  0  0  0  0  0  0  0  0  0
   37.7799   19.5496   -6.7192 C   0  0  0  0  0  0  0  0  0  0  0  0
   37.2740   18.1607   -6.8465 C   0  0  0  0  0  0  0  0  0  0  0  0
   36.7094   17.6865   -8.0310 C   0  0  0  0  0  0  0  0  0  0  0  0
   36.2449   16.4037   -8.1403 C   0  0  0  0  0  0  0  0  0  0  0  0
   36.3383   15.5629   -7.0534 C   0  0  0  0  0  0  0  0  0  0  0  0
   36.8922   16.0041   -5.8682 C   0  0  0  0  0  0  0  0  0  0  0  0
   37.3606   17.3070   -5.7670 C   0  0  0  0  0  0  0  0  0  0  0  0
   37.9015   17.7007   -4.5737 F   0  0  0  0  0  0  0  0  0  0  0  0
   35.6459   14.0497  -12.4782 C   0  0  0  0  0  0  0  0  0  0  0  0
   36.9588   13.3028  -12.3424 C   0  0  0  0  0  0  0  0  0  0  0  0
   36.8989   12.2245  -13.3953 C   0  0  0  0  0  0  0  0  0  0  0  0
   36.8352   12.8671  -14.7280 N   0  0  0  0  0  0  0  0  0  0  0  0
   35.9352   13.9502  -14.9231 C   0  0  0  0  0  0  0  0  0  0  0  0
   35.8237   14.9000  -13.7183 C   0  0  0  0  0  0  0  0  0  0  0  0
   37.7410   12.3191  -15.6705 C   0  0  0  0  0  0  0  0  0  0  0  0
   39.0818   12.5918  -15.5877 N   0  0  0  0  0  0  0  0  0  0  0  0
   39.9563   12.1229  -16.4812 C   0  0  0  0  0  0  0  0  0  0  0  0
   39.5701   11.3611  -17.5057 N   0  0  0  0  0  0  0  0  0  0  0  0
   38.2751   11.0510  -17.6526 C   0  0  0  0  0  0  0  0  0  0  0  0
   37.8078   10.2383  -18.7328 N   0  0  0  0  0  0  0  0  0  0  0  0
   37.3498   11.5443  -16.7102 C   0  0  0  0  0  0  0  0  0  0  0  0
   37.8350   10.6205  -19.7187 H   0  0  0  0  0  0  0  0  0  0  0  0
   37.4362    9.2773  -18.6048 H   0  0  0  0  0  0  0  0  0  0  0  0
   35.9733   11.1476  -16.8854 C   0  0  0  0  0  0  0  0  0  0  0  0
   34.8615   10.8544  -17.0429 N   0  0  0  0  0  0  0  0  0  0  0  0
   32.9392   15.3982  -11.6448 C   0  0  0  0  0  0  0  0  0  0  0  0
   31.8214   15.5643  -10.6589 C   0  0  0  0  0  0  0  0  0  0  0  0
   31.2503   14.4001  -10.2140 O   0  0  0  0  0  0  0  0  0  0  0  0
   31.1204   14.3786   -9.2194 H   0  0  0  0  0  0  0  0  0  0  0  0
  6  7  1  0  0  0
  7  8  2  0  0  0
  8  9  1  0  0  0
  9  1  1  0  0  0
  1  2  2  0  0  0
  2  3  1  0  0  0
  3 31  1  0  0  0
 31 32  1  0  0  0
 32 33  1  0  0  0
  3  4  1  0  0  0
  4 14  1  0  0  0
 14 15  1  0  0  0
 15 16  1  0  0  0
 16 17  1  0  0  0
 17 20  1  0  0  0
 20 21  2  0  0  0
 21 22  1  0  0  0
 22 23  2  0  0  0
 23 24  1  0  0  0
 24 25  1  0  0  0
 24 26  2  0  0  0
 26 29  1  0  0  0
 29 30  3  0  0  0
 17 18  1  0  0  0
 18 19  1  0  0  0
  4  5  2  0  0  0
  9 10  2  0  0  0
 10 11  1  0  0  0
 11 12  2  0  0  0
 12 13  1  0  0  0
 12  7  1  0  0  0
  5  1  1  0  0  0
 19 14  1  0  0  0
 26 20  1  0  0  0
 33 34  1  0  0  0
 25 27  1  0  0  0
 25 28  1  0  0  0
M  END
> <minimizedAffinity>
-7.25037

> <CNNscore>
0.2650934458

> <CNNaffinity>
6.8449759483

> <CNN_VS>
1.8145582676

> <CNNaffinity_variance>
0.5738401413

$$$$
[H]OC([H])([H])C([H])([H])n1c(C2([H])C([H])([H])C([H])([H])N(c3nc([H])nc(N([H])[H])c3C#N)C([H])([H])C2([H])[H])nc(-c2c([H])c([H])c(F)c(C([H])([H])[H])c2[H])c1[H]


 34 37  0  0  0  0  0  0  0  0999 V2000
   34.7294   13.7156  -13.6187 C   0  0  0  0  0  0  0  0  0  0  0  0
   33.4125   14.0463  -13.4016 C   0  0  0  0  0  0  0  0  0  0  0  0
   33.3901   14.9151  -12.3415 N   0  0  0  0  0  0  0  0  0  0  0  0
   34.6401   15.1162  -11.9172 C   0  0  0  0  0  0  0  0  0  0  0  0
   35.4362   14.3779  -12.7074 N   0  0  0  0  0  0  0  0  0  0  0  0
   38.3872   11.7072  -16.3747 C   0  0  0  0  0  0  0  0  0  0  0  0
   36.9577   11.8297  -15.9974 C   0  0  0  0  0  0  0  0  0  0  0  0
   36.5303   12.7051  -14.9986 C   0  0  0  0  0  0  0  0  0  0  0  0
   35.2094   12.8121  -14.6563 C   0  0  0  0  0  0  0  0  0  0  0  0
   34.2820   12.0358  -15.3153 C   0  0  0  0  0  0  0  0  0  0  0  0
   34.6752   11.1606  -16.3080 C   0  0  0  0  0  0  0  0  0  0  0  0
   36.0173   11.0590  -16.6481 C   0  0  0  0  0  0  0  0  0  0  0  0
   36.3609   10.1789  -17.6375 F   0  0  0  0  0  0  0  0  0  0  0  0
   35.0841   15.9619  -10.8117 C   0  0  0  0  0  0  0  0  0  0  0  0
   36.5695   15.8038  -10.5494 C   0  0  0  0  0  0  0  0  0  0  0  0
   36.9488   17.0184   -9.7396 C   0  0  0  0  0  0  0  0  0  0  0  0
   36.2160   16.9776   -8.4533 N   0  0  0  0  0  0  0  0  0  0  0  0
   34.8276   16.6715   -8.4661 C   0  0  0  0  0  0  0  0  0  0  0  0
   34.4294   15.6001   -9.4953 C   0  0  0  0  0  0  0  0  0  0  0  0
   37.0328   17.2271   -7.3221 C   0  0  0  0  0  0  0  0  0  0  0  0
   37.3130   18.5120   -6.9353 N   0  0  0  0  0  0  0  0  0  0  0  0
   38.1096   18.7815   -5.8981 C   0  0  0  0  0  0  0  0  0  0  0  0
   38.6771   17.8109   -5.1804 N   0  0  0  0  0  0  0  0  0  0  0  0
   38.4495   16.5294   -5.4977 C   0  0  0  0  0  0  0  0  0  0  0  0
   39.0330   15.4507   -4.7617 N   0  0  0  0  0  0  0  0  0  0  0  0
   37.6083   16.2421   -6.5920 C   0  0  0  0  0  0  0  0  0  0  0  0
   40.0763   15.2871   -4.8210 H   0  0  0  0  0  0  0  0  0  0  0  0
   38.4834   14.8063   -4.1613 H   0  0  0  0  0  0  0  0  0  0  0  0
   37.3583   14.8478   -6.8681 C   0  0  0  0  0  0  0  0  0  0  0  0
   37.1539   13.7336   -7.1201 N   0  0  0  0  0  0  0  0  0  0  0  0
   32.1647   15.4695  -11.8478 C   0  0  0  0  0  0  0  0  0  0  0  0
   31.1892   14.3619  -11.5817 C   0  0  0  0  0  0  0  0  0  0  0  0
   30.1576   14.2572  -12.4784 O   0  0  0  0  0  0  0  0  0  0  0  0
   29.9930   13.3157  -12.7834 H   0  0  0  0  0  0  0  0  0  0  0  0
  6  7  1  0  0  0
  7  8  2  0  0  0
  8  9  1  0  0  0
  9  1  1  0  0  0
  1  2  2  0  0  0
  2  3  1  0  0  0
  3 31  1  0  0  0
 31 32  1  0  0  0
 32 33  1  0  0  0
  3  4  1  0  0  0
  4 14  1  0  0  0
 14 15  1  0  0  0
 15 16  1  0  0  0
 16 17  1  0  0  0
 17 20  1  0  0  0
 20 21  2  0  0  0
 21 22  1  0  0  0
 22 23  2  0  0  0
 23 24  1  0  0  0
 24 25  1  0  0  0
 24 26  2  0  0  0
 26 29  1  0  0  0
 29 30  3  0  0  0
 17 18  1  0  0  0
 18 19  1  0  0  0
  4  5  2  0  0  0
  9 10  2  0  0  0
 10 11  1  0  0  0
 11 12  2  0  0  0
 12 13  1  0  0  0
 12  7  1  0  0  0
  5  1  1  0  0  0
 19 14  1  0  0  0
 26 20  1  0  0  0
 33 34  1  0  0  0
 25 27  1  0  0  0
 25 28  1  0  0  0
M  END
> <minimizedAffinity>
-8.44583

> <CNNscore>
0.1556745917

> <CNNaffinity>
5.9372391701

> <CNN_VS>
0.9242773056

> <CNNaffinity_variance>
0.2675592601

$$$$
[H]OC([H])([H])C([H])([H])n1c(C2([H])C([H])([H])C([H])([H])N(c3nc([H])nc(N([H])[H])c3C#N)C([H])([H])C2([H])[H])nc(-c2c([H])c([H])c(F)c(C([H])([H])[H])c2[H])c1[H]


 34 37  0  0  0  0  0  0  0  0999 V2000
   36.0054   16.1368   -9.6413 C   0  0  0  0  0  0  0  0  0  0  0  0
   34.8038   16.0294  -10.3010 C   0  0  0  0  0  0  0  0  0  0  0  0
   35.0252   15.2498  -11.4065 N   0  0  0  0  0  0  0  0  0  0  0  0
   36.3102   14.8878  -11.4334 C   0  0  0  0  0  0  0  0  0  0  0  0
   36.8857   15.4378  -10.3520 N   0  0  0  0  0  0  0  0  0  0  0  0
   36.7251   20.4010   -7.1297 C   0  0  0  0  0  0  0  0  0  0  0  0
   36.5723   18.9260   -7.1757 C   0  0  0  0  0  0  0  0  0  0  0  0
   36.3640   18.2425   -8.3741 C   0  0  0  0  0  0  0  0  0  0  0  0
   36.2239   16.8814   -8.4079 C   0  0  0  0  0  0  0  0  0  0  0  0
   36.2906   16.1719   -7.2293 C   0  0  0  0  0  0  0  0  0  0  0  0
   36.4959   16.8210   -6.0282 C   0  0  0  0  0  0  0  0  0  0  0  0
   36.6367   18.2018   -6.0038 C   0  0  0  0  0  0  0  0  0  0  0  0
   36.8385   18.8023   -4.7913 F   0  0  0  0  0  0  0  0  0  0  0  0
   36.9860   14.0621  -12.4314 C   0  0  0  0  0  0  0  0  0  0  0  0
   36.7914   14.6083  -13.8327 C   0  0  0  0  0  0  0  0  0  0  0  0
   37.8752   13.9560  -14.6541 C   0  0  0  0  0  0  0  0  0  0  0  0
   37.6476   12.4927  -14.6617 N   0  0  0  0  0  0  0  0  0  0  0  0
   37.3467   11.8407  -13.4346 C   0  0  0  0  0  0  0  0  0  0  0  0
   36.4365   12.6528  -12.4976 C   0  0  0  0  0  0  0  0  0  0  0  0
   37.7298   11.9082  -15.9503 C   0  0  0  0  0  0  0  0  0  0  0  0
   36.6169   11.3710  -16.5436 N   0  0  0  0  0  0  0  0  0  0  0  0
   36.6679   10.7793  -17.7396 C   0  0  0  0  0  0  0  0  0  0  0  0
   37.8090   10.6792  -18.4231 N   0  0  0  0  0  0  0  0  0  0  0  0
   38.9390   11.1816  -17.9079 C   0  0  0  0  0  0  0  0  0  0  0  0
   40.1888   11.1010  -18.5987 N   0  0  0  0  0  0  0  0  0  0  0  0
   38.8877   11.8075  -16.6457 C   0  0  0  0  0  0  0  0  0  0  0  0
   40.6547   10.1591  -18.7194 H   0  0  0  0  0  0  0  0  0  0  0  0
   40.6756   11.9274  -18.9962 H   0  0  0  0  0  0  0  0  0  0  0  0
   40.1210   12.3716  -16.1521 C   0  0  0  0  0  0  0  0  0  0  0  0
   41.0966   12.8488  -15.7430 N   0  0  0  0  0  0  0  0  0  0  0  0
   33.9728   14.9269  -12.3236 C   0  0  0  0  0  0  0  0  0  0  0  0
   32.6501   15.2591  -11.6997 C   0  0  0  0  0  0  0  0  0  0  0  0
   31.7186   14.2536  -11.7228 O   0  0  0  0  0  0  0  0  0  0  0  0
   31.2529   14.1260  -10.8434 H   0  0  0  0  0  0  0  0  0  0  0  0
  6  7  1  0  0  0
  7  8  2  0  0  0
  8  9  1  0  0  0
  9  1  1  0  0  0
  1  2  2  0  0  0
  2  3  1  0  0  0
  3 31  1  0  0  0
 31 32  1  0  0  0
 32 33  1  0  0  0
  3  4  1  0  0  0
  4 14  1  0  0  0
 14 15  1  0  0  0
 15 16  1  0  0  0
 16 17  1  0  0  0
 17 20  1  0  0  0
 20 21  2  0  0  0
 21 22  1  0  0  0
 22 23  2  0  0  0
 23 24  1  0  0  0
 24 25  1  0  0  0
 24 26  2  0  0  0
 26 29  1  0  0  0
 29 30  3  0  0  0
 17 18  1  0  0  0
 18 19  1  0  0  0
  4  5  2  0  0  0
  9 10  2  0  0  0
 10 11  1  0  0  0
 11 12  2  0  0  0
 12 13  1  0  0  0
 12  7  1  0  0  0
  5  1  1  0  0  0
 19 14  1  0  0  0
 26 20  1  0  0  0
 33 34  1  0  0  0
 25 27  1  0  0  0
 25 28  1  0  0  0
M  END
> <minimizedAffinity>
-7.67224

> <CNNscore>
0.1528595090

> <CNNaffinity>
6.6174812317

> <CNN_VS>
1.0115449429

> <CNNaffinity_variance>
0.3113559783

$$$$
[H]OC([H])([H])C([H])([H])n1c(C2([H])C([H])([H])C([H])([H])N(c3nc([H])nc(N([H])[H])c3C#N)C([H])([H])C2([H])[H])nc(-c2c([H])c([H])c(F)c(C([H])([H])[H])c2[H])c1[H]


 34 37  0  0  0  0  0  0  0  0999 V2000
   40.6900   12.8915  -15.4146 C   0  0  0  0  0  0  0  0  0  0  0  0
   41.7795   12.7504  -16.2413 C   0  0  0  0  0  0  0  0  0  0  0  0
   42.8513   13.2959  -15.5836 N   0  0  0  0  0  0  0  0  0  0  0  0
   42.4455   13.7570  -14.3980 C   0  0  0  0  0  0  0  0  0  0  0  0
   41.1299   13.5005  -14.3172 N   0  0  0  0  0  0  0  0  0  0  0  0
   37.3942   10.4386  -18.2660 C   0  0  0  0  0  0  0  0  0  0  0  0
   37.7296   11.2690  -17.0832 C   0  0  0  0  0  0  0  0  0  0  0  0
   39.0361   11.6797  -16.8162 C   0  0  0  0  0  0  0  0  0  0  0  0
   39.3373   12.4456  -15.7226 C   0  0  0  0  0  0  0  0  0  0  0  0
   38.3245   12.8186  -14.8669 C   0  0  0  0  0  0  0  0  0  0  0  0
   37.0222   12.4272  -15.1054 C   0  0  0  0  0  0  0  0  0  0  0  0
   36.7265   11.6503  -16.2172 C   0  0  0  0  0  0  0  0  0  0  0  0
   35.4226   11.2860  -16.4136 F   0  0  0  0  0  0  0  0  0  0  0  0
   43.2493   14.4187  -13.3730 C   0  0  0  0  0  0  0  0  0  0  0  0
   43.8309   13.4215  -12.3894 C   0  0  0  0  0  0  0  0  0  0  0  0
   44.9548   14.1625  -11.7092 C   0  0  0  0  0  0  0  0  0  0  0  0
   44.3843   15.3095  -10.9661 N   0  0  0  0  0  0  0  0  0  0  0  0
   43.4235   16.1341  -11.6128 C   0  0  0  0  0  0  0  0  0  0  0  0
   42.4404   15.3667  -12.5131 C   0  0  0  0  0  0  0  0  0  0  0  0
   44.8643   15.4252   -9.6375 C   0  0  0  0  0  0  0  0  0  0  0  0
   44.3327   14.6553   -8.6355 N   0  0  0  0  0  0  0  0  0  0  0  0
   44.7355   14.7670   -7.3673 C   0  0  0  0  0  0  0  0  0  0  0  0
   45.6803   15.6368   -7.0067 N   0  0  0  0  0  0  0  0  0  0  0  0
   46.2476   16.4234   -7.9309 C   0  0  0  0  0  0  0  0  0  0  0  0
   47.2644   17.3727   -7.5981 N   0  0  0  0  0  0  0  0  0  0  0  0
   45.8246   16.3071   -9.2708 C   0  0  0  0  0  0  0  0  0  0  0  0
   47.0118   18.2220   -7.0206 H   0  0  0  0  0  0  0  0  0  0  0  0
   48.2545   17.2762   -7.8953 H   0  0  0  0  0  0  0  0  0  0  0  0
   46.4952   17.1440  -10.2365 C   0  0  0  0  0  0  0  0  0  0  0  0
   47.0526   17.7929  -11.0207 N   0  0  0  0  0  0  0  0  0  0  0  0
   44.1617   13.3122  -16.1626 C   0  0  0  0  0  0  0  0  0  0  0  0
   44.5506   11.9172  -16.5524 C   0  0  0  0  0  0  0  0  0  0  0  0
   45.2568   11.8075  -17.7223 O   0  0  0  0  0  0  0  0  0  0  0  0
   46.0551   11.2045  -17.6469 H   0  0  0  0  0  0  0  0  0  0  0  0
  6  7  1  0  0  0
  7  8  2  0  0  0
  8  9  1  0  0  0
  9  1  1  0  0  0
  1  2  2  0  0  0
  2  3  1  0  0  0
  3 31  1  0  0  0
 31 32  1  0  0  0
 32 33  1  0  0  0
  3  4  1  0  0  0
  4 14  1  0  0  0
 14 15  1  0  0  0
 15 16  1  0  0  0
 16 17  1  0  0  0
 17 20  1  0  0  0
 20 21  2  0  0  0
 21 22  1  0  0  0
 22 23  2  0  0  0
 23 24  1  0  0  0
 24 25  1  0  0  0
 24 26  2  0  0  0
 26 29  1  0  0  0
 29 30  3  0  0  0
 17 18  1  0  0  0
 18 19  1  0  0  0
  4  5  2  0  0  0
  9 10  2  0  0  0
 10 11  1  0  0  0
 11 12  2  0  0  0
 12 13  1  0  0  0
 12  7  1  0  0  0
  5  1  1  0  0  0
 19 14  1  0  0  0
 26 20  1  0  0  0
 33 34  1  0  0  0
 25 27  1  0  0  0
 25 28  1  0  0  0
M  END
> <minimizedAffinity>
-7.67512

> <CNNscore>
0.1492695212

> <CNNaffinity>
5.8660745621

> <CNN_VS>
0.8756261468

> <CNNaffinity_variance>
0.1235228553

$$$$
[H]OC([H])([H])C([H])([H])n1c(C2([H])C([H])([H])C([H])([H])N(c3nc([H])nc(N([H])[H])c3C#N)C([H])([H])C2([H])[H])nc(-c2c([H])c([H])c(F)c(C([H])([H])[H])c2[H])c1[H]


 34 37  0  0  0  0  0  0  0  0999 V2000
   40.9132   12.9664  -15.3408 C   0  0  0  0  0  0  0  0  0  0  0  0
   41.9542   12.7730  -16.2181 C   0  0  0  0  0  0  0  0  0  0  0  0
   43.0732   13.3039  -15.6308 N   0  0  0  0  0  0  0  0  0  0  0  0
   42.7422   13.8064  -14.4388 C   0  0  0  0  0  0  0  0  0  0  0  0
   41.4260   13.5900  -14.2841 N   0  0  0  0  0  0  0  0  0  0  0  0
   37.3993   10.5831  -17.9832 C   0  0  0  0  0  0  0  0  0  0  0  0
   37.8229   11.4094  -16.8262 C   0  0  0  0  0  0  0  0  0  0  0  0
   39.1521   11.7896  -16.6377 C   0  0  0  0  0  0  0  0  0  0  0  0
   39.5347   12.5520  -15.5674 C   0  0  0  0  0  0  0  0  0  0  0  0
   38.5827   12.9523  -14.6560 C   0  0  0  0  0  0  0  0  0  0  0  0
   37.2598   12.5914  -14.8163 C   0  0  0  0  0  0  0  0  0  0  0  0
   36.8813   11.8179  -15.9051 C   0  0  0  0  0  0  0  0  0  0  0  0
   35.5599   11.4843  -16.0235 F   0  0  0  0  0  0  0  0  0  0  0  0
   43.6159   14.4705  -13.4743 C   0  0  0  0  0  0  0  0  0  0  0  0
   44.9151   13.7118  -13.2830 C   0  0  0  0  0  0  0  0  0  0  0  0
   45.8544   14.7097  -12.6530 C   0  0  0  0  0  0  0  0  0  0  0  0
   45.3139   15.0990  -11.3303 N   0  0  0  0  0  0  0  0  0  0  0  0
   43.9331   15.4203  -11.2230 C   0  0  0  0  0  0  0  0  0  0  0  0
   43.0137   14.5403  -12.0869 C   0  0  0  0  0  0  0  0  0  0  0  0
   46.2750   15.0691  -10.2890 C   0  0  0  0  0  0  0  0  0  0  0  0
   46.9587   16.2047   -9.9395 N   0  0  0  0  0  0  0  0  0  0  0  0
   47.8972   16.2021   -8.9897 C   0  0  0  0  0  0  0  0  0  0  0  0
   48.2204   15.0900   -8.3278 N   0  0  0  0  0  0  0  0  0  0  0  0
   47.5945   13.9405   -8.6134 C   0  0  0  0  0  0  0  0  0  0  0  0
   47.9027   12.7201   -7.9342 N   0  0  0  0  0  0  0  0  0  0  0  0
   46.6027   13.9407   -9.6154 C   0  0  0  0  0  0  0  0  0  0  0  0
   48.8401   12.2581   -8.0978 H   0  0  0  0  0  0  0  0  0  0  0  0
   47.2490   12.2514   -7.2778 H   0  0  0  0  0  0  0  0  0  0  0  0
   45.9262   12.6890   -9.8571 C   0  0  0  0  0  0  0  0  0  0  0  0
   45.3852   11.6872  -10.0819 N   0  0  0  0  0  0  0  0  0  0  0  0
   44.3519   13.2676  -16.2761 C   0  0  0  0  0  0  0  0  0  0  0  0
   44.6622   11.8589  -16.6864 C   0  0  0  0  0  0  0  0  0  0  0  0
   45.3086   11.7239  -17.8878 O   0  0  0  0  0  0  0  0  0  0  0  0
   46.0828   11.0871  -17.8507 H   0  0  0  0  0  0  0  0  0  0  0  0
  6  7  1  0  0  0
  7  8  2  0  0  0
  8  9  1  0  0  0
  9  1  1  0  0  0
  1  2  2  0  0  0
  2  3  1  0  0  0
  3 31  1  0  0  0
 31 32  1  0  0  0
 32 33  1  0  0  0
  3  4  1  0  0  0
  4 14  1  0  0  0
 14 15  1  0  0  0
 15 16  1  0  0  0
 16 17  1  0  0  0
 17 20  1  0  0  0
 20 21  2  0  0  0
 21 22  1  0  0  0
 22 23  2  0  0  0
 23 24  1  0  0  0
 24 25  1  0  0  0
 24 26  2  0  0  0
 26 29  1  0  0  0
 29 30  3  0  0  0
 17 18  1  0  0  0
 18 19  1  0  0  0
  4  5  2  0  0  0
  9 10  2  0  0  0
 10 11  1  0  0  0
 11 12  2  0  0  0
 12 13  1  0  0  0
 12  7  1  0  0  0
  5  1  1  0  0  0
 19 14  1  0  0  0
 26 20  1  0  0  0
 33 34  1  0  0  0
 25 27  1  0  0  0
 25 28  1  0  0  0
M  END
> <minimizedAffinity>
-7.42032

> <CNNscore>
0.1479720026

> <CNNaffinity>
5.9009165764

> <CNN_VS>
0.8731704354

> <CNNaffinity_variance>
0.0913409218

$$$$
[H]OC([H])([H])C([H])([H])n1c(C2([H])C([H])([H])C([H])([H])N(c3nc([H])nc(N([H])[H])c3C#N)C([H])([H])C2([H])[H])nc(-c2c([H])c([H])c(F)c(C([H])([H])[H])c2[H])c1[H]


 34 37  0  0  0  0  0  0  0  0999 V2000
   40.6511   12.7201  -15.7160 C   0  0  0  0  0  0  0  0  0  0  0  0
   41.8274   12.5424  -16.4055 C   0  0  0  0  0  0  0  0  0  0  0  0
   42.8079   13.1794  -15.6902 N   0  0  0  0  0  0  0  0  0  0  0  0
   42.2645   13.7301  -14.6019 C   0  0  0  0  0  0  0  0  0  0  0  0
   40.9543   13.4382  -14.6385 N   0  0  0  0  0  0  0  0  0  0  0  0
   35.6942   12.3268  -15.1832 C   0  0  0  0  0  0  0  0  0  0  0  0
   36.9589   11.9997  -15.8864 C   0  0  0  0  0  0  0  0  0  0  0  0
   38.1886   12.5106  -15.4699 C   0  0  0  0  0  0  0  0  0  0  0  0
   39.3509   12.2040  -16.1243 C   0  0  0  0  0  0  0  0  0  0  0  0
   39.3027   11.3708  -17.2199 C   0  0  0  0  0  0  0  0  0  0  0  0
   38.1005   10.8500  -17.6553 C   0  0  0  0  0  0  0  0  0  0  0  0
   36.9268   11.1668  -16.9851 C   0  0  0  0  0  0  0  0  0  0  0  0
   35.7591   10.6279  -17.4517 F   0  0  0  0  0  0  0  0  0  0  0  0
   42.9359   14.5064  -13.5621 C   0  0  0  0  0  0  0  0  0  0  0  0
   43.2223   13.6644  -12.3337 C   0  0  0  0  0  0  0  0  0  0  0  0
   44.2773   14.4327  -11.5777 C   0  0  0  0  0  0  0  0  0  0  0  0
   43.7067   15.7336  -11.1590 N   0  0  0  0  0  0  0  0  0  0  0  0
   42.9705   16.4950  -12.1076 C   0  0  0  0  0  0  0  0  0  0  0  0
   42.0901   15.6506  -13.0446 C   0  0  0  0  0  0  0  0  0  0  0  0
   43.9491   16.0529   -9.7995 C   0  0  0  0  0  0  0  0  0  0  0  0
   45.2248   16.2873   -9.3560 N   0  0  0  0  0  0  0  0  0  0  0  0
   45.4916   16.5527   -8.0749 C   0  0  0  0  0  0  0  0  0  0  0  0
   44.5270   16.6042   -7.1550 N   0  0  0  0  0  0  0  0  0  0  0  0
   43.2545   16.3866   -7.5129 C   0  0  0  0  0  0  0  0  0  0  0  0
   42.1827   16.4297   -6.5669 N   0  0  0  0  0  0  0  0  0  0  0  0
   42.9701   16.1068   -8.8651 C   0  0  0  0  0  0  0  0  0  0  0  0
   42.1113   15.6749   -5.8294 H   0  0  0  0  0  0  0  0  0  0  0  0
   41.4564   17.1717   -6.5606 H   0  0  0  0  0  0  0  0  0  0  0  0
   41.5809   15.9228   -9.2100 C   0  0  0  0  0  0  0  0  0  0  0  0
   40.4609   15.7549   -9.4637 N   0  0  0  0  0  0  0  0  0  0  0  0
   44.1730   13.1877  -16.1252 C   0  0  0  0  0  0  0  0  0  0  0  0
   44.5404   11.8264  -16.6362 C   0  0  0  0  0  0  0  0  0  0  0  0
   45.3001   11.8107  -17.7773 O   0  0  0  0  0  0  0  0  0  0  0  0
   46.0760   11.1768  -17.7267 H   0  0  0  0  0  0  0  0  0  0  0  0
  6  7  1  0  0  0
  7  8  2  0  0  0
  8  9  1  0  0  0
  9  1  1  0  0  0
  1  2  2  0  0  0
  2  3  1  0  0  0
  3 31  1  0  0  0
 31 32  1  0  0  0
 32 33  1  0  0  0
  3  4  1  0  0  0
  4 14  1  0  0  0
 14 15  1  0  0  0
 15 16  1  0  0  0
 16 17  1  0  0  0
 17 20  1  0  0  0
 20 21  2  0  0  0
 21 22  1  0  0  0
 22 23  2  0  0  0
 23 24  1  0  0  0
 24 25  1  0  0  0
 24 26  2  0  0  0
 26 29  1  0  0  0
 29 30  3  0  0  0
 17 18  1  0  0  0
 18 19  1  0  0  0
  4  5  2  0  0  0
  9 10  2  0  0  0
 10 11  1  0  0  0
 11 12  2  0  0  0
 12 13  1  0  0  0
 12  7  1  0  0  0
  5  1  1  0  0  0
 19 14  1  0  0  0
 26 20  1  0  0  0
 33 34  1  0  0  0
 25 27  1  0  0  0
 25 28  1  0  0  0
M  END
> <minimizedAffinity>
-8.18555

> <CNNscore>
0.1383553892

> <CNNaffinity>
6.0626688004

> <CNN_VS>
0.8388028741

> <CNNaffinity_variance>
0.0880257860

$$$$
[H]OC([H])([H])C([H])([H])n1c(C2([H])C([H])([H])C([H])([H])N(c3nc([H])nc(N([H])[H])c3C#N)C([H])([H])C2([H])[H])nc(-c2c([H])c([H])c(F)c(C([H])([H])[H])c2[H])c1[H]


 34 37  0  0  0  0  0  0  0  0999 V2000
   40.3813   12.6244  -15.6037 C   0  0  0  0  0  0  0  0  0  0  0  0
   41.5089   12.6927  -16.3876 C   0  0  0  0  0  0  0  0  0  0  0  0
   42.5227   13.1515  -15.5872 N   0  0  0  0  0  0  0  0  0  0  0  0
   42.0458   13.3599  -14.3575 C   0  0  0  0  0  0  0  0  0  0  0  0
   40.7438   13.0331  -14.3912 N   0  0  0  0  0  0  0  0  0  0  0  0
   35.3948   12.5193  -15.2394 C   0  0  0  0  0  0  0  0  0  0  0  0
   36.6615   12.1188  -15.8997 C   0  0  0  0  0  0  0  0  0  0  0  0
   37.9039   12.5581  -15.4413 C   0  0  0  0  0  0  0  0  0  0  0  0
   39.0681   12.1841  -16.0563 C   0  0  0  0  0  0  0  0  0  0  0  0
   39.0087   11.3541  -17.1538 C   0  0  0  0  0  0  0  0  0  0  0  0
   37.7938   10.9034  -17.6301 C   0  0  0  0  0  0  0  0  0  0  0  0
   36.6184   11.2882  -16.9997 C   0  0  0  0  0  0  0  0  0  0  0  0
   35.4380   10.8174  -17.5062 F   0  0  0  0  0  0  0  0  0  0  0  0
   42.7713   13.8506  -13.1882 C   0  0  0  0  0  0  0  0  0  0  0  0
   42.8119   15.3663  -13.1517 C   0  0  0  0  0  0  0  0  0  0  0  0
   43.1641   15.7077  -11.7254 C   0  0  0  0  0  0  0  0  0  0  0  0
   44.5133   15.1732  -11.4299 N   0  0  0  0  0  0  0  0  0  0  0  0
   44.8242   13.8434  -11.8255 C   0  0  0  0  0  0  0  0  0  0  0  0
   44.2274   13.4354  -13.1832 C   0  0  0  0  0  0  0  0  0  0  0  0
   45.3701   16.1052  -10.7927 C   0  0  0  0  0  0  0  0  0  0  0  0
   45.4836   16.1260   -9.4267 N   0  0  0  0  0  0  0  0  0  0  0  0
   46.2520   17.0156   -8.7935 C   0  0  0  0  0  0  0  0  0  0  0  0
   46.9530   17.9348   -9.4591 N   0  0  0  0  0  0  0  0  0  0  0  0
   46.8935   17.9764  -10.7968 C   0  0  0  0  0  0  0  0  0  0  0  0
   47.6245   18.9412  -11.5587 N   0  0  0  0  0  0  0  0  0  0  0  0
   46.0833   17.0379  -11.4678 C   0  0  0  0  0  0  0  0  0  0  0  0
   47.3467   19.9606  -11.5078 H   0  0  0  0  0  0  0  0  0  0  0  0
   48.4268   18.6963  -12.1705 H   0  0  0  0  0  0  0  0  0  0  0  0
   46.0856   17.0944  -12.9099 C   0  0  0  0  0  0  0  0  0  0  0  0
   46.0811   17.1701  -14.0680 N   0  0  0  0  0  0  0  0  0  0  0  0
   43.8523   13.3371  -16.0876 C   0  0  0  0  0  0  0  0  0  0  0  0
   44.3312   12.0608  -16.7128 C   0  0  0  0  0  0  0  0  0  0  0  0
   45.4962   12.1563  -17.4290 O   0  0  0  0  0  0  0  0  0  0  0  0
   46.1474   11.4211  -17.2242 H   0  0  0  0  0  0  0  0  0  0  0  0
  6  7  1  0  0  0
  7  8  2  0  0  0
  8  9  1  0  0  0
  9  1  1  0  0  0
  1  2  2  0  0  0
  2  3  1  0  0  0
  3 31  1  0  0  0
 31 32  1  0  0  0
 32 33  1  0  0  0
  3  4  1  0  0  0
  4 14  1  0  0  0
 14 15  1  0  0  0
 15 16  1  0  0  0
 16 17  1  0  0  0
 17 20  1  0  0  0
 20 21  2  0  0  0
 21 22  1  0  0  0
 22 23  2  0  0  0
 23 24  1  0  0  0
 24 25  1  0  0  0
 24 26  2  0  0  0
 26 29  1  0  0  0
 29 30  3  0  0  0
 17 18  1  0  0  0
 18 19  1  0  0  0
  4  5  2  0  0  0
  9 10  2  0  0  0
 10 11  1  0  0  0
 11 12  2  0  0  0
 12 13  1  0  0  0
 12  7  1  0  0  0
  5  1  1  0  0  0
 19 14  1  0  0  0
 26 20  1  0  0  0
 33 34  1  0  0  0
 25 27  1  0  0  0
 25 28  1  0  0  0
M  END
> <minimizedAffinity>
-7.87142

> <CNNscore>
0.1138106883

> <CNNaffinity>
5.9650287628

> <CNN_VS>
0.6788840294

> <CNNaffinity_variance>
0.1355728209

$$$$
[H]Cl.[H]O[C@]([H])(C(=O)N([H])[C@]([H])(C(=O)OC([H])([H])n1c([H])c(F)c(=O)n([H])c1=O)C([H])([H])C([H])(C([H])([H])[H])C([H])([H])[H])[C@]([H])(N([H])[H])C([H])([H])c1c([H])c([H])c([H])c([H])c1[H]


 37 38  0  0  0  0  0  0  0  0999 V2000
   37.2351   14.7486  -12.2915 C   0  0  0  0  0  0  0  0  0  0  0  0
   37.1914   15.7773  -11.2448 N   0  0  0  0  0  0  0  0  0  0  0  0
   36.7813   15.4712   -9.9184 C   0  0  0  0  0  0  0  0  0  0  0  0
   36.4549   14.2899   -9.6647 O   0  0  0  0  0  0  0  0  0  0  0  0
   37.4605   16.7656  -11.4436 H   0  0  0  0  0  0  0  0  0  0  0  0
   36.7306   16.4956   -8.8461 C   0  0  0  0  0  0  0  0  0  0  0  0
   36.1348   15.9475   -7.7184 O   0  0  0  0  0  0  0  0  0  0  0  0
   36.8168   15.4836   -7.1786 H   0  0  0  0  0  0  0  0  0  0  0  0
   38.1209   16.9831   -8.4631 C   0  0  0  0  0  0  0  0  0  0  0  0
   38.7259   17.7543   -9.5026 N   0  0  0  0  0  0  0  0  0  0  0  0
   39.2505   18.5850   -9.1696 H   0  0  0  0  0  0  0  0  0  0  0  0
   39.1916   17.2293  -10.2471 H   0  0  0  0  0  0  0  0  0  0  0  0
   38.9371   15.7623   -8.1363 C   0  0  0  0  0  0  0  0  0  0  0  0
   40.3911   15.9638   -8.3034 C   0  0  0  0  0  0  0  0  0  0  0  0
   41.0162   15.9275   -9.5388 C   0  0  0  0  0  0  0  0  0  0  0  0
   42.3787   16.1171   -9.6916 C   0  0  0  0  0  0  0  0  0  0  0  0
   43.1523   16.3501   -8.5928 C   0  0  0  0  0  0  0  0  0  0  0  0
   42.5770   16.3948   -7.3483 C   0  0  0  0  0  0  0  0  0  0  0  0
   41.2269   16.2056   -7.2093 C   0  0  0  0  0  0  0  0  0  0  0  0
   38.4988   14.8798  -13.0577 C   0  0  0  0  0  0  0  0  0  0  0  0
   39.3618   15.7085  -12.5996 O   0  0  0  0  0  0  0  0  0  0  0  0
   38.8543   14.2265  -14.1861 O   0  0  0  0  0  0  0  0  0  0  0  0
   39.9101   13.4029  -14.4908 C   0  0  0  0  0  0  0  0  0  0  0  0
   39.8850   12.7140  -15.7402 N   0  0  0  0  0  0  0  0  0  0  0  0
   38.8829   11.9670  -16.2260 C   0  0  0  0  0  0  0  0  0  0  0  0
   38.9690   11.3163  -17.4633 C   0  0  0  0  0  0  0  0  0  0  0  0
   37.9472   10.5712  -17.9301 F   0  0  0  0  0  0  0  0  0  0  0  0
   40.1066   11.4360  -18.2139 C   0  0  0  0  0  0  0  0  0  0  0  0
   40.2887   10.8992  -19.3289 O   0  0  0  0  0  0  0  0  0  0  0  0
   41.1049   12.1961  -17.7005 N   0  0  0  0  0  0  0  0  0  0  0  0
   40.9916   12.8017  -16.5211 C   0  0  0  0  0  0  0  0  0  0  0  0
   41.9925   13.4952  -16.1292 O   0  0  0  0  0  0  0  0  0  0  0  0
   41.9936   12.3031  -18.2622 H   0  0  0  0  0  0  0  0  0  0  0  0
   35.9896   14.7657  -13.1022 C   0  0  0  0  0  0  0  0  0  0  0  0
   33.9323   13.5335  -13.8175 C   0  0  0  0  0  0  0  0  0  0  0  0
   35.0635   13.6381  -12.7888 C   0  0  0  0  0  0  0  0  0  0  0  0
   35.8396   12.3084  -12.7773 C   0  0  0  0  0  0  0  0  0  0  0  0
 35 36  1  0  0  0
 36 37  1  0  0  0
 36 34  1  0  0  0
 34  1  1  0  0  0
  1  2  1  0  0  0
  2  3  1  0  0  0
  3  4  2  0  0  0
  3  6  1  0  0  0
  6  7  1  0  0  0
  6  9  1  0  0  0
  9 10  1  0  0  0
  9 13  1  0  0  0
 13 14  1  0  0  0
 14 15  2  0  0  0
 15 16  1  0  0  0
 16 17  2  0  0  0
 17 18  1  0  0  0
 18 19  2  0  0  0
  1 20  1  0  0  0
 20 21  2  0  0  0
 20 22  1  0  0  0
 22 23  1  0  0  0
 23 24  1  0  0  0
 24 25  1  0  0  0
 25 26  2  0  0  0
 26 27  1  0  0  0
 26 28  1  0  0  0
 28 29  2  0  0  0
 28 30  1  0  0  0
 30 31  1  0  0  0
 31 32  2  0  0  0
 19 14  1  0  0  0
 31 24  1  0  0  0
  2  5  1  0  0  0
  7  8  1  0  0  0
 10 11  1  0  0  0
 10 12  1  0  0  0
 30 33  1  0  0  0
M  END
> <minimizedAffinity>
-7.35575

> <CNNscore>
0.8757113814

> <CNNaffinity>
6.7909979820

> <CNN_VS>
5.9469542503

> <CNNaffinity_variance>
0.0529575534

$$$$
[H]Cl.[H]O[C@]([H])(C(=O)N([H])[C@]([H])(C(=O)OC([H])([H])n1c([H])c(F)c(=O)n([H])c1=O)C([H])([H])C([H])(C([H])([H])[H])C([H])([H])[H])[C@]([H])(N([H])[H])C([H])([H])c1c([H])c([H])c([H])c([H])c1[H]


 37 38  0  0  0  0  0  0  0  0999 V2000
   37.8737   14.8939  -12.4323 C   0  0  0  0  0  0  0  0  0  0  0  0
   37.6282   16.0823  -11.6058 N   0  0  0  0  0  0  0  0  0  0  0  0
   37.9060   16.0884  -10.2116 C   0  0  0  0  0  0  0  0  0  0  0  0
   38.3697   15.0432   -9.7027 O   0  0  0  0  0  0  0  0  0  0  0  0
   37.2417   16.9595  -12.0179 H   0  0  0  0  0  0  0  0  0  0  0  0
   37.6657   17.2787   -9.3587 C   0  0  0  0  0  0  0  0  0  0  0  0
   37.3710   18.3680  -10.1671 O   0  0  0  0  0  0  0  0  0  0  0  0
   36.4062   18.3762  -10.3693 H   0  0  0  0  0  0  0  0  0  0  0  0
   36.5007   17.0638   -8.4026 C   0  0  0  0  0  0  0  0  0  0  0  0
   35.5614   18.1393   -8.4489 N   0  0  0  0  0  0  0  0  0  0  0  0
   34.5682   17.8427   -8.4059 H   0  0  0  0  0  0  0  0  0  0  0  0
   35.7828   18.9621   -7.8827 H   0  0  0  0  0  0  0  0  0  0  0  0
   37.0884   16.9041   -7.0270 C   0  0  0  0  0  0  0  0  0  0  0  0
   36.5943   15.7106   -6.3103 C   0  0  0  0  0  0  0  0  0  0  0  0
   36.8209   14.4196   -6.7581 C   0  0  0  0  0  0  0  0  0  0  0  0
   36.3567   13.3035   -6.0837 C   0  0  0  0  0  0  0  0  0  0  0  0
   35.6461   13.4623   -4.9305 C   0  0  0  0  0  0  0  0  0  0  0  0
   35.3970   14.7223   -4.4485 C   0  0  0  0  0  0  0  0  0  0  0  0
   35.8616   15.8199   -5.1249 C   0  0  0  0  0  0  0  0  0  0  0  0
   39.0862   15.1118  -13.2592 C   0  0  0  0  0  0  0  0  0  0  0  0
   39.8824   16.0385  -12.8735 O   0  0  0  0  0  0  0  0  0  0  0  0
   39.4572   14.4467  -14.3756 O   0  0  0  0  0  0  0  0  0  0  0  0
   40.2014   13.3103  -14.5775 C   0  0  0  0  0  0  0  0  0  0  0  0
   40.0806   12.6433  -15.8332 N   0  0  0  0  0  0  0  0  0  0  0  0
   39.0235   11.9462  -16.2745 C   0  0  0  0  0  0  0  0  0  0  0  0
   39.0160   11.3126  -17.5236 C   0  0  0  0  0  0  0  0  0  0  0  0
   37.9404   10.6179  -17.9448 F   0  0  0  0  0  0  0  0  0  0  0  0
   40.1159   11.3976  -18.3328 C   0  0  0  0  0  0  0  0  0  0  0  0
   40.2155   10.8719  -19.4635 O   0  0  0  0  0  0  0  0  0  0  0  0
   41.1712   12.1075  -17.8636 N   0  0  0  0  0  0  0  0  0  0  0  0
   41.1466   12.6981  -16.6715 C   0  0  0  0  0  0  0  0  0  0  0  0
   42.1953   13.3433  -16.3246 O   0  0  0  0  0  0  0  0  0  0  0  0
   42.0323   12.1869  -18.4711 H   0  0  0  0  0  0  0  0  0  0  0  0
   36.6490   14.5076  -13.1804 C   0  0  0  0  0  0  0  0  0  0  0  0
   34.6436   13.0131  -13.2638 C   0  0  0  0  0  0  0  0  0  0  0  0
   36.0694   13.2062  -12.7361 C   0  0  0  0  0  0  0  0  0  0  0  0
   36.9410   12.0425  -13.2429 C   0  0  0  0  0  0  0  0  0  0  0  0
 35 36  1  0  0  0
 36 37  1  0  0  0
 36 34  1  0  0  0
 34  1  1  0  0  0
  1  2  1  0  0  0
  2  3  1  0  0  0
  3  4  2  0  0  0
  3  6  1  0  0  0
  6  7  1  0  0  0
  6  9  1  0  0  0
  9 10  1  0  0  0
  9 13  1  0  0  0
 13 14  1  0  0  0
 14 15  2  0  0  0
 15 16  1  0  0  0
 16 17  2  0  0  0
 17 18  1  0  0  0
 18 19  2  0  0  0
  1 20  1  0  0  0
 20 21  2  0  0  0
 20 22  1  0  0  0
 22 23  1  0  0  0
 23 24  1  0  0  0
 24 25  1  0  0  0
 25 26  2  0  0  0
 26 27  1  0  0  0
 26 28  1  0  0  0
 28 29  2  0  0  0
 28 30  1  0  0  0
 30 31  1  0  0  0
 31 32  2  0  0  0
 19 14  1  0  0  0
 31 24  1  0  0  0
  2  5  1  0  0  0
  7  8  1  0  0  0
 10 11  1  0  0  0
 10 12  1  0  0  0
 30 33  1  0  0  0
M  END
> <minimizedAffinity>
-7.79401

> <CNNscore>
0.8397232294

> <CNNaffinity>
6.6698684692

> <CNN_VS>
5.6008434296

> <CNNaffinity_variance>
0.0721319988

$$$$
[H]Cl.[H]O[C@]([H])(C(=O)N([H])[C@]([H])(C(=O)OC([H])([H])n1c([H])c(F)c(=O)n([H])c1=O)C([H])([H])C([H])(C([H])([H])[H])C([H])([H])[H])[C@]([H])(N([H])[H])C([H])([H])c1c([H])c([H])c([H])c([H])c1[H]


 37 38  0  0  0  0  0  0  0  0999 V2000
   37.4523   14.6768  -12.9529 C   0  0  0  0  0  0  0  0  0  0  0  0
   36.6764   15.5987  -12.1140 N   0  0  0  0  0  0  0  0  0  0  0  0
   35.9937   15.1492  -10.9507 C   0  0  0  0  0  0  0  0  0  0  0  0
   36.0723   13.9348  -10.6585 O   0  0  0  0  0  0  0  0  0  0  0  0
   36.6027   16.6130  -12.3469 H   0  0  0  0  0  0  0  0  0  0  0  0
   35.2047   16.0642  -10.0891 C   0  0  0  0  0  0  0  0  0  0  0  0
   33.8590   15.9449  -10.4078 O   0  0  0  0  0  0  0  0  0  0  0  0
   33.4647   15.1996   -9.8971 H   0  0  0  0  0  0  0  0  0  0  0  0
   35.3769   15.7393   -8.6119 C   0  0  0  0  0  0  0  0  0  0  0  0
   34.2630   16.1768   -7.8315 N   0  0  0  0  0  0  0  0  0  0  0  0
   33.9725   15.5125   -7.0896 H   0  0  0  0  0  0  0  0  0  0  0  0
   34.2661   17.1586   -7.5437 H   0  0  0  0  0  0  0  0  0  0  0  0
   36.6544   16.3967   -8.1661 C   0  0  0  0  0  0  0  0  0  0  0  0
   37.6035   15.4645   -7.5236 C   0  0  0  0  0  0  0  0  0  0  0  0
   38.8702   15.8475   -7.1147 C   0  0  0  0  0  0  0  0  0  0  0  0
   39.7568   14.9714   -6.5127 C   0  0  0  0  0  0  0  0  0  0  0  0
   39.3851   13.6756   -6.3058 C   0  0  0  0  0  0  0  0  0  0  0  0
   38.1400   13.2507   -6.6944 C   0  0  0  0  0  0  0  0  0  0  0  0
   37.2707   14.1271   -7.2896 C   0  0  0  0  0  0  0  0  0  0  0  0
   38.8416   15.1810  -13.0830 C   0  0  0  0  0  0  0  0  0  0  0  0
   39.2674   15.9340  -12.1378 O   0  0  0  0  0  0  0  0  0  0  0  0
   39.7194   14.9403  -14.0819 O   0  0  0  0  0  0  0  0  0  0  0  0
   40.6134   13.9230  -14.3098 C   0  0  0  0  0  0  0  0  0  0  0  0
   40.4823   13.1722  -15.5161 N   0  0  0  0  0  0  0  0  0  0  0  0
   39.3628   12.6111  -15.9958 C   0  0  0  0  0  0  0  0  0  0  0  0
   39.3481   11.8760  -17.1879 C   0  0  0  0  0  0  0  0  0  0  0  0
   38.2092   11.3220  -17.6496 F   0  0  0  0  0  0  0  0  0  0  0  0
   40.5058   11.7151  -17.8989 C   0  0  0  0  0  0  0  0  0  0  0  0
   40.6049   11.0802  -18.9720 O   0  0  0  0  0  0  0  0  0  0  0  0
   41.6235   12.2916  -17.3926 N   0  0  0  0  0  0  0  0  0  0  0  0
   41.6040   12.9842  -16.2566 C   0  0  0  0  0  0  0  0  0  0  0  0
   42.7141   13.4870  -15.8674 O   0  0  0  0  0  0  0  0  0  0  0  0
   42.5300   12.1807  -17.9243 H   0  0  0  0  0  0  0  0  0  0  0  0
   36.7469   14.4052  -14.2325 C   0  0  0  0  0  0  0  0  0  0  0  0
   34.3598   13.7036  -13.9643 C   0  0  0  0  0  0  0  0  0  0  0  0
   35.8097   13.2462  -14.1576 C   0  0  0  0  0  0  0  0  0  0  0  0
   35.8934   12.4182  -15.4530 C   0  0  0  0  0  0  0  0  0  0  0  0
 35 36  1  0  0  0
 36 37  1  0  0  0
 36 34  1  0  0  0
 34  1  1  0  0  0
  1  2  1  0  0  0
  2  3  1  0  0  0
  3  4  2  0  0  0
  3  6  1  0  0  0
  6  7  1  0  0  0
  6  9  1  0  0  0
  9 10  1  0  0  0
  9 13  1  0  0  0
 13 14  1  0  0  0
 14 15  2  0  0  0
 15 16  1  0  0  0
 16 17  2  0  0  0
 17 18  1  0  0  0
 18 19  2  0  0  0
  1 20  1  0  0  0
 20 21  2  0  0  0
 20 22  1  0  0  0
 22 23  1  0  0  0
 23 24  1  0  0  0
 24 25  1  0  0  0
 25 26  2  0  0  0
 26 27  1  0  0  0
 26 28  1  0  0  0
 28 29  2  0  0  0
 28 30  1  0  0  0
 30 31  1  0  0  0
 31 32  2  0  0  0
 19 14  1  0  0  0
 31 24  1  0  0  0
  2  5  1  0  0  0
  7  8  1  0  0  0
 10 11  1  0  0  0
 10 12  1  0  0  0
 30 33  1  0  0  0
M  END
> <minimizedAffinity>
-7.35960

> <CNNscore>
0.8384922743

> <CNNaffinity>
6.8643007278

> <CNN_VS>
5.7556629181

> <CNNaffinity_variance>
0.0744610205

$$$$
[H]Cl.[H]O[C@]([H])(C(=O)N([H])[C@]([H])(C(=O)OC([H])([H])n1c([H])c(F)c(=O)n([H])c1=O)C([H])([H])C([H])(C([H])([H])[H])C([H])([H])[H])[C@]([H])(N([H])[H])C([H])([H])c1c([H])c([H])c([H])c([H])c1[H]


 37 38  0  0  0  0  0  0  0  0999 V2000
   37.3438   14.6471  -13.2626 C   0  0  0  0  0  0  0  0  0  0  0  0
   36.5919   15.5118  -12.3446 N   0  0  0  0  0  0  0  0  0  0  0  0
   35.9060   14.9813  -11.2179 C   0  0  0  0  0  0  0  0  0  0  0  0
   35.9607   13.7454  -11.0281 O   0  0  0  0  0  0  0  0  0  0  0  0
   36.5382   16.5433  -12.4921 H   0  0  0  0  0  0  0  0  0  0  0  0
   35.1410   15.8375  -10.2779 C   0  0  0  0  0  0  0  0  0  0  0  0
   33.7953   15.5042  -10.3483 O   0  0  0  0  0  0  0  0  0  0  0  0
   33.6105   14.7514   -9.7394 H   0  0  0  0  0  0  0  0  0  0  0  0
   35.6046   15.6532   -8.8397 C   0  0  0  0  0  0  0  0  0  0  0  0
   35.1084   14.4427   -8.2655 N   0  0  0  0  0  0  0  0  0  0  0  0
   35.7941   13.9367   -7.6740 H   0  0  0  0  0  0  0  0  0  0  0  0
   34.1606   14.4757   -7.8817 H   0  0  0  0  0  0  0  0  0  0  0  0
   35.1369   16.8595   -8.0720 C   0  0  0  0  0  0  0  0  0  0  0  0
   36.2356   17.6168   -7.4382 C   0  0  0  0  0  0  0  0  0  0  0  0
   36.2887   19.0008   -7.4358 C   0  0  0  0  0  0  0  0  0  0  0  0
   37.3197   19.7071   -6.8406 C   0  0  0  0  0  0  0  0  0  0  0  0
   38.3320   19.0296   -6.2272 C   0  0  0  0  0  0  0  0  0  0  0  0
   38.3219   17.6580   -6.2045 C   0  0  0  0  0  0  0  0  0  0  0  0
   37.2959   16.9695   -6.7972 C   0  0  0  0  0  0  0  0  0  0  0  0
   38.7674   15.0647  -13.2764 C   0  0  0  0  0  0  0  0  0  0  0  0
   39.1535   15.8121  -12.3101 O   0  0  0  0  0  0  0  0  0  0  0  0
   39.7137   14.7495  -14.1885 O   0  0  0  0  0  0  0  0  0  0  0  0
   40.4814   13.6276  -14.3828 C   0  0  0  0  0  0  0  0  0  0  0  0
   40.3478   12.9290  -15.6199 N   0  0  0  0  0  0  0  0  0  0  0  0
   39.2456   12.3242  -16.0862 C   0  0  0  0  0  0  0  0  0  0  0  0
   39.2276   11.6478  -17.3126 C   0  0  0  0  0  0  0  0  0  0  0  0
   38.1063   11.0480  -17.7599 F   0  0  0  0  0  0  0  0  0  0  0  0
   40.3640   11.5925  -18.0723 C   0  0  0  0  0  0  0  0  0  0  0  0
   40.4583   11.0171  -19.1790 O   0  0  0  0  0  0  0  0  0  0  0  0
   41.4646   12.2112  -17.5786 N   0  0  0  0  0  0  0  0  0  0  0  0
   41.4487   12.8459  -16.4092 C   0  0  0  0  0  0  0  0  0  0  0  0
   42.5414   13.3963  -16.0357 O   0  0  0  0  0  0  0  0  0  0  0  0
   42.3545   12.1816  -18.1477 H   0  0  0  0  0  0  0  0  0  0  0  0
   36.6817   14.5842  -14.5917 C   0  0  0  0  0  0  0  0  0  0  0  0
   36.4371   12.1785  -13.9472 C   0  0  0  0  0  0  0  0  0  0  0  0
   35.9024   13.3296  -14.8062 C   0  0  0  0  0  0  0  0  0  0  0  0
   34.4232   13.5621  -14.4478 C   0  0  0  0  0  0  0  0  0  0  0  0
 35 36  1  0  0  0
 36 37  1  0  0  0
 36 34  1  0  0  0
 34  1  1  0  0  0
  1  2  1  0  0  0
  2  3  1  0  0  0
  3  4  2  0  0  0
  3  6  1  0  0  0
  6  7  1  0  0  0
  6  9  1  0  0  0
  9 10  1  0  0  0
  9 13  1  0  0  0
 13 14  1  0  0  0
 14 15  2  0  0  0
 15 16  1  0  0  0
 16 17  2  0  0  0
 17 18  1  0  0  0
 18 19  2  0  0  0
  1 20  1  0  0  0
 20 21  2  0  0  0
 20 22  1  0  0  0
 22 23  1  0  0  0
 23 24  1  0  0  0
 24 25  1  0  0  0
 25 26  2  0  0  0
 26 27  1  0  0  0
 26 28  1  0  0  0
 28 29  2  0  0  0
 28 30  1  0  0  0
 30 31  1  0  0  0
 31 32  2  0  0  0
 19 14  1  0  0  0
 31 24  1  0  0  0
  2  5  1  0  0  0
  7  8  1  0  0  0
 10 11  1  0  0  0
 10 12  1  0  0  0
 30 33  1  0  0  0
M  END
> <minimizedAffinity>
-7.60317

> <CNNscore>
0.7949622273

> <CNNaffinity>
6.7698411942

> <CNN_VS>
5.3817682266

> <CNNaffinity_variance>
0.1288678348

$$$$
[H]Cl.[H]O[C@]([H])(C(=O)N([H])[C@]([H])(C(=O)OC([H])([H])n1c([H])c(F)c(=O)n([H])c1=O)C([H])([H])C([H])(C([H])([H])[H])C([H])([H])[H])[C@]([H])(N([H])[H])C([H])([H])c1c([H])c([H])c([H])c([H])c1[H]


 37 38  0  0  0  0  0  0  0  0999 V2000
   39.3693   15.9802  -11.5723 C   0  0  0  0  0  0  0  0  0  0  0  0
   38.4634   14.8268  -11.5015 N   0  0  0  0  0  0  0  0  0  0  0  0
   37.0923   14.9354  -11.8615 C   0  0  0  0  0  0  0  0  0  0  0  0
   36.6743   16.0514  -12.2437 O   0  0  0  0  0  0  0  0  0  0  0  0
   38.7995   13.8915  -11.1842 H   0  0  0  0  0  0  0  0  0  0  0  0
   36.1604   13.7824  -11.7977 C   0  0  0  0  0  0  0  0  0  0  0  0
   34.8562   14.2418  -11.9193 O   0  0  0  0  0  0  0  0  0  0  0  0
   34.6219   14.3184  -12.8737 H   0  0  0  0  0  0  0  0  0  0  0  0
   36.4209   12.7819  -12.9150 C   0  0  0  0  0  0  0  0  0  0  0  0
   37.8103   12.4782  -13.0521 N   0  0  0  0  0  0  0  0  0  0  0  0
   38.0138   11.4782  -13.2385 H   0  0  0  0  0  0  0  0  0  0  0  0
   38.3675   13.1343  -13.6051 H   0  0  0  0  0  0  0  0  0  0  0  0
   35.8605   13.3801  -14.1765 C   0  0  0  0  0  0  0  0  0  0  0  0
   35.2462   12.3842  -15.0783 C   0  0  0  0  0  0  0  0  0  0  0  0
   33.9808   11.8619  -14.8681 C   0  0  0  0  0  0  0  0  0  0  0  0
   33.4082   10.9291  -15.7155 C   0  0  0  0  0  0  0  0  0  0  0  0
   34.1032   10.4957  -16.8059 C   0  0  0  0  0  0  0  0  0  0  0  0
   35.3604   10.9851  -17.0546 C   0  0  0  0  0  0  0  0  0  0  0  0
   35.9171   11.9083  -16.2086 C   0  0  0  0  0  0  0  0  0  0  0  0
   40.3417   15.7750  -12.6739 C   0  0  0  0  0  0  0  0  0  0  0  0
   41.3070   16.6141  -12.7483 O   0  0  0  0  0  0  0  0  0  0  0  0
   40.3349   14.8037  -13.6136 O   0  0  0  0  0  0  0  0  0  0  0  0
   41.3001   13.9349  -14.0605 C   0  0  0  0  0  0  0  0  0  0  0  0
   41.0792   13.2674  -15.3022 N   0  0  0  0  0  0  0  0  0  0  0  0
   39.9048   12.8364  -15.7851 C   0  0  0  0  0  0  0  0  0  0  0  0
   39.8014   12.1735  -17.0145 C   0  0  0  0  0  0  0  0  0  0  0  0
   38.6087   11.7501  -17.4785 F   0  0  0  0  0  0  0  0  0  0  0  0
   40.9264   11.9498  -17.7602 C   0  0  0  0  0  0  0  0  0  0  0  0
   40.9477   11.3696  -18.8681 O   0  0  0  0  0  0  0  0  0  0  0  0
   42.1009   12.3948  -17.2499 N   0  0  0  0  0  0  0  0  0  0  0  0
   42.1654   13.0218  -16.0780 C   0  0  0  0  0  0  0  0  0  0  0  0
   43.3234   13.4008  -15.6884 O   0  0  0  0  0  0  0  0  0  0  0  0
   42.9837   12.2332  -17.8080 H   0  0  0  0  0  0  0  0  0  0  0  0
   39.9617   16.2699  -10.2404 C   0  0  0  0  0  0  0  0  0  0  0  0
   39.5613   16.5468   -7.7858 C   0  0  0  0  0  0  0  0  0  0  0  0
   38.9424   16.5530   -9.1878 C   0  0  0  0  0  0  0  0  0  0  0  0
   38.3014   17.9310   -9.4341 C   0  0  0  0  0  0  0  0  0  0  0  0
 35 36  1  0  0  0
 36 37  1  0  0  0
 36 34  1  0  0  0
 34  1  1  0  0  0
  1  2  1  0  0  0
  2  3  1  0  0  0
  3  4  2  0  0  0
  3  6  1  0  0  0
  6  7  1  0  0  0
  6  9  1  0  0  0
  9 10  1  0  0  0
  9 13  1  0  0  0
 13 14  1  0  0  0
 14 15  2  0  0  0
 15 16  1  0  0  0
 16 17  2  0  0  0
 17 18  1  0  0  0
 18 19  2  0  0  0
  1 20  1  0  0  0
 20 21  2  0  0  0
 20 22  1  0  0  0
 22 23  1  0  0  0
 23 24  1  0  0  0
 24 25  1  0  0  0
 25 26  2  0  0  0
 26 27  1  0  0  0
 26 28  1  0  0  0
 28 29  2  0  0  0
 28 30  1  0  0  0
 30 31  1  0  0  0
 31 32  2  0  0  0
 19 14  1  0  0  0
 31 24  1  0  0  0
  2  5  1  0  0  0
  7  8  1  0  0  0
 10 11  1  0  0  0
 10 12  1  0  0  0
 30 33  1  0  0  0
M  END
> <minimizedAffinity>
-8.90866

> <CNNscore>
0.6538757086

> <CNNaffinity>
6.8249650002

> <CNN_VS>
4.4626789093

> <CNNaffinity_variance>
0.0630996749

$$$$
[H]Cl.[H]O[C@]([H])(C(=O)N([H])[C@]([H])(C(=O)OC([H])([H])n1c([H])c(F)c(=O)n([H])c1=O)C([H])([H])C([H])(C([H])([H])[H])C([H])([H])[H])[C@]([H])(N([H])[H])C([H])([H])c1c([H])c([H])c([H])c([H])c1[H]


 37 38  0  0  0  0  0  0  0  0999 V2000
   37.4143   14.3785  -13.1997 C   0  0  0  0  0  0  0  0  0  0  0  0
   37.1434   15.5605  -12.3719 N   0  0  0  0  0  0  0  0  0  0  0  0
   36.6252   15.4416  -11.0533 C   0  0  0  0  0  0  0  0  0  0  0  0
   36.4038   14.2911  -10.6131 O   0  0  0  0  0  0  0  0  0  0  0  0
   37.3233   16.5248  -12.7273 H   0  0  0  0  0  0  0  0  0  0  0  0
   36.3450   16.6230  -10.2002 C   0  0  0  0  0  0  0  0  0  0  0  0
   35.1189   16.4525   -9.5722 O   0  0  0  0  0  0  0  0  0  0  0  0
   35.2440   15.9396   -8.7398 H   0  0  0  0  0  0  0  0  0  0  0  0
   37.4090   16.8118   -9.1280 C   0  0  0  0  0  0  0  0  0  0  0  0
   36.9708   17.6811   -8.0824 N   0  0  0  0  0  0  0  0  0  0  0  0
   37.2502   17.3801   -7.1298 H   0  0  0  0  0  0  0  0  0  0  0  0
   37.0664   18.6851   -8.2546 H   0  0  0  0  0  0  0  0  0  0  0  0
   38.6325   17.3517   -9.8171 C   0  0  0  0  0  0  0  0  0  0  0  0
   39.8587   16.5788   -9.5317 C   0  0  0  0  0  0  0  0  0  0  0  0
   40.8458   16.3615  -10.4787 C   0  0  0  0  0  0  0  0  0  0  0  0
   41.9936   15.6371  -10.2076 C   0  0  0  0  0  0  0  0  0  0  0  0
   42.1769   15.1089   -8.9636 C   0  0  0  0  0  0  0  0  0  0  0  0
   41.2259   15.2982   -7.9932 C   0  0  0  0  0  0  0  0  0  0  0  0
   40.0934   16.0172   -8.2733 C   0  0  0  0  0  0  0  0  0  0  0  0
   38.8124   14.4336  -13.6931 C   0  0  0  0  0  0  0  0  0  0  0  0
   39.4061   15.5655  -13.6040 O   0  0  0  0  0  0  0  0  0  0  0  0
   39.5420   13.4290  -14.2270 O   0  0  0  0  0  0  0  0  0  0  0  0
   40.0283   13.2025  -15.4911 C   0  0  0  0  0  0  0  0  0  0  0  0
   41.4349   13.0193  -15.6462 N   0  0  0  0  0  0  0  0  0  0  0  0
   42.3959   13.4255  -14.8038 C   0  0  0  0  0  0  0  0  0  0  0  0
   43.7553   13.2084  -15.0618 C   0  0  0  0  0  0  0  0  0  0  0  0
   44.7027   13.6262  -14.1986 F   0  0  0  0  0  0  0  0  0  0  0  0
   44.1326   12.5621  -16.2071 C   0  0  0  0  0  0  0  0  0  0  0  0
   45.3146   12.3168  -16.5348 O   0  0  0  0  0  0  0  0  0  0  0  0
   43.1424   12.1620  -17.0421 N   0  0  0  0  0  0  0  0  0  0  0  0
   41.8594   12.3836  -16.7677 C   0  0  0  0  0  0  0  0  0  0  0  0
   41.0050   11.9650  -17.6228 O   0  0  0  0  0  0  0  0  0  0  0  0
   43.4096   11.6608  -17.9333 H   0  0  0  0  0  0  0  0  0  0  0  0
   36.3715   14.2153  -14.2460 C   0  0  0  0  0  0  0  0  0  0  0  0
   36.0776   12.0580  -13.0123 C   0  0  0  0  0  0  0  0  0  0  0  0
   35.4660   13.0541  -14.0034 C   0  0  0  0  0  0  0  0  0  0  0  0
   34.1214   13.5457  -13.4370 C   0  0  0  0  0  0  0  0  0  0  0  0
 35 36  1  0  0  0
 36 37  1  0  0  0
 36 34  1  0  0  0
 34  1  1  0  0  0
  1  2  1  0  0  0
  2  3  1  0  0  0
  3  4  2  0  0  0
  3  6  1  0  0  0
  6  7  1  0  0  0
  6  9  1  0  0  0
  9 10  1  0  0  0
  9 13  1  0  0  0
 13 14  1  0  0  0
 14 15  2  0  0  0
 15 16  1  0  0  0
 16 17  2  0  0  0
 17 18  1  0  0  0
 18 19  2  0  0  0
  1 20  1  0  0  0
 20 21  2  0  0  0
 20 22  1  0  0  0
 22 23  1  0  0  0
 23 24  1  0  0  0
 24 25  1  0  0  0
 25 26  2  0  0  0
 26 27  1  0  0  0
 26 28  1  0  0  0
 28 29  2  0  0  0
 28 30  1  0  0  0
 30 31  1  0  0  0
 31 32  2  0  0  0
 19 14  1  0  0  0
 31 24  1  0  0  0
  2  5  1  0  0  0
  7  8  1  0  0  0
 10 11  1  0  0  0
 10 12  1  0  0  0
 30 33  1  0  0  0
M  END
> <minimizedAffinity>
-6.96768

> <CNNscore>
0.6451845169

> <CNNaffinity>
6.3441362381

> <CNN_VS>
4.0931386948

> <CNNaffinity_variance>
0.0540056303

$$$$
[H]Cl.[H]O[C@]([H])(C(=O)N([H])[C@]([H])(C(=O)OC([H])([H])n1c([H])c(F)c(=O)n([H])c1=O)C([H])([H])C([H])(C([H])([H])[H])C([H])([H])[H])[C@]([H])(N([H])[H])C([H])([H])c1c([H])c([H])c([H])c([H])c1[H]


 37 38  0  0  0  0  0  0  0  0999 V2000
   38.5663   14.9635  -12.4218 C   0  0  0  0  0  0  0  0  0  0  0  0
   37.9866   16.0692  -11.6490 N   0  0  0  0  0  0  0  0  0  0  0  0
   38.0436   16.0934  -10.2287 C   0  0  0  0  0  0  0  0  0  0  0  0
   38.6062   15.1373   -9.6492 O   0  0  0  0  0  0  0  0  0  0  0  0
   37.5147   16.8717  -12.1200 H   0  0  0  0  0  0  0  0  0  0  0  0
   37.4646   17.2013   -9.4290 C   0  0  0  0  0  0  0  0  0  0  0  0
   36.9687   18.1733  -10.2869 O   0  0  0  0  0  0  0  0  0  0  0  0
   36.0467   17.9424  -10.5481 H   0  0  0  0  0  0  0  0  0  0  0  0
   36.3256   16.7221   -8.5400 C   0  0  0  0  0  0  0  0  0  0  0  0
   36.7900   15.9038   -7.4649 N   0  0  0  0  0  0  0  0  0  0  0  0
   36.3163   16.0780   -6.5585 H   0  0  0  0  0  0  0  0  0  0  0  0
   36.9451   14.9154   -7.6789 H   0  0  0  0  0  0  0  0  0  0  0  0
   35.3648   15.9762   -9.4252 C   0  0  0  0  0  0  0  0  0  0  0  0
   33.9492   16.1595   -9.0444 C   0  0  0  0  0  0  0  0  0  0  0  0
   33.5620   16.6269   -7.7993 C   0  0  0  0  0  0  0  0  0  0  0  0
   32.2347   16.7978   -7.4461 C   0  0  0  0  0  0  0  0  0  0  0  0
   31.2555   16.4993   -8.3473 C   0  0  0  0  0  0  0  0  0  0  0  0
   31.5914   16.0332   -9.5930 C   0  0  0  0  0  0  0  0  0  0  0  0
   32.9090   15.8679   -9.9315 C   0  0  0  0  0  0  0  0  0  0  0  0
   39.7990   15.4318  -13.1016 C   0  0  0  0  0  0  0  0  0  0  0  0
   40.3562   16.4792  -12.6178 O   0  0  0  0  0  0  0  0  0  0  0  0
   40.4114   14.8843  -14.1748 O   0  0  0  0  0  0  0  0  0  0  0  0
   41.0085   13.6653  -14.3837 C   0  0  0  0  0  0  0  0  0  0  0  0
   40.7249   12.9792  -15.6023 N   0  0  0  0  0  0  0  0  0  0  0  0
   39.5413   12.4797  -15.9866 C   0  0  0  0  0  0  0  0  0  0  0  0
   39.3754   11.8048  -17.2026 C   0  0  0  0  0  0  0  0  0  0  0  0
   38.1746   11.3121  -17.5666 F   0  0  0  0  0  0  0  0  0  0  0  0
   40.4464   11.6407  -18.0379 C   0  0  0  0  0  0  0  0  0  0  0  0
   40.4097   11.0561  -19.1431 O   0  0  0  0  0  0  0  0  0  0  0  0
   41.6316   12.1543  -17.6263 N   0  0  0  0  0  0  0  0  0  0  0  0
   41.7561   12.7907  -16.4644 C   0  0  0  0  0  0  0  0  0  0  0  0
   42.9187   13.2368  -16.1716 O   0  0  0  0  0  0  0  0  0  0  0  0
   42.4734   12.0396  -18.2548 H   0  0  0  0  0  0  0  0  0  0  0  0
   37.5445   14.3423  -13.3043 C   0  0  0  0  0  0  0  0  0  0  0  0
   35.0929   14.2756  -12.8069 C   0  0  0  0  0  0  0  0  0  0  0  0
   36.4635   13.6381  -12.5542 C   0  0  0  0  0  0  0  0  0  0  0  0
   36.4030   12.1606  -12.9830 C   0  0  0  0  0  0  0  0  0  0  0  0
 35 36  1  0  0  0
 36 37  1  0  0  0
 36 34  1  0  0  0
 34  1  1  0  0  0
  1  2  1  0  0  0
  2  3  1  0  0  0
  3  4  2  0  0  0
  3  6  1  0  0  0
  6  7  1  0  0  0
  6  9  1  0  0  0
  9 10  1  0  0  0
  9 13  1  0  0  0
 13 14  1  0  0  0
 14 15  2  0  0  0
 15 16  1  0  0  0
 16 17  2  0  0  0
 17 18  1  0  0  0
 18 19  2  0  0  0
  1 20  1  0  0  0
 20 21  2  0  0  0
 20 22  1  0  0  0
 22 23  1  0  0  0
 23 24  1  0  0  0
 24 25  1  0  0  0
 25 26  2  0  0  0
 26 27  1  0  0  0
 26 28  1  0  0  0
 28 29  2  0  0  0
 28 30  1  0  0  0
 30 31  1  0  0  0
 31 32  2  0  0  0
 19 14  1  0  0  0
 31 24  1  0  0  0
  2  5  1  0  0  0
  7  8  1  0  0  0
 10 11  1  0  0  0
 10 12  1  0  0  0
 30 33  1  0  0  0
M  END
> <minimizedAffinity>
-7.79260

> <CNNscore>
0.6083059907

> <CNNaffinity>
6.4432525635

> <CNN_VS>
3.9194691181

> <CNNaffinity_variance>
0.1225394011

$$$$
[H]Cl.[H]O[C@]([H])(C(=O)N([H])[C@]([H])(C(=O)OC([H])([H])n1c([H])c(F)c(=O)n([H])c1=O)C([H])([H])C([H])(C([H])([H])[H])C([H])([H])[H])[C@]([H])(N([H])[H])C([H])([H])c1c([H])c([H])c([H])c([H])c1[H]


 37 38  0  0  0  0  0  0  0  0999 V2000
   39.1564   13.4693  -14.5724 C   0  0  0  0  0  0  0  0  0  0  0  0
   37.9473   14.2030  -14.1777 N   0  0  0  0  0  0  0  0  0  0  0  0
   37.1373   13.7716  -13.0919 C   0  0  0  0  0  0  0  0  0  0  0  0
   37.4857   12.7394  -12.4758 O   0  0  0  0  0  0  0  0  0  0  0  0
   37.6460   15.0645  -14.6833 H   0  0  0  0  0  0  0  0  0  0  0  0
   35.9122   14.4987  -12.6766 C   0  0  0  0  0  0  0  0  0  0  0  0
   36.1424   15.8652  -12.7579 O   0  0  0  0  0  0  0  0  0  0  0  0
   35.9592   16.1757  -13.6754 H   0  0  0  0  0  0  0  0  0  0  0  0
   34.7244   14.1602  -13.5663 C   0  0  0  0  0  0  0  0  0  0  0  0
   33.5408   14.8561  -13.1713 N   0  0  0  0  0  0  0  0  0  0  0  0
   32.9688   15.2107  -13.9608 H   0  0  0  0  0  0  0  0  0  0  0  0
   32.9997   14.4387  -12.4099 H   0  0  0  0  0  0  0  0  0  0  0  0
   34.5366   12.6692  -13.4956 C   0  0  0  0  0  0  0  0  0  0  0  0
   34.5337   12.0125  -14.8190 C   0  0  0  0  0  0  0  0  0  0  0  0
   33.4344   11.3326  -15.3164 C   0  0  0  0  0  0  0  0  0  0  0  0
   33.4351   10.7187  -16.5570 C   0  0  0  0  0  0  0  0  0  0  0  0
   34.5544   10.7755  -17.3343 C   0  0  0  0  0  0  0  0  0  0  0  0
   35.6677   11.4379  -16.8830 C   0  0  0  0  0  0  0  0  0  0  0  0
   35.6552   12.0419  -15.6530 C   0  0  0  0  0  0  0  0  0  0  0  0
   40.3539   14.1938  -14.0804 C   0  0  0  0  0  0  0  0  0  0  0  0
   40.1874   15.4234  -13.7612 O   0  0  0  0  0  0  0  0  0  0  0  0
   41.6070   13.7119  -13.9248 O   0  0  0  0  0  0  0  0  0  0  0  0
   42.7910   14.3012  -13.5548 C   0  0  0  0  0  0  0  0  0  0  0  0
   43.9937   13.8284  -14.1599 N   0  0  0  0  0  0  0  0  0  0  0  0
   44.1326   13.3496  -15.4047 C   0  0  0  0  0  0  0  0  0  0  0  0
   45.3623   12.8929  -15.8958 C   0  0  0  0  0  0  0  0  0  0  0  0
   45.4762   12.4164  -17.1516 F   0  0  0  0  0  0  0  0  0  0  0  0
   46.4685   12.9292  -15.0916 C   0  0  0  0  0  0  0  0  0  0  0  0
   47.6113   12.5478  -15.4280 O   0  0  0  0  0  0  0  0  0  0  0  0
   46.3015   13.4171  -13.8378 N   0  0  0  0  0  0  0  0  0  0  0  0
   45.1191   13.8436  -13.4014 C   0  0  0  0  0  0  0  0  0  0  0  0
   45.0709   14.2850  -12.2017 O   0  0  0  0  0  0  0  0  0  0  0  0
   47.1419   13.4547  -13.1982 H   0  0  0  0  0  0  0  0  0  0  0  0
   39.1417   13.1698  -16.0280 C   0  0  0  0  0  0  0  0  0  0  0  0
   39.0318   10.9688  -17.2136 C   0  0  0  0  0  0  0  0  0  0  0  0
   39.8914   11.9298  -16.3851 C   0  0  0  0  0  0  0  0  0  0  0  0
   41.1466   12.2910  -17.2002 C   0  0  0  0  0  0  0  0  0  0  0  0
 35 36  1  0  0  0
 36 37  1  0  0  0
 36 34  1  0  0  0
 34  1  1  0  0  0
  1  2  1  0  0  0
  2  3  1  0  0  0
  3  4  2  0  0  0
  3  6  1  0  0  0
  6  7  1  0  0  0
  6  9  1  0  0  0
  9 10  1  0  0  0
  9 13  1  0  0  0
 13 14  1  0  0  0
 14 15  2  0  0  0
 15 16  1  0  0  0
 16 17  2  0  0  0
 17 18  1  0  0  0
 18 19  2  0  0  0
  1 20  1  0  0  0
 20 21  2  0  0  0
 20 22  1  0  0  0
 22 23  1  0  0  0
 23 24  1  0  0  0
 24 25  1  0  0  0
 25 26  2  0  0  0
 26 27  1  0  0  0
 26 28  1  0  0  0
 28 29  2  0  0  0
 28 30  1  0  0  0
 30 31  1  0  0  0
 31 32  2  0  0  0
 19 14  1  0  0  0
 31 24  1  0  0  0
  2  5  1  0  0  0
  7  8  1  0  0  0
 10 11  1  0  0  0
 10 12  1  0  0  0
 30 33  1  0  0  0
M  END
> <minimizedAffinity>
-8.24594

> <CNNscore>
0.5613614321

> <CNNaffinity>
6.8520255089

> <CNN_VS>
3.8464629650

> <CNNaffinity_variance>
0.1281667054

$$$$
[H]Cl.[H]O[C@]([H])(C(=O)N([H])[C@]([H])(C(=O)OC([H])([H])n1c([H])c(F)c(=O)n([H])c1=O)C([H])([H])C([H])(C([H])([H])[H])C([H])([H])[H])[C@]([H])(N([H])[H])C([H])([H])c1c([H])c([H])c([H])c([H])c1[H]


 37 38  0  0  0  0  0  0  0  0999 V2000
   39.5642   15.8882  -11.6449 C   0  0  0  0  0  0  0  0  0  0  0  0
   38.6466   14.7451  -11.7316 N   0  0  0  0  0  0  0  0  0  0  0  0
   37.2688   14.9194  -12.0357 C   0  0  0  0  0  0  0  0  0  0  0  0
   36.8551   16.0846  -12.2291 O   0  0  0  0  0  0  0  0  0  0  0  0
   38.9790   13.7691  -11.5722 H   0  0  0  0  0  0  0  0  0  0  0  0
   36.3251   13.7780  -12.1285 C   0  0  0  0  0  0  0  0  0  0  0  0
   35.5920   13.6946  -10.9528 O   0  0  0  0  0  0  0  0  0  0  0  0
   34.8070   14.2879  -11.0116 H   0  0  0  0  0  0  0  0  0  0  0  0
   35.3522   13.9412  -13.2879 C   0  0  0  0  0  0  0  0  0  0  0  0
   34.2641   14.8067  -12.9594 N   0  0  0  0  0  0  0  0  0  0  0  0
   33.9844   15.4517  -13.7223 H   0  0  0  0  0  0  0  0  0  0  0  0
   33.4816   14.3831  -12.4543 H   0  0  0  0  0  0  0  0  0  0  0  0
   34.8701   12.5631  -13.6508 C   0  0  0  0  0  0  0  0  0  0  0  0
   35.4297   12.0589  -14.9217 C   0  0  0  0  0  0  0  0  0  0  0  0
   34.6513   11.4612  -15.8991 C   0  0  0  0  0  0  0  0  0  0  0  0
   35.1789   10.9903  -17.0889 C   0  0  0  0  0  0  0  0  0  0  0  0
   36.5166   11.1113  -17.3254 C   0  0  0  0  0  0  0  0  0  0  0  0
   37.3272   11.6966  -16.3861 C   0  0  0  0  0  0  0  0  0  0  0  0
   36.7935   12.1591  -15.2117 C   0  0  0  0  0  0  0  0  0  0  0  0
   40.4744   15.8781  -12.8165 C   0  0  0  0  0  0  0  0  0  0  0  0
   41.4838   16.6654  -12.7632 O   0  0  0  0  0  0  0  0  0  0  0  0
   40.3697   15.1338  -13.9396 O   0  0  0  0  0  0  0  0  0  0  0  0
   40.6293   13.8121  -14.2074 C   0  0  0  0  0  0  0  0  0  0  0  0
   41.8980   13.4777  -14.7685 N   0  0  0  0  0  0  0  0  0  0  0  0
   43.1009   13.6749  -14.2098 C   0  0  0  0  0  0  0  0  0  0  0  0
   44.2917   13.3235  -14.8582 C   0  0  0  0  0  0  0  0  0  0  0  0
   45.4890   13.5315  -14.2750 F   0  0  0  0  0  0  0  0  0  0  0  0
   44.2438   12.7595  -16.1038 C   0  0  0  0  0  0  0  0  0  0  0  0
   45.2426   12.4090  -16.7702 O   0  0  0  0  0  0  0  0  0  0  0  0
   43.0159   12.5712  -16.6467 N   0  0  0  0  0  0  0  0  0  0  0  0
   41.9030   12.9161  -16.0041 C   0  0  0  0  0  0  0  0  0  0  0  0
   40.7961   12.6951  -16.6061 O   0  0  0  0  0  0  0  0  0  0  0  0
   42.9538   12.1372  -17.6083 H   0  0  0  0  0  0  0  0  0  0  0  0
   40.2297   15.9326  -10.3168 C   0  0  0  0  0  0  0  0  0  0  0  0
   38.5609   17.7540   -9.9170 C   0  0  0  0  0  0  0  0  0  0  0  0
   39.4449   16.6730   -9.2857 C   0  0  0  0  0  0  0  0  0  0  0  0
   38.5439   15.6954   -8.5090 C   0  0  0  0  0  0  0  0  0  0  0  0
 35 36  1  0  0  0
 36 37  1  0  0  0
 36 34  1  0  0  0
 34  1  1  0  0  0
  1  2  1  0  0  0
  2  3  1  0  0  0
  3  4  2  0  0  0
  3  6  1  0  0  0
  6  7  1  0  0  0
  6  9  1  0  0  0
  9 10  1  0  0  0
  9 13  1  0  0  0
 13 14  1  0  0  0
 14 15  2  0  0  0
 15 16  1  0  0  0
 16 17  2  0  0  0
 17 18  1  0  0  0
 18 19  2  0  0  0
  1 20  1  0  0  0
 20 21  2  0  0  0
 20 22  1  0  0  0
 22 23  1  0  0  0
 23 24  1  0  0  0
 24 25  1  0  0  0
 25 26  2  0  0  0
 26 27  1  0  0  0
 26 28  1  0  0  0
 28 29  2  0  0  0
 28 30  1  0  0  0
 30 31  1  0  0  0
 31 32  2  0  0  0
 19 14  1  0  0  0
 31 24  1  0  0  0
  2  5  1  0  0  0
  7  8  1  0  0  0
 10 11  1  0  0  0
 10 12  1  0  0  0
 30 33  1  0  0  0
M  END
> <minimizedAffinity>
-8.69793

> <CNNscore>
0.5575475097

> <CNNaffinity>
6.7668027878

> <CNN_VS>
3.7728140354

> <CNNaffinity_variance>
0.1391511261

$$$$
