[H]C1=C(C(=O)[O-])N2C(=O)/C(=C(\[H])c3sc4c(c3[H])C([H])([H])C([H])([H])C4([H])[H])[C@@]2([H])S1


 20 23  0  0  0  0  0  0  0  0999 V2000
   42.4816   13.2241  -15.6891 C   0  0  0  0  0  0  0  0  0  0  0  0
   42.0793   13.5765  -14.4883 C   0  0  0  0  0  0  0  0  0  0  0  0
   40.3065   13.2182  -14.4693 S   0  0  0  0  0  0  0  0  0  0  0  0
   40.1690   13.2275  -16.3184 C   0  0  0  0  0  0  0  0  0  0  0  0
   41.5187   12.6888  -16.5469 N   0  0  0  0  0  0  0  0  0  0  0  0
   40.9426   11.8901  -17.5853 C   0  0  0  0  0  0  0  0  0  0  0  0
   41.3618   11.3187  -18.6197 O   0  0  0  0  0  0  0  0  0  0  0  0
   39.6331   12.0249  -16.9109 C   0  0  0  0  0  0  0  0  0  0  0  0
   38.5452   11.3253  -16.9052 C   0  0  0  0  0  0  0  0  0  0  0  0
   37.3972   11.7416  -16.0972 C   0  0  0  0  0  0  0  0  0  0  0  0
   37.3128   12.0392  -14.7705 C   0  0  0  0  0  0  0  0  0  0  0  0
   36.0989   12.4006  -14.2753 C   0  0  0  0  0  0  0  0  0  0  0  0
   35.5820   12.8136  -12.8963 C   0  0  0  0  0  0  0  0  0  0  0  0
   34.1967   13.3079  -13.1163 C   0  0  0  0  0  0  0  0  0  0  0  0
   33.7718   12.8441  -14.4678 C   0  0  0  0  0  0  0  0  0  0  0  0
   35.0577   12.4350  -15.1505 C   0  0  0  0  0  0  0  0  0  0  0  0
   35.7639   11.9753  -16.6220 S   0  0  0  0  0  0  0  0  0  0  0  0
   44.5468   12.4624  -16.9039 O   0  0  0  0  0  0  0  0  0  0  0  0
   43.9029   13.3760  -16.0825 C   0  0  0  0  0  0  0  0  0  0  0  0
   44.5788   14.3489  -15.6774 O   0  0  0  0  0  0  0  0  0  0  0  0
 18 19  1  0  0  0
 19 20  2  0  0  0
 19  1  1  0  0  0
  1  2  2  0  0  0
  2  3  1  0  0  0
  3  4  1  0  0  0
  4  5  1  0  0  0
  5  6  1  0  0  0
  6  7  2  0  0  0
  6  8  1  0  0  0
  8  9  2  0  0  0
  9 10  1  0  0  0
 10 11  2  0  0  0
 11 12  1  0  0  0
 12 13  1  0  0  0
 13 14  1  0  0  0
 14 15  1  0  0  0
 15 16  1  0  0  0
 16 17  1  0  0  0
  5  1  1  0  0  0
 17 10  1  0  0  0
  8  4  1  0  0  0
 16 12  2  0  0  0
M  CHG 1  18  -1
M  END
> <minimizedAffinity>
-7.89468

> <CNNscore>
0.6795600653

> <CNNaffinity>
6.2335753441

> <CNN_VS>
4.2360887527

> <CNNaffinity_variance>
0.0417406783

$$$$
[H]C1=C(C(=O)[O-])N2C(=O)/C(=C(\[H])c3sc4c(c3[H])C([H])([H])C([H])([H])C4([H])[H])[C@@]2([H])S1


 20 23  0  0  0  0  0  0  0  0999 V2000
   33.9515   14.1138  -13.0953 C   0  0  0  0  0  0  0  0  0  0  0  0
   33.6317   13.3174  -14.0910 C   0  0  0  0  0  0  0  0  0  0  0  0
   35.2086   12.8843  -14.8636 S   0  0  0  0  0  0  0  0  0  0  0  0
   36.0918   14.3493  -14.1480 C   0  0  0  0  0  0  0  0  0  0  0  0
   35.3105   14.3698  -12.9017 N   0  0  0  0  0  0  0  0  0  0  0  0
   36.5379   14.6590  -12.2252 C   0  0  0  0  0  0  0  0  0  0  0  0
   36.8633   15.1951  -11.1394 O   0  0  0  0  0  0  0  0  0  0  0  0
   37.2637   14.0485  -13.3602 C   0  0  0  0  0  0  0  0  0  0  0  0
   38.4288   13.5037  -13.4976 C   0  0  0  0  0  0  0  0  0  0  0  0
   38.8531   12.9718  -14.7942 C   0  0  0  0  0  0  0  0  0  0  0  0
   38.2917   12.0120  -15.5812 C   0  0  0  0  0  0  0  0  0  0  0  0
   38.9098   11.7088  -16.7540 C   0  0  0  0  0  0  0  0  0  0  0  0
   38.6206   10.7381  -17.9000 C   0  0  0  0  0  0  0  0  0  0  0  0
   39.5761   11.0955  -18.9822 C   0  0  0  0  0  0  0  0  0  0  0  0
   40.6329   11.9523  -18.3729 C   0  0  0  0  0  0  0  0  0  0  0  0
   40.0487   12.3923  -17.0491 C   0  0  0  0  0  0  0  0  0  0  0  0
   40.2426   13.4283  -15.7208 S   0  0  0  0  0  0  0  0  0  0  0  0
   31.5709   14.2989  -12.3081 O   0  0  0  0  0  0  0  0  0  0  0  0
   32.9008   14.6827  -12.2178 C   0  0  0  0  0  0  0  0  0  0  0  0
   33.1849   15.5436  -11.3542 O   0  0  0  0  0  0  0  0  0  0  0  0
 18 19  1  0  0  0
 19 20  2  0  0  0
 19  1  1  0  0  0
  1  2  2  0  0  0
  2  3  1  0  0  0
  3  4  1  0  0  0
  4  5  1  0  0  0
  5  6  1  0  0  0
  6  7  2  0  0  0
  6  8  1  0  0  0
  8  9  2  0  0  0
  9 10  1  0  0  0
 10 11  2  0  0  0
 11 12  1  0  0  0
 12 13  1  0  0  0
 13 14  1  0  0  0
 14 15  1  0  0  0
 15 16  1  0  0  0
 16 17  1  0  0  0
  5  1  1  0  0  0
 17 10  1  0  0  0
  8  4  1  0  0  0
 16 12  2  0  0  0
M  CHG 1  18  -1
M  END
> <minimizedAffinity>
-7.79092

> <CNNscore>
0.4027196467

> <CNNaffinity>
5.9116320610

> <CNN_VS>
2.3807303905

> <CNNaffinity_variance>
0.3249722421

$$$$
[H]C1=C(C(=O)[O-])N2C(=O)/C(=C(\[H])c3sc4c(c3[H])C([H])([H])C([H])([H])C4([H])[H])[C@@]2([H])S1


 20 23  0  0  0  0  0  0  0  0999 V2000
   43.6552   12.7749  -15.8770 C   0  0  0  0  0  0  0  0  0  0  0  0
   43.7255   13.2297  -14.6456 C   0  0  0  0  0  0  0  0  0  0  0  0
   42.0069   13.5054  -14.1541 S   0  0  0  0  0  0  0  0  0  0  0  0
   41.3995   13.5845  -15.9042 C   0  0  0  0  0  0  0  0  0  0  0  0
   42.3788   12.6157  -16.4204 N   0  0  0  0  0  0  0  0  0  0  0  0
   41.3163   12.0779  -17.2140 C   0  0  0  0  0  0  0  0  0  0  0  0
   41.2313   11.4098  -18.2717 O   0  0  0  0  0  0  0  0  0  0  0  0
   40.3547   12.6483  -16.2456 C   0  0  0  0  0  0  0  0  0  0  0  0
   39.1371   12.3674  -15.9116 C   0  0  0  0  0  0  0  0  0  0  0  0
   38.4514   13.1445  -14.8772 C   0  0  0  0  0  0  0  0  0  0  0  0
   38.9392   13.7491  -13.7582 C   0  0  0  0  0  0  0  0  0  0  0  0
   38.0614   14.4126  -12.9592 C   0  0  0  0  0  0  0  0  0  0  0  0
   38.1846   15.2123  -11.6612 C   0  0  0  0  0  0  0  0  0  0  0  0
   36.8639   15.8673  -11.4642 C   0  0  0  0  0  0  0  0  0  0  0  0
   35.8929   15.1828  -12.3646 C   0  0  0  0  0  0  0  0  0  0  0  0
   36.7561   14.4184  -13.3432 C   0  0  0  0  0  0  0  0  0  0  0  0
   36.7641   13.5209  -14.7819 S   0  0  0  0  0  0  0  0  0  0  0  0
   46.1549   12.7237  -16.1415 O   0  0  0  0  0  0  0  0  0  0  0  0
   44.8881   12.4315  -16.6252 C   0  0  0  0  0  0  0  0  0  0  0  0
   44.8238   11.8592  -17.7368 O   0  0  0  0  0  0  0  0  0  0  0  0
 18 19  1  0  0  0
 19 20  2  0  0  0
 19  1  1  0  0  0
  1  2  2  0  0  0
  2  3  1  0  0  0
  3  4  1  0  0  0
  4  5  1  0  0  0
  5  6  1  0  0  0
  6  7  2  0  0  0
  6  8  1  0  0  0
  8  9  2  0  0  0
  9 10  1  0  0  0
 10 11  2  0  0  0
 11 12  1  0  0  0
 12 13  1  0  0  0
 13 14  1  0  0  0
 14 15  1  0  0  0
 15 16  1  0  0  0
 16 17  1  0  0  0
  5  1  1  0  0  0
 17 10  1  0  0  0
  8  4  1  0  0  0
 16 12  2  0  0  0
M  CHG 1  18  -1
M  END
> <minimizedAffinity>
-7.17189

> <CNNscore>
0.3844642639

> <CNNaffinity>
5.6333742142

> <CNN_VS>
2.1658310890

> <CNNaffinity_variance>
0.1767552793

$$$$
[H]C1=C(C(=O)[O-])N2C(=O)/C(=C(\[H])c3sc4c(c3[H])C([H])([H])C([H])([H])C4([H])[H])[C@@]2([H])S1


 20 23  0  0  0  0  0  0  0  0999 V2000
   38.4986   11.6913  -16.8945 C   0  0  0  0  0  0  0  0  0  0  0  0
   39.3572   12.2411  -16.0648 C   0  0  0  0  0  0  0  0  0  0  0  0
   38.3465   12.8826  -14.7090 S   0  0  0  0  0  0  0  0  0  0  0  0
   36.7955   12.9061  -15.7248 C   0  0  0  0  0  0  0  0  0  0  0  0
   37.1523   11.7245  -16.5253 N   0  0  0  0  0  0  0  0  0  0  0  0
   35.7839   11.3234  -16.4058 C   0  0  0  0  0  0  0  0  0  0  0  0
   35.0023   10.5846  -17.0504 O   0  0  0  0  0  0  0  0  0  0  0  0
   35.6853   12.1558  -15.1871 C   0  0  0  0  0  0  0  0  0  0  0  0
   34.9178   12.1435  -14.1461 C   0  0  0  0  0  0  0  0  0  0  0  0
   35.0939   13.1322  -13.0804 C   0  0  0  0  0  0  0  0  0  0  0  0
   36.0743   13.2544  -12.1426 C   0  0  0  0  0  0  0  0  0  0  0  0
   35.9844   14.2834  -11.2582 C   0  0  0  0  0  0  0  0  0  0  0  0
   36.8455   14.7767  -10.0943 C   0  0  0  0  0  0  0  0  0  0  0  0
   36.2854   16.1000   -9.7107 C   0  0  0  0  0  0  0  0  0  0  0  0
   34.9352   16.2053  -10.3337 C   0  0  0  0  0  0  0  0  0  0  0  0
   34.9137   15.1141  -11.3805 C   0  0  0  0  0  0  0  0  0  0  0  0
   34.0624   14.4691  -12.6975 S   0  0  0  0  0  0  0  0  0  0  0  0
   40.3068   10.9931  -18.4958 O   0  0  0  0  0  0  0  0  0  0  0  0
   38.9654   11.0507  -18.1473 C   0  0  0  0  0  0  0  0  0  0  0  0
   38.1499   10.5344  -18.9448 O   0  0  0  0  0  0  0  0  0  0  0  0
 18 19  1  0  0  0
 19 20  2  0  0  0
 19  1  1  0  0  0
  1  2  2  0  0  0
  2  3  1  0  0  0
  3  4  1  0  0  0
  4  5  1  0  0  0
  5  6  1  0  0  0
  6  7  2  0  0  0
  6  8  1  0  0  0
  8  9  2  0  0  0
  9 10  1  0  0  0
 10 11  2  0  0  0
 11 12  1  0  0  0
 12 13  1  0  0  0
 13 14  1  0  0  0
 14 15  1  0  0  0
 15 16  1  0  0  0
 16 17  1  0  0  0
  5  1  1  0  0  0
 17 10  1  0  0  0
  8  4  1  0  0  0
 16 12  2  0  0  0
M  CHG 1  18  -1
M  END
> <minimizedAffinity>
-7.04784

> <CNNscore>
0.2838510871

> <CNNaffinity>
5.7193698883

> <CNN_VS>
1.6234493256

> <CNNaffinity_variance>
0.1182817966

$$$$
[H]C1=C(C(=O)[O-])N2C(=O)/C(=C(\[H])c3sc4c(c3[H])C([H])([H])C([H])([H])C4([H])[H])[C@@]2([H])S1


 20 23  0  0  0  0  0  0  0  0999 V2000
   35.4639   11.4154  -16.0690 C   0  0  0  0  0  0  0  0  0  0  0  0
   35.2077   12.2506  -15.0868 C   0  0  0  0  0  0  0  0  0  0  0  0
   36.8083   12.9833  -14.6715 S   0  0  0  0  0  0  0  0  0  0  0  0
   37.7706   11.5999  -15.4449 C   0  0  0  0  0  0  0  0  0  0  0  0
   36.7873   11.3429  -16.5085 N   0  0  0  0  0  0  0  0  0  0  0  0
   37.8997   11.1711  -17.3922 C   0  0  0  0  0  0  0  0  0  0  0  0
   38.1025   10.5840  -18.4814 O   0  0  0  0  0  0  0  0  0  0  0  0
   38.7130   11.9897  -16.4669 C   0  0  0  0  0  0  0  0  0  0  0  0
   39.7794   12.7097  -16.5994 C   0  0  0  0  0  0  0  0  0  0  0  0
   40.3429   13.4229  -15.4513 C   0  0  0  0  0  0  0  0  0  0  0  0
   41.5351   13.2640  -14.8117 C   0  0  0  0  0  0  0  0  0  0  0  0
   41.8029   14.0756  -13.7540 C   0  0  0  0  0  0  0  0  0  0  0  0
   42.9850   14.2363  -12.7967 C   0  0  0  0  0  0  0  0  0  0  0  0
   42.7133   15.4785  -12.0253 C   0  0  0  0  0  0  0  0  0  0  0  0
   41.2747   15.8152  -12.2230 C   0  0  0  0  0  0  0  0  0  0  0  0
   40.8512   14.9872  -13.4155 C   0  0  0  0  0  0  0  0  0  0  0  0
   39.6206   14.7121  -14.5492 S   0  0  0  0  0  0  0  0  0  0  0  0
   33.2519   11.2009  -17.2447 O   0  0  0  0  0  0  0  0  0  0  0  0
   34.3761   10.6155  -16.6813 C   0  0  0  0  0  0  0  0  0  0  0  0
   34.4380    9.3653  -16.7078 O   0  0  0  0  0  0  0  0  0  0  0  0
 18 19  1  0  0  0
 19 20  2  0  0  0
 19  1  1  0  0  0
  1  2  2  0  0  0
  2  3  1  0  0  0
  3  4  1  0  0  0
  4  5  1  0  0  0
  5  6  1  0  0  0
  6  7  2  0  0  0
  6  8  1  0  0  0
  8  9  2  0  0  0
  9 10  1  0  0  0
 10 11  2  0  0  0
 11 12  1  0  0  0
 12 13  1  0  0  0
 13 14  1  0  0  0
 14 15  1  0  0  0
 15 16  1  0  0  0
 16 17  1  0  0  0
  5  1  1  0  0  0
 17 10  1  0  0  0
  8  4  1  0  0  0
 16 12  2  0  0  0
M  CHG 1  18  -1
M  END
> <minimizedAffinity>
-7.61984

> <CNNscore>
0.2819534242

> <CNNaffinity>
5.9158091545

> <CNN_VS>
1.6679826975

> <CNNaffinity_variance>
0.0549211912

$$$$
[H]C1=C(C(=O)[O-])N2C(=O)/C(=C(\[H])c3sc4c(c3[H])C([H])([H])C([H])([H])C4([H])[H])[C@@]2([H])S1


 20 23  0  0  0  0  0  0  0  0999 V2000
   35.6521   14.0044  -13.5622 C   0  0  0  0  0  0  0  0  0  0  0  0
   36.5031   14.8844  -13.0832 C   0  0  0  0  0  0  0  0  0  0  0  0
   38.0915   14.4480  -13.8300 S   0  0  0  0  0  0  0  0  0  0  0  0
   37.5625   12.7133  -14.2164 C   0  0  0  0  0  0  0  0  0  0  0  0
   36.1552   13.0638  -14.4632 N   0  0  0  0  0  0  0  0  0  0  0  0
   36.1977   12.1472  -15.5614 C   0  0  0  0  0  0  0  0  0  0  0  0
   35.3575   11.4821  -16.2125 O   0  0  0  0  0  0  0  0  0  0  0  0
   37.6658   12.3229  -15.6026 C   0  0  0  0  0  0  0  0  0  0  0  0
   38.5664   12.1760  -16.5193 C   0  0  0  0  0  0  0  0  0  0  0  0
   39.9753   12.4497  -16.2286 C   0  0  0  0  0  0  0  0  0  0  0  0
   40.5519   13.0744  -15.1642 C   0  0  0  0  0  0  0  0  0  0  0  0
   41.9064   13.1949  -15.1543 C   0  0  0  0  0  0  0  0  0  0  0  0
   42.9236   13.7934  -14.1814 C   0  0  0  0  0  0  0  0  0  0  0  0
   44.2582   13.3670  -14.6804 C   0  0  0  0  0  0  0  0  0  0  0  0
   44.0739   12.8881  -16.0800 C   0  0  0  0  0  0  0  0  0  0  0  0
   42.5823   12.6795  -16.2168 C   0  0  0  0  0  0  0  0  0  0  0  0
   41.3525   12.0451  -17.1967 S   0  0  0  0  0  0  0  0  0  0  0  0
   33.2733   13.2092  -13.7350 O   0  0  0  0  0  0  0  0  0  0  0  0
   34.2239   14.0444  -13.1668 C   0  0  0  0  0  0  0  0  0  0  0  0
   33.8235   14.8481  -12.2942 O   0  0  0  0  0  0  0  0  0  0  0  0
 18 19  1  0  0  0
 19 20  2  0  0  0
 19  1  1  0  0  0
  1  2  2  0  0  0
  2  3  1  0  0  0
  3  4  1  0  0  0
  4  5  1  0  0  0
  5  6  1  0  0  0
  6  7  2  0  0  0
  6  8  1  0  0  0
  8  9  2  0  0  0
  9 10  1  0  0  0
 10 11  2  0  0  0
 11 12  1  0  0  0
 12 13  1  0  0  0
 13 14  1  0  0  0
 14 15  1  0  0  0
 15 16  1  0  0  0
 16 17  1  0  0  0
  5  1  1  0  0  0
 17 10  1  0  0  0
  8  4  1  0  0  0
 16 12  2  0  0  0
M  CHG 1  18  -1
M  END
> <minimizedAffinity>
-7.50031

> <CNNscore>
0.2764249146

> <CNNaffinity>
5.6906771660

> <CNN_VS>
1.5730448961

> <CNNaffinity_variance>
0.2241319418

$$$$
[H]C1=C(C(=O)[O-])N2C(=O)/C(=C(\[H])c3sc4c(c3[H])C([H])([H])C([H])([H])C4([H])[H])[C@@]2([H])S1


 20 23  0  0  0  0  0  0  0  0999 V2000
   37.2492   15.9313  -10.1023 C   0  0  0  0  0  0  0  0  0  0  0  0
   38.4747   16.1372  -10.5311 C   0  0  0  0  0  0  0  0  0  0  0  0
   39.5394   15.4484   -9.2414 S   0  0  0  0  0  0  0  0  0  0  0  0
   38.2151   15.5289   -7.9460 C   0  0  0  0  0  0  0  0  0  0  0  0
   37.1095   15.2689   -8.8810 N   0  0  0  0  0  0  0  0  0  0  0  0
   36.5475   14.4312   -7.8660 C   0  0  0  0  0  0  0  0  0  0  0  0
   35.4031   14.0050   -7.5815 O   0  0  0  0  0  0  0  0  0  0  0  0
   37.9029   14.2793   -7.2936 C   0  0  0  0  0  0  0  0  0  0  0  0
   38.4739   13.3866   -6.5520 C   0  0  0  0  0  0  0  0  0  0  0  0
   39.8760   13.5343   -6.1563 C   0  0  0  0  0  0  0  0  0  0  0  0
   40.5155   14.5676   -5.5407 C   0  0  0  0  0  0  0  0  0  0  0  0
   41.8458   14.4350   -5.2917 C   0  0  0  0  0  0  0  0  0  0  0  0
   42.9075   15.3169   -4.6326 C   0  0  0  0  0  0  0  0  0  0  0  0
   44.1090   14.4542   -4.4777 C   0  0  0  0  0  0  0  0  0  0  0  0
   43.9122   13.2623   -5.3511 C   0  0  0  0  0  0  0  0  0  0  0  0
   42.4365   13.2729   -5.6814 C   0  0  0  0  0  0  0  0  0  0  0  0
   41.1617   12.3953   -6.3742 S   0  0  0  0  0  0  0  0  0  0  0  0
   34.7893   15.9673  -10.6206 O   0  0  0  0  0  0  0  0  0  0  0  0
   36.0849   16.3707  -10.9080 C   0  0  0  0  0  0  0  0  0  0  0  0
   36.2371   17.1309  -11.8911 O   0  0  0  0  0  0  0  0  0  0  0  0
 18 19  1  0  0  0
 19 20  2  0  0  0
 19  1  1  0  0  0
  1  2  2  0  0  0
  2  3  1  0  0  0
  3  4  1  0  0  0
  4  5  1  0  0  0
  5  6  1  0  0  0
  6  7  2  0  0  0
  6  8  1  0  0  0
  8  9  2  0  0  0
  9 10  1  0  0  0
 10 11  2  0  0  0
 11 12  1  0  0  0
 12 13  1  0  0  0
 13 14  1  0  0  0
 14 15  1  0  0  0
 15 16  1  0  0  0
 16 17  1  0  0  0
  5  1  1  0  0  0
 17 10  1  0  0  0
  8  4  1  0  0  0
 16 12  2  0  0  0
M  CHG 1  18  -1
M  END
> <minimizedAffinity>
-4.88862

> <CNNscore>
0.2732389867

> <CNNaffinity>
4.1949682236

> <CNN_VS>
1.1462289095

> <CNNaffinity_variance>
0.6529738903

$$$$
[H]C1=C(C(=O)[O-])N2C(=O)/C(=C(\[H])c3sc4c(c3[H])C([H])([H])C([H])([H])C4([H])[H])[C@@]2([H])S1


 20 23  0  0  0  0  0  0  0  0999 V2000
   35.3379   14.7916  -12.3190 C   0  0  0  0  0  0  0  0  0  0  0  0
   34.6190   13.9769  -13.0588 C   0  0  0  0  0  0  0  0  0  0  0  0
   35.7933   13.2561  -14.2305 S   0  0  0  0  0  0  0  0  0  0  0  0
   37.0254   14.6246  -14.0129 C   0  0  0  0  0  0  0  0  0  0  0  0
   36.7049   14.8572  -12.5960 N   0  0  0  0  0  0  0  0  0  0  0  0
   38.1112   15.0124  -12.3810 C   0  0  0  0  0  0  0  0  0  0  0  0
   38.8349   15.5767  -11.5266 O   0  0  0  0  0  0  0  0  0  0  0  0
   38.3481   14.2150  -13.6041 C   0  0  0  0  0  0  0  0  0  0  0  0
   39.3322   13.4944  -14.0345 C   0  0  0  0  0  0  0  0  0  0  0  0
   39.2424   12.8068  -15.3242 C   0  0  0  0  0  0  0  0  0  0  0  0
   38.2861   11.9690  -15.8133 C   0  0  0  0  0  0  0  0  0  0  0  0
   38.4620   11.4631  -17.0633 C   0  0  0  0  0  0  0  0  0  0  0  0
   37.6546   10.5299  -17.9669 C   0  0  0  0  0  0  0  0  0  0  0  0
   38.3139   10.5881  -19.2988 C   0  0  0  0  0  0  0  0  0  0  0  0
   39.6597   11.1974  -19.0990 C   0  0  0  0  0  0  0  0  0  0  0  0
   39.5881   11.8357  -17.7299 C   0  0  0  0  0  0  0  0  0  0  0  0
   40.3728   12.8650  -16.6344 S   0  0  0  0  0  0  0  0  0  0  0  0
   33.3318   15.6322  -11.0579 O   0  0  0  0  0  0  0  0  0  0  0  0
   34.7070   15.5763  -11.2308 C   0  0  0  0  0  0  0  0  0  0  0  0
   35.4071   16.2258  -10.4212 O   0  0  0  0  0  0  0  0  0  0  0  0
 18 19  1  0  0  0
 19 20  2  0  0  0
 19  1  1  0  0  0
  1  2  2  0  0  0
  2  3  1  0  0  0
  3  4  1  0  0  0
  4  5  1  0  0  0
  5  6  1  0  0  0
  6  7  2  0  0  0
  6  8  1  0  0  0
  8  9  2  0  0  0
  9 10  1  0  0  0
 10 11  2  0  0  0
 11 12  1  0  0  0
 12 13  1  0  0  0
 13 14  1  0  0  0
 14 15  1  0  0  0
 15 16  1  0  0  0
 16 17  1  0  0  0
  5  1  1  0  0  0
 17 10  1  0  0  0
  8  4  1  0  0  0
 16 12  2  0  0  0
M  CHG 1  18  -1
M  END
> <minimizedAffinity>
-7.74378

> <CNNscore>
0.2627516389

> <CNNaffinity>
5.6285066605

> <CNN_VS>
1.4788993597

> <CNNaffinity_variance>
0.2783023417

$$$$
[H]C1=C(C(=O)[O-])N2C(=O)/C(=C(\[H])c3sc4c(c3[H])C([H])([H])C([H])([H])C4([H])[H])[C@@]2([H])S1


 20 23  0  0  0  0  0  0  0  0999 V2000
   34.6731   11.9352  -15.4007 C   0  0  0  0  0  0  0  0  0  0  0  0
   33.6506   12.3680  -14.6971 C   0  0  0  0  0  0  0  0  0  0  0  0
   34.3796   13.4130  -13.4135 S   0  0  0  0  0  0  0  0  0  0  0  0
   36.0554   12.6352  -13.5720 C   0  0  0  0  0  0  0  0  0  0  0  0
   35.9393   12.3814  -15.0164 N   0  0  0  0  0  0  0  0  0  0  0  0
   37.3070   12.7888  -15.1219 C   0  0  0  0  0  0  0  0  0  0  0  0
   38.2446   12.5955  -15.9317 O   0  0  0  0  0  0  0  0  0  0  0  0
   37.1405   13.5429  -13.8603 C   0  0  0  0  0  0  0  0  0  0  0  0
   37.7413   14.5585  -13.3305 C   0  0  0  0  0  0  0  0  0  0  0  0
   37.3122   15.0825  -12.0322 C   0  0  0  0  0  0  0  0  0  0  0  0
   37.7222   14.7646  -10.7727 C   0  0  0  0  0  0  0  0  0  0  0  0
   37.1414   15.4173   -9.7306 C   0  0  0  0  0  0  0  0  0  0  0  0
   37.3092   15.3765   -8.2109 C   0  0  0  0  0  0  0  0  0  0  0  0
   36.5265   16.5277   -7.6876 C   0  0  0  0  0  0  0  0  0  0  0  0
   35.6245   16.9831   -8.7837 C   0  0  0  0  0  0  0  0  0  0  0  0
   36.1891   16.3414  -10.0314 C   0  0  0  0  0  0  0  0  0  0  0  0
   36.1146   16.2944  -11.7247 S   0  0  0  0  0  0  0  0  0  0  0  0
   33.2730   11.0050  -17.2703 O   0  0  0  0  0  0  0  0  0  0  0  0
   34.4636   11.0342  -16.5592 C   0  0  0  0  0  0  0  0  0  0  0  0
   35.3691   10.2567  -16.9375 O   0  0  0  0  0  0  0  0  0  0  0  0
 18 19  1  0  0  0
 19 20  2  0  0  0
 19  1  1  0  0  0
  1  2  2  0  0  0
  2  3  1  0  0  0
  3  4  1  0  0  0
  4  5  1  0  0  0
  5  6  1  0  0  0
  6  7  2  0  0  0
  6  8  1  0  0  0
  8  9  2  0  0  0
  9 10  1  0  0  0
 10 11  2  0  0  0
 11 12  1  0  0  0
 12 13  1  0  0  0
 13 14  1  0  0  0
 14 15  1  0  0  0
 15 16  1  0  0  0
 16 17  1  0  0  0
  5  1  1  0  0  0
 17 10  1  0  0  0
  8  4  1  0  0  0
 16 12  2  0  0  0
M  CHG 1  18  -1
M  END
> <minimizedAffinity>
-6.66653

> <CNNscore>
0.2439482659

> <CNNaffinity>
5.3524832726

> <CNN_VS>
1.3057290316

> <CNNaffinity_variance>
0.2100453824

$$$$
[H]c1nc(N([H])[H])c2c(-c3c([H])c([H])c(N([H])C(=O)c4c([H])c([H])c([H])n(-c5c([H])c([H])c(F)c([H])c5[H])c4=O)c([H])c3[H])c([H])c(C3([H])C([H])([H])C3([H])[H])n2n1


 39 44  0  0  0  0  0  0  0  0999 V2000
   37.6393   12.9299  -14.5792 C   0  0  0  0  0  0  0  0  0  0  0  0
   36.7494   13.9145  -14.9391 C   0  0  0  0  0  0  0  0  0  0  0  0
   35.6170   14.1553  -14.2107 C   0  0  0  0  0  0  0  0  0  0  0  0
   35.3349   13.3976  -13.0699 C   0  0  0  0  0  0  0  0  0  0  0  0
   36.2471   12.4198  -12.7372 C   0  0  0  0  0  0  0  0  0  0  0  0
   37.3960   12.1834  -13.4852 C   0  0  0  0  0  0  0  0  0  0  0  0
   36.7731   11.1400  -17.0238 N   0  0  0  0  0  0  0  0  0  0  0  0
   38.1420   11.3240  -17.3531 C   0  0  0  0  0  0  0  0  0  0  0  0
   38.5783   10.7287  -18.4806 N   0  0  0  0  0  0  0  0  0  0  0  0
   39.8731   10.8893  -18.8490 C   0  0  0  0  0  0  0  0  0  0  0  0
   40.7242   11.6283  -18.1138 N   0  0  0  0  0  0  0  0  0  0  0  0
   40.2931   12.2043  -17.0184 N   0  0  0  0  0  0  0  0  0  0  0  0
   40.9774   12.9864  -16.1495 C   0  0  0  0  0  0  0  0  0  0  0  0
   40.0891   13.3539  -15.1652 C   0  0  0  0  0  0  0  0  0  0  0  0
   38.8391   12.7895  -15.4299 C   0  0  0  0  0  0  0  0  0  0  0  0
   39.0019   12.0798  -16.5939 C   0  0  0  0  0  0  0  0  0  0  0  0
   36.4113   10.2011  -16.7125 H   0  0  0  0  0  0  0  0  0  0  0  0
   36.0607   11.9041  -17.0712 H   0  0  0  0  0  0  0  0  0  0  0  0
   42.3937   13.4180  -16.1814 C   0  0  0  0  0  0  0  0  0  0  0  0
   43.4884   12.4158  -16.2049 C   0  0  0  0  0  0  0  0  0  0  0  0
   43.1939   13.0966  -14.9183 C   0  0  0  0  0  0  0  0  0  0  0  0
   34.1450   13.6963  -12.3644 N   0  0  0  0  0  0  0  0  0  0  0  0
   33.7882   14.9120  -11.7573 C   0  0  0  0  0  0  0  0  0  0  0  0
   34.5362   15.9540  -11.7509 O   0  0  0  0  0  0  0  0  0  0  0  0
   33.4740   12.8713  -12.2725 H   0  0  0  0  0  0  0  0  0  0  0  0
   32.4914   15.0564  -11.0682 C   0  0  0  0  0  0  0  0  0  0  0  0
   31.3428   14.5862  -11.7173 C   0  0  0  0  0  0  0  0  0  0  0  0
   30.1247   14.7394  -11.1211 C   0  0  0  0  0  0  0  0  0  0  0  0
   30.0398   15.3507   -9.8943 C   0  0  0  0  0  0  0  0  0  0  0  0
   31.1489   15.7960   -9.2811 N   0  0  0  0  0  0  0  0  0  0  0  0
   32.3714   15.6499   -9.8651 C   0  0  0  0  0  0  0  0  0  0  0  0
   33.3268   16.1038   -9.1916 O   0  0  0  0  0  0  0  0  0  0  0  0
   31.0391   16.4134   -8.0049 C   0  0  0  0  0  0  0  0  0  0  0  0
   30.7464   17.7356   -7.8611 C   0  0  0  0  0  0  0  0  0  0  0  0
   30.6417   18.3438   -6.6196 C   0  0  0  0  0  0  0  0  0  0  0  0
   30.8493   17.5425   -5.5017 C   0  0  0  0  0  0  0  0  0  0  0  0
   30.7535   18.1209   -4.2856 F   0  0  0  0  0  0  0  0  0  0  0  0
   31.1440   16.2120   -5.6145 C   0  0  0  0  0  0  0  0  0  0  0  0
   31.2376   15.6514   -6.8816 C   0  0  0  0  0  0  0  0  0  0  0  0
  7  8  1  0  0  0
  8  9  2  0  0  0
  9 10  1  0  0  0
 10 11  2  0  0  0
 11 12  1  0  0  0
 12 13  1  0  0  0
 13 14  2  0  0  0
 14 15  1  0  0  0
 15  1  1  0  0  0
  1  2  2  0  0  0
  2  3  1  0  0  0
  3  4  2  0  0  0
  4 22  1  0  0  0
 22 23  1  0  0  0
 23 24  2  0  0  0
 23 26  1  0  0  0
 26 27  2  0  0  0
 27 28  1  0  0  0
 28 29  2  0  0  0
 29 30  1  0  0  0
 30 33  1  0  0  0
 33 34  2  0  0  0
 34 35  1  0  0  0
 35 36  2  0  0  0
 36 37  1  0  0  0
 36 38  1  0  0  0
 38 39  2  0  0  0
 30 31  1  0  0  0
 31 32  2  0  0  0
  4  5  1  0  0  0
  5  6  2  0  0  0
 15 16  2  0  0  0
 13 19  1  0  0  0
 19 20  1  0  0  0
 20 21  1  0  0  0
 16  8  1  0  0  0
 21 19  1  0  0  0
 16 12  1  0  0  0
  6  1  1  0  0  0
 31 26  1  0  0  0
 39 33  1  0  0  0
  7 17  1  0  0  0
  7 18  1  0  0  0
 22 25  1  0  0  0
M  END
> <minimizedAffinity>
-9.95293

> <CNNscore>
0.3858185709

> <CNNaffinity>
7.0294151306

> <CNN_VS>
2.7120788097

> <CNNaffinity_variance>
0.5550725460

$$$$
[H]c1nc(N([H])[H])c2c(-c3c([H])c([H])c(N([H])C(=O)c4c([H])c([H])c([H])n(-c5c([H])c([H])c(F)c([H])c5[H])c4=O)c([H])c3[H])c([H])c(C3([H])C([H])([H])C3([H])[H])n2n1


 39 44  0  0  0  0  0  0  0  0999 V2000
   36.5216   13.5777  -13.5691 C   0  0  0  0  0  0  0  0  0  0  0  0
   36.6309   14.9201  -13.8472 C   0  0  0  0  0  0  0  0  0  0  0  0
   36.5459   15.8634  -12.8604 C   0  0  0  0  0  0  0  0  0  0  0  0
   36.3442   15.4806  -11.5308 C   0  0  0  0  0  0  0  0  0  0  0  0
   36.2394   14.1284  -11.2869 C   0  0  0  0  0  0  0  0  0  0  0  0
   36.3274   13.1772  -12.2983 C   0  0  0  0  0  0  0  0  0  0  0  0
   33.5931   12.7555  -14.3925 N   0  0  0  0  0  0  0  0  0  0  0  0
   34.3184   11.9788  -15.3342 C   0  0  0  0  0  0  0  0  0  0  0  0
   33.5931   11.2183  -16.1777 N   0  0  0  0  0  0  0  0  0  0  0  0
   34.2378   10.4722  -17.1081 C   0  0  0  0  0  0  0  0  0  0  0  0
   35.5801   10.4784  -17.2039 N   0  0  0  0  0  0  0  0  0  0  0  0
   36.2792   11.2204  -16.3803 N   0  0  0  0  0  0  0  0  0  0  0  0
   37.6236   11.3725  -16.3140 C   0  0  0  0  0  0  0  0  0  0  0  0
   37.8706   12.2587  -15.2910 C   0  0  0  0  0  0  0  0  0  0  0  0
   36.6614   12.6583  -14.7171 C   0  0  0  0  0  0  0  0  0  0  0  0
   35.6892   11.9924  -15.4217 C   0  0  0  0  0  0  0  0  0  0  0  0
   33.0762   12.2994  -13.5961 H   0  0  0  0  0  0  0  0  0  0  0  0
   33.5283   13.7985  -14.4328 H   0  0  0  0  0  0  0  0  0  0  0  0
   38.6854   10.7566  -17.1425 C   0  0  0  0  0  0  0  0  0  0  0  0
   39.8202   11.5714  -17.6440 C   0  0  0  0  0  0  0  0  0  0  0  0
   38.7294   11.2359  -18.5942 C   0  0  0  0  0  0  0  0  0  0  0  0
   36.2621   16.5072  -10.5601 N   0  0  0  0  0  0  0  0  0  0  0  0
   37.3213   17.2044   -9.9553 C   0  0  0  0  0  0  0  0  0  0  0  0
   38.5593   16.9805  -10.2056 O   0  0  0  0  0  0  0  0  0  0  0  0
   35.2668   16.7335  -10.2481 H   0  0  0  0  0  0  0  0  0  0  0  0
   37.0550   18.2640   -8.9635 C   0  0  0  0  0  0  0  0  0  0  0  0
   37.8624   19.4082   -8.9867 C   0  0  0  0  0  0  0  0  0  0  0  0
   37.6641   20.3886   -8.0582 C   0  0  0  0  0  0  0  0  0  0  0  0
   36.6770   20.2424   -7.1147 C   0  0  0  0  0  0  0  0  0  0  0  0
   35.9080   19.1411   -7.1038 N   0  0  0  0  0  0  0  0  0  0  0  0
   36.0954   18.1543   -8.0247 C   0  0  0  0  0  0  0  0  0  0  0  0
   35.3130   17.1811   -7.9102 O   0  0  0  0  0  0  0  0  0  0  0  0
   34.8827   19.0170   -6.1265 C   0  0  0  0  0  0  0  0  0  0  0  0
   35.0423   18.2722   -4.9976 C   0  0  0  0  0  0  0  0  0  0  0  0
   34.0450   18.1446   -4.0430 C   0  0  0  0  0  0  0  0  0  0  0  0
   32.8505   18.8167   -4.2806 C   0  0  0  0  0  0  0  0  0  0  0  0
   31.8685   18.7000   -3.3616 F   0  0  0  0  0  0  0  0  0  0  0  0
   32.6610   19.5725   -5.4043 C   0  0  0  0  0  0  0  0  0  0  0  0
   33.6921   19.6675   -6.3298 C   0  0  0  0  0  0  0  0  0  0  0  0
  7  8  1  0  0  0
  8  9  2  0  0  0
  9 10  1  0  0  0
 10 11  2  0  0  0
 11 12  1  0  0  0
 12 13  1  0  0  0
 13 14  2  0  0  0
 14 15  1  0  0  0
 15  1  1  0  0  0
  1  2  2  0  0  0
  2  3  1  0  0  0
  3  4  2  0  0  0
  4 22  1  0  0  0
 22 23  1  0  0  0
 23 24  2  0  0  0
 23 26  1  0  0  0
 26 27  2  0  0  0
 27 28  1  0  0  0
 28 29  2  0  0  0
 29 30  1  0  0  0
 30 33  1  0  0  0
 33 34  2  0  0  0
 34 35  1  0  0  0
 35 36  2  0  0  0
 36 37  1  0  0  0
 36 38  1  0  0  0
 38 39  2  0  0  0
 30 31  1  0  0  0
 31 32  2  0  0  0
  4  5  1  0  0  0
  5  6  2  0  0  0
 15 16  2  0  0  0
 13 19  1  0  0  0
 19 20  1  0  0  0
 20 21  1  0  0  0
 16  8  1  0  0  0
 21 19  1  0  0  0
 16 12  1  0  0  0
  6  1  1  0  0  0
 31 26  1  0  0  0
 39 33  1  0  0  0
  7 17  1  0  0  0
  7 18  1  0  0  0
 22 25  1  0  0  0
M  END
> <minimizedAffinity>
-9.33577

> <CNNscore>
0.3125378788

> <CNNaffinity>
6.9529433250

> <CNN_VS>
2.1730582714

> <CNNaffinity_variance>
0.2480932027

$$$$
[H]c1nc(N([H])[H])c2c(-c3c([H])c([H])c(N([H])C(=O)c4c([H])c([H])c([H])n(-c5c([H])c([H])c(F)c([H])c5[H])c4=O)c([H])c3[H])c([H])c(C3([H])C([H])([H])C3([H])[H])n2n1


 39 44  0  0  0  0  0  0  0  0999 V2000
   40.2615   13.0184  -15.3287 C   0  0  0  0  0  0  0  0  0  0  0  0
   40.7006   13.5859  -14.1556 C   0  0  0  0  0  0  0  0  0  0  0  0
   42.0214   13.8785  -13.9540 C   0  0  0  0  0  0  0  0  0  0  0  0
   42.9666   13.6047  -14.9473 C   0  0  0  0  0  0  0  0  0  0  0  0
   42.4932   13.0366  -16.1101 C   0  0  0  0  0  0  0  0  0  0  0  0
   41.1473   12.7432  -16.3048 C   0  0  0  0  0  0  0  0  0  0  0  0
   39.8875   10.9347  -17.6629 N   0  0  0  0  0  0  0  0  0  0  0  0
   38.5236   11.1475  -17.3302 C   0  0  0  0  0  0  0  0  0  0  0  0
   37.6116   10.4662  -18.0513 N   0  0  0  0  0  0  0  0  0  0  0  0
   36.2965   10.6204  -17.7604 C   0  0  0  0  0  0  0  0  0  0  0  0
   35.8887   11.4358  -16.7704 N   0  0  0  0  0  0  0  0  0  0  0  0
   36.7812   12.0953  -16.0732 N   0  0  0  0  0  0  0  0  0  0  0  0
   36.5838   12.9519  -15.0426 C   0  0  0  0  0  0  0  0  0  0  0  0
   37.8282   13.3797  -14.6409 C   0  0  0  0  0  0  0  0  0  0  0  0
   38.8074   12.7794  -15.4358 C   0  0  0  0  0  0  0  0  0  0  0  0
   38.1193   11.9836  -16.3180 C   0  0  0  0  0  0  0  0  0  0  0  0
   40.2862   11.2889  -18.5712 H   0  0  0  0  0  0  0  0  0  0  0  0
   40.5595   10.4255  -17.0441 H   0  0  0  0  0  0  0  0  0  0  0  0
   35.3196   13.3878  -14.4062 C   0  0  0  0  0  0  0  0  0  0  0  0
   35.3301   14.0321  -13.0690 C   0  0  0  0  0  0  0  0  0  0  0  0
   34.9263   12.6054  -13.1523 C   0  0  0  0  0  0  0  0  0  0  0  0
   44.3165   13.9290  -14.6724 N   0  0  0  0  0  0  0  0  0  0  0  0
   45.4676   13.2387  -15.0874 C   0  0  0  0  0  0  0  0  0  0  0  0
   45.4430   12.1661  -15.7906 O   0  0  0  0  0  0  0  0  0  0  0  0
   44.4405   14.7855  -14.0477 H   0  0  0  0  0  0  0  0  0  0  0  0
   46.8107   13.7266  -14.7195 C   0  0  0  0  0  0  0  0  0  0  0  0
   47.8297   12.7827  -14.5392 C   0  0  0  0  0  0  0  0  0  0  0  0
   49.0730   13.2008  -14.1625 C   0  0  0  0  0  0  0  0  0  0  0  0
   49.3101   14.5391  -13.9658 C   0  0  0  0  0  0  0  0  0  0  0  0
   48.3250   15.4349  -14.1436 N   0  0  0  0  0  0  0  0  0  0  0  0
   47.0789   15.0313  -14.5192 C   0  0  0  0  0  0  0  0  0  0  0  0
   46.2496   15.9621  -14.6543 O   0  0  0  0  0  0  0  0  0  0  0  0
   48.5965   16.8169  -13.9479 C   0  0  0  0  0  0  0  0  0  0  0  0
   49.0909   17.6071  -14.9407 C   0  0  0  0  0  0  0  0  0  0  0  0
   49.3609   18.9543  -14.7548 C   0  0  0  0  0  0  0  0  0  0  0  0
   49.1043   19.4841  -13.4945 C   0  0  0  0  0  0  0  0  0  0  0  0
   49.3648   20.7939  -13.2969 F   0  0  0  0  0  0  0  0  0  0  0  0
   48.6073   18.7158  -12.4783 C   0  0  0  0  0  0  0  0  0  0  0  0
   48.3543   17.3713  -12.7167 C   0  0  0  0  0  0  0  0  0  0  0  0
  7  8  1  0  0  0
  8  9  2  0  0  0
  9 10  1  0  0  0
 10 11  2  0  0  0
 11 12  1  0  0  0
 12 13  1  0  0  0
 13 14  2  0  0  0
 14 15  1  0  0  0
 15  1  1  0  0  0
  1  2  2  0  0  0
  2  3  1  0  0  0
  3  4  2  0  0  0
  4 22  1  0  0  0
 22 23  1  0  0  0
 23 24  2  0  0  0
 23 26  1  0  0  0
 26 27  2  0  0  0
 27 28  1  0  0  0
 28 29  2  0  0  0
 29 30  1  0  0  0
 30 33  1  0  0  0
 33 34  2  0  0  0
 34 35  1  0  0  0
 35 36  2  0  0  0
 36 37  1  0  0  0
 36 38  1  0  0  0
 38 39  2  0  0  0
 30 31  1  0  0  0
 31 32  2  0  0  0
  4  5  1  0  0  0
  5  6  2  0  0  0
 15 16  2  0  0  0
 13 19  1  0  0  0
 19 20  1  0  0  0
 20 21  1  0  0  0
 16  8  1  0  0  0
 21 19  1  0  0  0
 16 12  1  0  0  0
  6  1  1  0  0  0
 31 26  1  0  0  0
 39 33  1  0  0  0
  7 17  1  0  0  0
  7 18  1  0  0  0
 22 25  1  0  0  0
M  END
> <minimizedAffinity>
-9.02361

> <CNNscore>
0.3088969290

> <CNNaffinity>
7.1003770828

> <CNN_VS>
2.1932847500

> <CNNaffinity_variance>
0.5078047514

$$$$
[H]c1nc(N([H])[H])c2c(-c3c([H])c([H])c(N([H])C(=O)c4c([H])c([H])c([H])n(-c5c([H])c([H])c(F)c([H])c5[H])c4=O)c([H])c3[H])c([H])c(C3([H])C([H])([H])C3([H])[H])n2n1


 39 44  0  0  0  0  0  0  0  0999 V2000
   40.2175   13.0338  -15.4114 C   0  0  0  0  0  0  0  0  0  0  0  0
   40.7046   13.5219  -14.2216 C   0  0  0  0  0  0  0  0  0  0  0  0
   42.0354   13.7869  -14.0492 C   0  0  0  0  0  0  0  0  0  0  0  0
   42.9417   13.5657  -15.0907 C   0  0  0  0  0  0  0  0  0  0  0  0
   42.4207   13.0768  -16.2690 C   0  0  0  0  0  0  0  0  0  0  0  0
   41.0652   12.8108  -16.4336 C   0  0  0  0  0  0  0  0  0  0  0  0
   39.7583   10.8899  -17.6748 N   0  0  0  0  0  0  0  0  0  0  0  0
   38.4057   11.1367  -17.3204 C   0  0  0  0  0  0  0  0  0  0  0  0
   37.4670   10.4511  -18.0021 N   0  0  0  0  0  0  0  0  0  0  0  0
   36.1612   10.6372  -17.6888 C   0  0  0  0  0  0  0  0  0  0  0  0
   35.7886   11.4882  -16.7152 N   0  0  0  0  0  0  0  0  0  0  0  0
   36.7069   12.1517  -16.0563 N   0  0  0  0  0  0  0  0  0  0  0  0
   36.5461   13.0414  -15.0476 C   0  0  0  0  0  0  0  0  0  0  0  0
   37.8059   13.4584  -14.6844 C   0  0  0  0  0  0  0  0  0  0  0  0
   38.7576   12.8178  -15.4813 C   0  0  0  0  0  0  0  0  0  0  0  0
   38.0373   12.0091  -16.3252 C   0  0  0  0  0  0  0  0  0  0  0  0
   40.1438   11.2103  -18.6012 H   0  0  0  0  0  0  0  0  0  0  0  0
   40.4345   10.3871  -17.0553 H   0  0  0  0  0  0  0  0  0  0  0  0
   35.3034   13.5182  -14.3983 C   0  0  0  0  0  0  0  0  0  0  0  0
   35.2974   13.8929  -12.9621 C   0  0  0  0  0  0  0  0  0  0  0  0
   34.7261   12.5756  -13.3413 C   0  0  0  0  0  0  0  0  0  0  0  0
   44.3045   13.8574  -14.8444 N   0  0  0  0  0  0  0  0  0  0  0  0
   45.4250   13.0848  -15.1923 C   0  0  0  0  0  0  0  0  0  0  0  0
   45.3544   11.9542  -15.7943 O   0  0  0  0  0  0  0  0  0  0  0  0
   44.4653   14.7616  -14.3005 H   0  0  0  0  0  0  0  0  0  0  0  0
   46.7880   13.5481  -14.8684 C   0  0  0  0  0  0  0  0  0  0  0  0
   47.8461   13.0974  -15.6678 C   0  0  0  0  0  0  0  0  0  0  0  0
   49.1221   13.4792  -15.3701 C   0  0  0  0  0  0  0  0  0  0  0  0
   49.3531   14.2995  -14.2933 C   0  0  0  0  0  0  0  0  0  0  0  0
   48.3298   14.7265  -13.5351 N   0  0  0  0  0  0  0  0  0  0  0  0
   47.0508   14.3527  -13.8207 C   0  0  0  0  0  0  0  0  0  0  0  0
   46.1865   14.8192  -13.0411 O   0  0  0  0  0  0  0  0  0  0  0  0
   48.5905   15.5865  -12.4332 C   0  0  0  0  0  0  0  0  0  0  0  0
   48.5898   16.9429  -12.5550 C   0  0  0  0  0  0  0  0  0  0  0  0
   48.8468   17.7863  -11.4851 C   0  0  0  0  0  0  0  0  0  0  0  0
   49.1106   17.1895  -10.2567 C   0  0  0  0  0  0  0  0  0  0  0  0
   49.3657   17.9974   -9.2056 F   0  0  0  0  0  0  0  0  0  0  0  0
   49.1177   15.8307  -10.1033 C   0  0  0  0  0  0  0  0  0  0  0  0
   48.8541   15.0303  -11.2073 C   0  0  0  0  0  0  0  0  0  0  0  0
  7  8  1  0  0  0
  8  9  2  0  0  0
  9 10  1  0  0  0
 10 11  2  0  0  0
 11 12  1  0  0  0
 12 13  1  0  0  0
 13 14  2  0  0  0
 14 15  1  0  0  0
 15  1  1  0  0  0
  1  2  2  0  0  0
  2  3  1  0  0  0
  3  4  2  0  0  0
  4 22  1  0  0  0
 22 23  1  0  0  0
 23 24  2  0  0  0
 23 26  1  0  0  0
 26 27  2  0  0  0
 27 28  1  0  0  0
 28 29  2  0  0  0
 29 30  1  0  0  0
 30 33  1  0  0  0
 33 34  2  0  0  0
 34 35  1  0  0  0
 35 36  2  0  0  0
 36 37  1  0  0  0
 36 38  1  0  0  0
 38 39  2  0  0  0
 30 31  1  0  0  0
 31 32  2  0  0  0
  4  5  1  0  0  0
  5  6  2  0  0  0
 15 16  2  0  0  0
 13 19  1  0  0  0
 19 20  1  0  0  0
 20 21  1  0  0  0
 16  8  1  0  0  0
 21 19  1  0  0  0
 16 12  1  0  0  0
  6  1  1  0  0  0
 31 26  1  0  0  0
 39 33  1  0  0  0
  7 17  1  0  0  0
  7 18  1  0  0  0
 22 25  1  0  0  0
M  END
> <minimizedAffinity>
-8.51830

> <CNNscore>
0.2455104142

> <CNNaffinity>
7.1273393631

> <CNN_VS>
1.7498360872

> <CNNaffinity_variance>
0.4727979302

$$$$
[H]c1nc(N([H])[H])c2c(-c3c([H])c([H])c(N([H])C(=O)c4c([H])c([H])c([H])n(-c5c([H])c([H])c(F)c([H])c5[H])c4=O)c([H])c3[H])c([H])c(C3([H])C([H])([H])C3([H])[H])n2n1


 39 44  0  0  0  0  0  0  0  0999 V2000
   37.3742   13.5488  -13.9012 C   0  0  0  0  0  0  0  0  0  0  0  0
   37.2552   14.9079  -13.7286 C   0  0  0  0  0  0  0  0  0  0  0  0
   36.4820   15.4367  -12.7320 C   0  0  0  0  0  0  0  0  0  0  0  0
   35.7870   14.5982  -11.8550 C   0  0  0  0  0  0  0  0  0  0  0  0
   35.9283   13.2422  -12.0554 C   0  0  0  0  0  0  0  0  0  0  0  0
   36.7176   12.7150  -13.0724 C   0  0  0  0  0  0  0  0  0  0  0  0
   35.6369   11.6545  -15.7242 N   0  0  0  0  0  0  0  0  0  0  0  0
   36.8738   11.5597  -16.4149 C   0  0  0  0  0  0  0  0  0  0  0  0
   36.8989   10.7675  -17.5047 N   0  0  0  0  0  0  0  0  0  0  0  0
   38.0514   10.6578  -18.2102 C   0  0  0  0  0  0  0  0  0  0  0  0
   39.1630   11.3221  -17.8440 N   0  0  0  0  0  0  0  0  0  0  0  0
   39.1314   12.0908  -16.7830 N   0  0  0  0  0  0  0  0  0  0  0  0
   40.1267   12.8420  -16.2540 C   0  0  0  0  0  0  0  0  0  0  0  0
   39.6014   13.4721  -15.1494 C   0  0  0  0  0  0  0  0  0  0  0  0
   38.2631   13.1033  -14.9940 C   0  0  0  0  0  0  0  0  0  0  0  0
   38.0026   12.2419  -16.0308 C   0  0  0  0  0  0  0  0  0  0  0  0
   35.2528   10.8359  -15.1839 H   0  0  0  0  0  0  0  0  0  0  0  0
   35.0476   12.5184  -15.7122 H   0  0  0  0  0  0  0  0  0  0  0  0
   41.5238   13.0168  -16.7132 C   0  0  0  0  0  0  0  0  0  0  0  0
   42.4619   11.8667  -16.7329 C   0  0  0  0  0  0  0  0  0  0  0  0
   42.5854   12.8481  -15.6252 C   0  0  0  0  0  0  0  0  0  0  0  0
   35.0026   15.2106  -10.8487 N   0  0  0  0  0  0  0  0  0  0  0  0
   35.1963   15.1593   -9.4582 C   0  0  0  0  0  0  0  0  0  0  0  0
   36.1459   14.5083   -8.8926 O   0  0  0  0  0  0  0  0  0  0  0  0
   34.1532   15.7397  -11.2198 H   0  0  0  0  0  0  0  0  0  0  0  0
   34.2833   15.8732   -8.5449 C   0  0  0  0  0  0  0  0  0  0  0  0
   32.9420   15.4718   -8.5051 C   0  0  0  0  0  0  0  0  0  0  0  0
   32.0659   16.1374   -7.6976 C   0  0  0  0  0  0  0  0  0  0  0  0
   32.5088   17.1899   -6.9348 C   0  0  0  0  0  0  0  0  0  0  0  0
   33.7980   17.5643   -6.9803 N   0  0  0  0  0  0  0  0  0  0  0  0
   34.6835   16.9089   -7.7824 C   0  0  0  0  0  0  0  0  0  0  0  0
   35.8556   17.3518   -7.7336 O   0  0  0  0  0  0  0  0  0  0  0  0
   34.2378   18.6480   -6.1715 C   0  0  0  0  0  0  0  0  0  0  0  0
   34.7131   18.4649   -4.9085 C   0  0  0  0  0  0  0  0  0  0  0  0
   35.1398   19.5179   -4.1140 C   0  0  0  0  0  0  0  0  0  0  0  0
   35.0657   20.7949   -4.6607 C   0  0  0  0  0  0  0  0  0  0  0  0
   35.4749   21.8312   -3.8983 F   0  0  0  0  0  0  0  0  0  0  0  0
   34.5937   21.0100   -5.9259 C   0  0  0  0  0  0  0  0  0  0  0  0
   34.1783   19.9205   -6.6805 C   0  0  0  0  0  0  0  0  0  0  0  0
  7  8  1  0  0  0
  8  9  2  0  0  0
  9 10  1  0  0  0
 10 11  2  0  0  0
 11 12  1  0  0  0
 12 13  1  0  0  0
 13 14  2  0  0  0
 14 15  1  0  0  0
 15  1  1  0  0  0
  1  2  2  0  0  0
  2  3  1  0  0  0
  3  4  2  0  0  0
  4 22  1  0  0  0
 22 23  1  0  0  0
 23 24  2  0  0  0
 23 26  1  0  0  0
 26 27  2  0  0  0
 27 28  1  0  0  0
 28 29  2  0  0  0
 29 30  1  0  0  0
 30 33  1  0  0  0
 33 34  2  0  0  0
 34 35  1  0  0  0
 35 36  2  0  0  0
 36 37  1  0  0  0
 36 38  1  0  0  0
 38 39  2  0  0  0
 30 31  1  0  0  0
 31 32  2  0  0  0
  4  5  1  0  0  0
  5  6  2  0  0  0
 15 16  2  0  0  0
 13 19  1  0  0  0
 19 20  1  0  0  0
 20 21  1  0  0  0
 16  8  1  0  0  0
 21 19  1  0  0  0
 16 12  1  0  0  0
  6  1  1  0  0  0
 31 26  1  0  0  0
 39 33  1  0  0  0
  7 17  1  0  0  0
  7 18  1  0  0  0
 22 25  1  0  0  0
M  END
> <minimizedAffinity>
-9.00532

> <CNNscore>
0.2306961119

> <CNNaffinity>
6.9165716171

> <CNN_VS>
1.5956262350

> <CNNaffinity_variance>
0.6335615516

$$$$
[H]c1nc(N([H])[H])c2c(-c3c([H])c([H])c(N([H])C(=O)c4c([H])c([H])c([H])n(-c5c([H])c([H])c(F)c([H])c5[H])c4=O)c([H])c3[H])c([H])c(C3([H])C([H])([H])C3([H])[H])n2n1


 39 44  0  0  0  0  0  0  0  0999 V2000
   38.4092   13.3649  -14.1133 C   0  0  0  0  0  0  0  0  0  0  0  0
   38.2572   14.6780  -13.7342 C   0  0  0  0  0  0  0  0  0  0  0  0
   37.3148   15.0522  -12.8162 C   0  0  0  0  0  0  0  0  0  0  0  0
   36.4748   14.0974  -12.2348 C   0  0  0  0  0  0  0  0  0  0  0  0
   36.6538   12.7914  -12.6364 C   0  0  0  0  0  0  0  0  0  0  0  0
   37.6157   12.4218  -13.5710 C   0  0  0  0  0  0  0  0  0  0  0  0
   37.0835   11.6569  -16.4058 N   0  0  0  0  0  0  0  0  0  0  0  0
   38.4180   11.6868  -16.8900 C   0  0  0  0  0  0  0  0  0  0  0  0
   38.6568   11.0364  -18.0458 N   0  0  0  0  0  0  0  0  0  0  0  0
   39.9112   11.0507  -18.5599 C   0  0  0  0  0  0  0  0  0  0  0  0
   40.9148   11.6991  -17.9409 N   0  0  0  0  0  0  0  0  0  0  0  0
   40.6754   12.3295  -16.8171 N   0  0  0  0  0  0  0  0  0  0  0  0
   41.5340   13.0403  -16.0476 C   0  0  0  0  0  0  0  0  0  0  0  0
   40.8079   13.5124  -14.9786 C   0  0  0  0  0  0  0  0  0  0  0  0
   39.4825   13.0857  -15.0894 C   0  0  0  0  0  0  0  0  0  0  0  0
   39.4348   12.3512  -16.2484 C   0  0  0  0  0  0  0  0  0  0  0  0
   36.6603   10.7663  -16.0354 H   0  0  0  0  0  0  0  0  0  0  0  0
   36.4567   12.4939  -16.3901 H   0  0  0  0  0  0  0  0  0  0  0  0
   42.9757   13.3140  -16.2471 C   0  0  0  0  0  0  0  0  0  0  0  0
   43.9592   12.2025  -16.2717 C   0  0  0  0  0  0  0  0  0  0  0  0
   43.8612   13.0194  -15.0354 C   0  0  0  0  0  0  0  0  0  0  0  0
   35.5195   14.5527  -11.2951 N   0  0  0  0  0  0  0  0  0  0  0  0
   34.2590   15.1158  -11.5553 C   0  0  0  0  0  0  0  0  0  0  0  0
   33.7943   15.3131  -12.7346 O   0  0  0  0  0  0  0  0  0  0  0  0
   35.8365   14.4751  -10.2788 H   0  0  0  0  0  0  0  0  0  0  0  0
   33.3759   15.5276  -10.4472 C   0  0  0  0  0  0  0  0  0  0  0  0
   31.9945   15.5509  -10.6774 C   0  0  0  0  0  0  0  0  0  0  0  0
   31.1553   15.9629   -9.6832 C   0  0  0  0  0  0  0  0  0  0  0  0
   31.6737   16.3481   -8.4713 C   0  0  0  0  0  0  0  0  0  0  0  0
   33.0003   16.3197   -8.2621 N   0  0  0  0  0  0  0  0  0  0  0  0
   33.8498   15.9109   -9.2461 C   0  0  0  0  0  0  0  0  0  0  0  0
   35.0621   15.9272   -8.9261 O   0  0  0  0  0  0  0  0  0  0  0  0
   33.5143   16.7097   -6.9950 C   0  0  0  0  0  0  0  0  0  0  0  0
   33.7780   15.8073   -6.0097 C   0  0  0  0  0  0  0  0  0  0  0  0
   34.2757   16.1820   -4.7711 C   0  0  0  0  0  0  0  0  0  0  0  0
   34.5025   17.5385   -4.5631 C   0  0  0  0  0  0  0  0  0  0  0  0
   34.9845   17.9196   -3.3610 F   0  0  0  0  0  0  0  0  0  0  0  0
   34.2480   18.4679   -5.5334 C   0  0  0  0  0  0  0  0  0  0  0  0
   33.7496   18.0401   -6.7570 C   0  0  0  0  0  0  0  0  0  0  0  0
  7  8  1  0  0  0
  8  9  2  0  0  0
  9 10  1  0  0  0
 10 11  2  0  0  0
 11 12  1  0  0  0
 12 13  1  0  0  0
 13 14  2  0  0  0
 14 15  1  0  0  0
 15  1  1  0  0  0
  1  2  2  0  0  0
  2  3  1  0  0  0
  3  4  2  0  0  0
  4 22  1  0  0  0
 22 23  1  0  0  0
 23 24  2  0  0  0
 23 26  1  0  0  0
 26 27  2  0  0  0
 27 28  1  0  0  0
 28 29  2  0  0  0
 29 30  1  0  0  0
 30 33  1  0  0  0
 33 34  2  0  0  0
 34 35  1  0  0  0
 35 36  2  0  0  0
 36 37  1  0  0  0
 36 38  1  0  0  0
 38 39  2  0  0  0
 30 31  1  0  0  0
 31 32  2  0  0  0
  4  5  1  0  0  0
  5  6  2  0  0  0
 15 16  2  0  0  0
 13 19  1  0  0  0
 19 20  1  0  0  0
 20 21  1  0  0  0
 16  8  1  0  0  0
 21 19  1  0  0  0
 16 12  1  0  0  0
  6  1  1  0  0  0
 31 26  1  0  0  0
 39 33  1  0  0  0
  7 17  1  0  0  0
  7 18  1  0  0  0
 22 25  1  0  0  0
M  END
> <minimizedAffinity>
-9.36266

> <CNNscore>
0.1828285307

> <CNNaffinity>
6.7416448593

> <CNN_VS>
1.2325650454

> <CNNaffinity_variance>
0.3916947842

$$$$
[H]c1nc(N([H])[H])c2c(-c3c([H])c([H])c(N([H])C(=O)c4c([H])c([H])c([H])n(-c5c([H])c([H])c(F)c([H])c5[H])c4=O)c([H])c3[H])c([H])c(C3([H])C([H])([H])C3([H])[H])n2n1


 39 44  0  0  0  0  0  0  0  0999 V2000
   36.6375   13.6080  -13.6987 C   0  0  0  0  0  0  0  0  0  0  0  0
   36.3792   13.0317  -12.4770 C   0  0  0  0  0  0  0  0  0  0  0  0
   36.3670   13.7712  -11.3265 C   0  0  0  0  0  0  0  0  0  0  0  0
   36.6191   15.1459  -11.3659 C   0  0  0  0  0  0  0  0  0  0  0  0
   36.8737   15.6915  -12.6055 C   0  0  0  0  0  0  0  0  0  0  0  0
   36.8835   14.9300  -13.7697 C   0  0  0  0  0  0  0  0  0  0  0  0
   33.5935   12.9447  -14.1724 N   0  0  0  0  0  0  0  0  0  0  0  0
   34.1600   12.1550  -15.2076 C   0  0  0  0  0  0  0  0  0  0  0  0
   33.3010   11.4484  -15.9684 N   0  0  0  0  0  0  0  0  0  0  0  0
   33.7904   10.6929  -16.9820 C   0  0  0  0  0  0  0  0  0  0  0  0
   35.1100   10.6370  -17.2404 N   0  0  0  0  0  0  0  0  0  0  0  0
   35.9396   11.3267  -16.4963 N   0  0  0  0  0  0  0  0  0  0  0  0
   37.2881   11.4129  -16.5917 C   0  0  0  0  0  0  0  0  0  0  0  0
   37.7009   12.2639  -15.5925 C   0  0  0  0  0  0  0  0  0  0  0  0
   36.5914   12.7081  -14.8695 C   0  0  0  0  0  0  0  0  0  0  0  0
   35.5092   12.1049  -15.4610 C   0  0  0  0  0  0  0  0  0  0  0  0
   33.1544   12.4966  -13.3263 H   0  0  0  0  0  0  0  0  0  0  0  0
   33.5766   13.9903  -14.1881 H   0  0  0  0  0  0  0  0  0  0  0  0
   38.2100   10.7652  -17.5528 C   0  0  0  0  0  0  0  0  0  0  0  0
   39.6790   10.8258  -17.3486 C   0  0  0  0  0  0  0  0  0  0  0  0
   39.0782   11.7293  -18.3626 C   0  0  0  0  0  0  0  0  0  0  0  0
   36.5947   15.8506  -10.1388 N   0  0  0  0  0  0  0  0  0  0  0  0
   35.4794   16.1344   -9.3331 C   0  0  0  0  0  0  0  0  0  0  0  0
   34.2796   15.7876   -9.6259 O   0  0  0  0  0  0  0  0  0  0  0  0
   37.5460   16.2253   -9.8324 H   0  0  0  0  0  0  0  0  0  0  0  0
   35.6356   16.8752   -8.0665 C   0  0  0  0  0  0  0  0  0  0  0  0
   34.5554   17.6429   -7.6130 C   0  0  0  0  0  0  0  0  0  0  0  0
   34.6831   18.3685   -6.4642 C   0  0  0  0  0  0  0  0  0  0  0  0
   35.8661   18.3369   -5.7675 C   0  0  0  0  0  0  0  0  0  0  0  0
   36.8943   17.5954   -6.2118 N   0  0  0  0  0  0  0  0  0  0  0  0
   36.7807   16.8664   -7.3574 C   0  0  0  0  0  0  0  0  0  0  0  0
   37.8079   16.2157   -7.6635 O   0  0  0  0  0  0  0  0  0  0  0  0
   38.1053   17.5664   -5.4671 C   0  0  0  0  0  0  0  0  0  0  0  0
   38.2947   16.7135   -4.4224 C   0  0  0  0  0  0  0  0  0  0  0  0
   39.4718   16.6832   -3.6905 C   0  0  0  0  0  0  0  0  0  0  0  0
   40.4747   17.5709   -4.0661 C   0  0  0  0  0  0  0  0  0  0  0  0
   41.6260   17.5555   -3.3611 F   0  0  0  0  0  0  0  0  0  0  0  0
   40.3140   18.4385   -5.1108 C   0  0  0  0  0  0  0  0  0  0  0  0
   39.1150   18.4288   -5.8115 C   0  0  0  0  0  0  0  0  0  0  0  0
  7  8  1  0  0  0
  8  9  2  0  0  0
  9 10  1  0  0  0
 10 11  2  0  0  0
 11 12  1  0  0  0
 12 13  1  0  0  0
 13 14  2  0  0  0
 14 15  1  0  0  0
 15  1  1  0  0  0
  1  2  2  0  0  0
  2  3  1  0  0  0
  3  4  2  0  0  0
  4 22  1  0  0  0
 22 23  1  0  0  0
 23 24  2  0  0  0
 23 26  1  0  0  0
 26 27  2  0  0  0
 27 28  1  0  0  0
 28 29  2  0  0  0
 29 30  1  0  0  0
 30 33  1  0  0  0
 33 34  2  0  0  0
 34 35  1  0  0  0
 35 36  2  0  0  0
 36 37  1  0  0  0
 36 38  1  0  0  0
 38 39  2  0  0  0
 30 31  1  0  0  0
 31 32  2  0  0  0
  4  5  1  0  0  0
  5  6  2  0  0  0
 15 16  2  0  0  0
 13 19  1  0  0  0
 19 20  1  0  0  0
 20 21  1  0  0  0
 16  8  1  0  0  0
 21 19  1  0  0  0
 16 12  1  0  0  0
  6  1  1  0  0  0
 31 26  1  0  0  0
 39 33  1  0  0  0
  7 17  1  0  0  0
  7 18  1  0  0  0
 22 25  1  0  0  0
M  END
> <minimizedAffinity>
-8.37582

> <CNNscore>
0.1794963330

> <CNNaffinity>
6.7211561203

> <CNN_VS>
1.2064229250

> <CNNaffinity_variance>
0.2051673830

$$$$
[H]c1nc(N([H])[H])c2c(-c3c([H])c([H])c(N([H])C(=O)c4c([H])c([H])c([H])n(-c5c([H])c([H])c(F)c([H])c5[H])c4=O)c([H])c3[H])c([H])c(C3([H])C([H])([H])C3([H])[H])n2n1


 39 44  0  0  0  0  0  0  0  0999 V2000
   36.7760   13.6088  -13.5318 C   0  0  0  0  0  0  0  0  0  0  0  0
   36.3552   13.0555  -12.3452 C   0  0  0  0  0  0  0  0  0  0  0  0
   36.2495   13.8042  -11.2055 C   0  0  0  0  0  0  0  0  0  0  0  0
   36.5699   15.1651  -11.2204 C   0  0  0  0  0  0  0  0  0  0  0  0
   36.9876   15.6877  -12.4252 C   0  0  0  0  0  0  0  0  0  0  0  0
   37.0915   14.9170  -13.5786 C   0  0  0  0  0  0  0  0  0  0  0  0
   33.7767   12.9389  -14.2283 N   0  0  0  0  0  0  0  0  0  0  0  0
   34.4197   12.1441  -15.2137 C   0  0  0  0  0  0  0  0  0  0  0  0
   33.6207   11.4323  -16.0327 N   0  0  0  0  0  0  0  0  0  0  0  0
   34.1854   10.6718  -17.0027 C   0  0  0  0  0  0  0  0  0  0  0  0
   35.5206   10.6162  -17.1612 N   0  0  0  0  0  0  0  0  0  0  0  0
   36.2916   11.3111  -16.3610 N   0  0  0  0  0  0  0  0  0  0  0  0
   37.6434   11.3986  -16.3557 C   0  0  0  0  0  0  0  0  0  0  0  0
   37.9795   12.2556  -15.3332 C   0  0  0  0  0  0  0  0  0  0  0  0
   36.8186   12.7024  -14.6977 C   0  0  0  0  0  0  0  0  0  0  0  0
   35.7842   12.0945  -15.3652 C   0  0  0  0  0  0  0  0  0  0  0  0
   33.2759   12.4949  -13.4150 H   0  0  0  0  0  0  0  0  0  0  0  0
   33.7601   13.9843  -14.2511 H   0  0  0  0  0  0  0  0  0  0  0  0
   38.6352   10.7467  -17.2415 C   0  0  0  0  0  0  0  0  0  0  0  0
   39.8479   11.4787  -17.6851 C   0  0  0  0  0  0  0  0  0  0  0  0
   38.7275   11.3368  -18.6495 C   0  0  0  0  0  0  0  0  0  0  0  0
   36.4417   15.8804  -10.0060 N   0  0  0  0  0  0  0  0  0  0  0  0
   37.2698   15.8059   -8.8735 C   0  0  0  0  0  0  0  0  0  0  0  0
   38.2896   15.0329   -8.7836 O   0  0  0  0  0  0  0  0  0  0  0  0
   35.5878   16.5193   -9.9644 H   0  0  0  0  0  0  0  0  0  0  0  0
   36.9973   16.6389   -7.6865 C   0  0  0  0  0  0  0  0  0  0  0  0
   37.8932   16.5706   -6.6120 C   0  0  0  0  0  0  0  0  0  0  0  0
   37.6476   17.3013   -5.4858 C   0  0  0  0  0  0  0  0  0  0  0  0
   36.5280   18.0938   -5.4197 C   0  0  0  0  0  0  0  0  0  0  0  0
   35.6772   18.1522   -6.4575 N   0  0  0  0  0  0  0  0  0  0  0  0
   35.9099   17.4276   -7.5878 C   0  0  0  0  0  0  0  0  0  0  0  0
   35.0446   17.5703   -8.4841 O   0  0  0  0  0  0  0  0  0  0  0  0
   34.5314   18.9901   -6.3727 C   0  0  0  0  0  0  0  0  0  0  0  0
   33.3461   18.5499   -5.8670 C   0  0  0  0  0  0  0  0  0  0  0  0
   32.2247   19.3611   -5.7851 C   0  0  0  0  0  0  0  0  0  0  0  0
   32.3525   20.6674   -6.2458 C   0  0  0  0  0  0  0  0  0  0  0  0
   31.2685   21.4689   -6.1755 F   0  0  0  0  0  0  0  0  0  0  0  0
   33.5297   21.1381   -6.7582 C   0  0  0  0  0  0  0  0  0  0  0  0
   34.6234   20.2843   -6.8181 C   0  0  0  0  0  0  0  0  0  0  0  0
  7  8  1  0  0  0
  8  9  2  0  0  0
  9 10  1  0  0  0
 10 11  2  0  0  0
 11 12  1  0  0  0
 12 13  1  0  0  0
 13 14  2  0  0  0
 14 15  1  0  0  0
 15  1  1  0  0  0
  1  2  2  0  0  0
  2  3  1  0  0  0
  3  4  2  0  0  0
  4 22  1  0  0  0
 22 23  1  0  0  0
 23 24  2  0  0  0
 23 26  1  0  0  0
 26 27  2  0  0  0
 27 28  1  0  0  0
 28 29  2  0  0  0
 29 30  1  0  0  0
 30 33  1  0  0  0
 33 34  2  0  0  0
 34 35  1  0  0  0
 35 36  2  0  0  0
 36 37  1  0  0  0
 36 38  1  0  0  0
 38 39  2  0  0  0
 30 31  1  0  0  0
 31 32  2  0  0  0
  4  5  1  0  0  0
  5  6  2  0  0  0
 15 16  2  0  0  0
 13 19  1  0  0  0
 19 20  1  0  0  0
 20 21  1  0  0  0
 16  8  1  0  0  0
 21 19  1  0  0  0
 16 12  1  0  0  0
  6  1  1  0  0  0
 31 26  1  0  0  0
 39 33  1  0  0  0
  7 17  1  0  0  0
  7 18  1  0  0  0
 22 25  1  0  0  0
M  END
> <minimizedAffinity>
-8.64317

> <CNNscore>
0.1665498912

> <CNNaffinity>
6.8198804855

> <CNN_VS>
1.1358503103

> <CNNaffinity_variance>
0.3508723974

$$$$
[H]c1nc(N([H])[H])c2c(-c3c([H])c([H])c(N([H])C(=O)c4c([H])c([H])c([H])n(-c5c([H])c([H])c(F)c([H])c5[H])c4=O)c([H])c3[H])c([H])c(C3([H])C([H])([H])C3([H])[H])n2n1


 39 44  0  0  0  0  0  0  0  0999 V2000
   36.8668   13.8689  -13.4662 C   0  0  0  0  0  0  0  0  0  0  0  0
   36.5530   13.2204  -12.2948 C   0  0  0  0  0  0  0  0  0  0  0  0
   36.1953   13.9108  -11.1696 C   0  0  0  0  0  0  0  0  0  0  0  0
   36.1392   15.3078  -11.1843 C   0  0  0  0  0  0  0  0  0  0  0  0
   36.4591   15.9260  -12.3736 C   0  0  0  0  0  0  0  0  0  0  0  0
   36.8216   15.2139  -13.5124 C   0  0  0  0  0  0  0  0  0  0  0  0
   34.1315   12.7533  -14.5632 N   0  0  0  0  0  0  0  0  0  0  0  0
   35.0177   12.0943  -15.4556 C   0  0  0  0  0  0  0  0  0  0  0  0
   34.4579   11.2862  -16.3773 N   0  0  0  0  0  0  0  0  0  0  0  0
   35.2599   10.6483  -17.2648 C   0  0  0  0  0  0  0  0  0  0  0  0
   36.5960   10.8073  -17.2420 N   0  0  0  0  0  0  0  0  0  0  0  0
   37.1337   11.5946  -16.3428 N   0  0  0  0  0  0  0  0  0  0  0  0
   38.4415   11.8934  -16.1549 C   0  0  0  0  0  0  0  0  0  0  0  0
   38.4983   12.7669  -15.0935 C   0  0  0  0  0  0  0  0  0  0  0  0
   37.2072   13.0097  -14.6189 C   0  0  0  0  0  0  0  0  0  0  0  0
   36.3805   12.2635  -15.4218 C   0  0  0  0  0  0  0  0  0  0  0  0
   33.6043   12.2161  -13.8263 H   0  0  0  0  0  0  0  0  0  0  0  0
   33.9519   13.7834  -14.5844 H   0  0  0  0  0  0  0  0  0  0  0  0
   39.6330   11.4278  -16.9011 C   0  0  0  0  0  0  0  0  0  0  0  0
   40.8235   12.3025  -17.0450 C   0  0  0  0  0  0  0  0  0  0  0  0
   39.9077   12.1746  -18.2071 C   0  0  0  0  0  0  0  0  0  0  0  0
   35.7653   15.9598   -9.9851 N   0  0  0  0  0  0  0  0  0  0  0  0
   36.4460   15.9548   -8.7561 C   0  0  0  0  0  0  0  0  0  0  0  0
   37.5391   15.3168   -8.5474 O   0  0  0  0  0  0  0  0  0  0  0  0
   34.8362   16.4819  -10.0442 H   0  0  0  0  0  0  0  0  0  0  0  0
   35.9181   16.7059   -7.6009 C   0  0  0  0  0  0  0  0  0  0  0  0
   36.8279   17.1636   -6.6394 C   0  0  0  0  0  0  0  0  0  0  0  0
   36.3657   17.8290   -5.5411 C   0  0  0  0  0  0  0  0  0  0  0  0
   35.0172   18.0421   -5.3923 C   0  0  0  0  0  0  0  0  0  0  0  0
   34.1548   17.5997   -6.3223 N   0  0  0  0  0  0  0  0  0  0  0  0
   34.6025   16.9336   -7.4235 C   0  0  0  0  0  0  0  0  0  0  0  0
   33.7001   16.5753   -8.2170 O   0  0  0  0  0  0  0  0  0  0  0  0
   32.7640   17.8436   -6.1548 C   0  0  0  0  0  0  0  0  0  0  0  0
   32.1750   19.0000   -6.5678 C   0  0  0  0  0  0  0  0  0  0  0  0
   30.8202   19.2448   -6.4040 C   0  0  0  0  0  0  0  0  0  0  0  0
   30.0658   18.2496   -5.7914 C   0  0  0  0  0  0  0  0  0  0  0  0
   28.7454   18.4743   -5.6221 F   0  0  0  0  0  0  0  0  0  0  0  0
   30.6288   17.0780   -5.3669 C   0  0  0  0  0  0  0  0  0  0  0  0
   31.9909   16.8824   -5.5547 C   0  0  0  0  0  0  0  0  0  0  0  0
  7  8  1  0  0  0
  8  9  2  0  0  0
  9 10  1  0  0  0
 10 11  2  0  0  0
 11 12  1  0  0  0
 12 13  1  0  0  0
 13 14  2  0  0  0
 14 15  1  0  0  0
 15  1  1  0  0  0
  1  2  2  0  0  0
  2  3  1  0  0  0
  3  4  2  0  0  0
  4 22  1  0  0  0
 22 23  1  0  0  0
 23 24  2  0  0  0
 23 26  1  0  0  0
 26 27  2  0  0  0
 27 28  1  0  0  0
 28 29  2  0  0  0
 29 30  1  0  0  0
 30 33  1  0  0  0
 33 34  2  0  0  0
 34 35  1  0  0  0
 35 36  2  0  0  0
 36 37  1  0  0  0
 36 38  1  0  0  0
 38 39  2  0  0  0
 30 31  1  0  0  0
 31 32  2  0  0  0
  4  5  1  0  0  0
  5  6  2  0  0  0
 15 16  2  0  0  0
 13 19  1  0  0  0
 19 20  1  0  0  0
 20 21  1  0  0  0
 16  8  1  0  0  0
 21 19  1  0  0  0
 16 12  1  0  0  0
  6  1  1  0  0  0
 31 26  1  0  0  0
 39 33  1  0  0  0
  7 17  1  0  0  0
  7 18  1  0  0  0
 22 25  1  0  0  0
M  END
> <minimizedAffinity>
-8.80818

> <CNNscore>
0.1628323048

> <CNNaffinity>
6.7469024658

> <CNN_VS>
1.0986136198

> <CNNaffinity_variance>
0.3105535805

$$$$
[H]O[C@]1(C([H])([H])C([H])([H])[H])C([H])([H])C([H])([H])[C@]2([H])[C@]1(C([H])([H])[H])C([H])([H])C([H])([H])[C@]1([H])[C@]3(C([H])([H])[H])C(=C([H])C(=O)C([H])([H])C3([H])[H])C([H])([H])C([H])([H])[C@@]21[H]


 24 27  0  0  0  0  0  0  0  0999 V2000
   38.6668   17.0626   -8.0948 C   0  0  0  0  0  0  0  0  0  0  0  0
   38.6856   18.1073   -7.1603 O   0  0  0  0  0  0  0  0  0  0  0  0
   37.5131   16.1178   -7.7864 C   0  0  0  0  0  0  0  0  0  0  0  0
   38.1405   14.7489   -7.9842 C   0  0  0  0  0  0  0  0  0  0  0  0
   39.4716   14.9833   -7.4158 C   0  0  0  0  0  0  0  0  0  0  0  0
   40.4903   13.9254   -7.5422 C   0  0  0  0  0  0  0  0  0  0  0  0
   39.9767   12.6601   -6.8858 C   0  0  0  0  0  0  0  0  0  0  0  0
   41.0512   11.6245   -6.8375 C   0  0  0  0  0  0  0  0  0  0  0  0
   42.2809   12.1778   -6.1549 C   0  0  0  0  0  0  0  0  0  0  0  0
   42.7948   11.4944   -5.1621 C   0  0  0  0  0  0  0  0  0  0  0  0
   43.9697   11.9820   -4.4791 C   0  0  0  0  0  0  0  0  0  0  0  0
   44.3450   11.5426   -3.3616 O   0  0  0  0  0  0  0  0  0  0  0  0
   44.7613   13.0409   -5.1221 C   0  0  0  0  0  0  0  0  0  0  0  0
   43.8238   14.0374   -5.7230 C   0  0  0  0  0  0  0  0  0  0  0  0
   42.8131   13.4621   -6.6714 C   0  0  0  0  0  0  0  0  0  0  0  0
   43.4162   13.1689   -8.0265 C   0  0  0  0  0  0  0  0  0  0  0  0
   41.6787   14.4367   -6.7513 C   0  0  0  0  0  0  0  0  0  0  0  0
   42.1436   15.7849   -7.1938 C   0  0  0  0  0  0  0  0  0  0  0  0
   41.0371   16.8007   -7.2752 C   0  0  0  0  0  0  0  0  0  0  0  0
   39.9147   16.2601   -8.0919 C   0  0  0  0  0  0  0  0  0  0  0  0
   40.3958   16.0333   -9.5003 C   0  0  0  0  0  0  0  0  0  0  0  0
   39.0272   18.9165   -7.6227 H   0  0  0  0  0  0  0  0  0  0  0  0
   37.7800   19.0702   -9.1855 C   0  0  0  0  0  0  0  0  0  0  0  0
   38.3337   17.6817   -9.4362 C   0  0  0  0  0  0  0  0  0  0  0  0
 23 24  1  0  0  0
 24  1  1  0  0  0
  1  2  1  0  0  0
  1  3  1  0  0  0
  3  4  1  0  0  0
  4  5  1  0  0  0
  5  6  1  0  0  0
  6  7  1  0  0  0
  7  8  1  0  0  0
  8  9  1  0  0  0
  9 10  2  0  0  0
 10 11  1  0  0  0
 11 12  2  0  0  0
 11 13  1  0  0  0
 13 14  1  0  0  0
 14 15  1  0  0  0
 15 16  1  0  0  0
 15 17  1  0  0  0
 17 18  1  0  0  0
 18 19  1  0  0  0
 19 20  1  0  0  0
 20 21  1  0  0  0
 20  1  1  0  0  0
 20  5  1  0  0  0
 17  6  1  0  0  0
 15  9  1  0  0  0
  2 22  1  0  0  0
M  END
> <minimizedAffinity>
-4.73459

> <CNNscore>
0.5556930900

> <CNNaffinity>
4.8637075424

> <CNN_VS>
2.7027287483

> <CNNaffinity_variance>
0.1315078288

$$$$
[H]O[C@]1(C([H])([H])C([H])([H])[H])C([H])([H])C([H])([H])[C@]2([H])[C@]1(C([H])([H])[H])C([H])([H])C([H])([H])[C@]1([H])[C@]3(C([H])([H])[H])C(=C([H])C(=O)C([H])([H])C3([H])[H])C([H])([H])C([H])([H])[C@@]21[H]


 24 27  0  0  0  0  0  0  0  0999 V2000
   33.3055   15.0932   -6.6344 C   0  0  0  0  0  0  0  0  0  0  0  0
   33.3748   14.3909   -7.8455 O   0  0  0  0  0  0  0  0  0  0  0  0
   32.9912   16.5580   -6.9068 C   0  0  0  0  0  0  0  0  0  0  0  0
   33.9219   17.2828   -5.9501 C   0  0  0  0  0  0  0  0  0  0  0  0
   35.1171   16.4400   -6.0543 C   0  0  0  0  0  0  0  0  0  0  0  0
   36.2498   16.7048   -5.1488 C   0  0  0  0  0  0  0  0  0  0  0  0
   36.7275   18.1279   -5.3538 C   0  0  0  0  0  0  0  0  0  0  0  0
   37.9835   18.3723   -4.5842 C   0  0  0  0  0  0  0  0  0  0  0  0
   39.0307   17.3468   -4.9525 C   0  0  0  0  0  0  0  0  0  0  0  0
   40.2129   17.7773   -5.3189 C   0  0  0  0  0  0  0  0  0  0  0  0
   41.2464   16.8359   -5.6797 C   0  0  0  0  0  0  0  0  0  0  0  0
   42.2890   17.1670   -6.3009 O   0  0  0  0  0  0  0  0  0  0  0  0
   41.0687   15.4262   -5.3020 C   0  0  0  0  0  0  0  0  0  0  0  0
   39.6443   15.0448   -5.5438 C   0  0  0  0  0  0  0  0  0  0  0  0
   38.6318   15.9210   -4.8662 C   0  0  0  0  0  0  0  0  0  0  0  0
   38.4999   15.5951   -3.3957 C   0  0  0  0  0  0  0  0  0  0  0  0
   37.3397   15.7545   -5.6051 C   0  0  0  0  0  0  0  0  0  0  0  0
   36.9025   14.3269   -5.6310 C   0  0  0  0  0  0  0  0  0  0  0  0
   35.6135   14.1111   -6.3758 C   0  0  0  0  0  0  0  0  0  0  0  0
   34.5717   15.0438   -5.8625 C   0  0  0  0  0  0  0  0  0  0  0  0
   34.2933   14.7237   -4.4180 C   0  0  0  0  0  0  0  0  0  0  0  0
   33.0570   13.4663   -7.6741 H   0  0  0  0  0  0  0  0  0  0  0  0
   31.4412   13.5069   -6.7562 C   0  0  0  0  0  0  0  0  0  0  0  0
   32.1041   14.5555   -5.8852 C   0  0  0  0  0  0  0  0  0  0  0  0
 23 24  1  0  0  0
 24  1  1  0  0  0
  1  2  1  0  0  0
  1  3  1  0  0  0
  3  4  1  0  0  0
  4  5  1  0  0  0
  5  6  1  0  0  0
  6  7  1  0  0  0
  7  8  1  0  0  0
  8  9  1  0  0  0
  9 10  2  0  0  0
 10 11  1  0  0  0
 11 12  2  0  0  0
 11 13  1  0  0  0
 13 14  1  0  0  0
 14 15  1  0  0  0
 15 16  1  0  0  0
 15 17  1  0  0  0
 17 18  1  0  0  0
 18 19  1  0  0  0
 19 20  1  0  0  0
 20 21  1  0  0  0
 20  1  1  0  0  0
 20  5  1  0  0  0
 17  6  1  0  0  0
 15  9  1  0  0  0
  2 22  1  0  0  0
M  END
> <minimizedAffinity>
-4.93616

> <CNNscore>
0.5445218086

> <CNNaffinity>
5.1193532944

> <CNN_VS>
2.7875995636

> <CNNaffinity_variance>
0.0790206641

$$$$
[H]O[C@]1(C([H])([H])C([H])([H])[H])C([H])([H])C([H])([H])[C@]2([H])[C@]1(C([H])([H])[H])C([H])([H])C([H])([H])[C@]1([H])[C@]3(C([H])([H])[H])C(=C([H])C(=O)C([H])([H])C3([H])[H])C([H])([H])C([H])([H])[C@@]21[H]


 24 27  0  0  0  0  0  0  0  0999 V2000
   35.8835   14.4589  -12.7756 C   0  0  0  0  0  0  0  0  0  0  0  0
   34.7306   15.0287  -13.3335 O   0  0  0  0  0  0  0  0  0  0  0  0
   36.9746   15.5147  -12.6604 C   0  0  0  0  0  0  0  0  0  0  0  0
   38.2145   14.7646  -13.1149 C   0  0  0  0  0  0  0  0  0  0  0  0
   37.6539   13.9651  -14.2087 C   0  0  0  0  0  0  0  0  0  0  0  0
   38.5076   12.9496  -14.8514 C   0  0  0  0  0  0  0  0  0  0  0  0
   39.7392   13.6240  -15.4205 C   0  0  0  0  0  0  0  0  0  0  0  0
   40.5355   12.6562  -16.2322 C   0  0  0  0  0  0  0  0  0  0  0  0
   39.6678   12.0300  -17.2994 C   0  0  0  0  0  0  0  0  0  0  0  0
   40.0919   12.0668  -18.5387 C   0  0  0  0  0  0  0  0  0  0  0  0
   39.2983   11.4815  -19.5932 C   0  0  0  0  0  0  0  0  0  0  0  0
   39.4937   11.7220  -20.8125 O   0  0  0  0  0  0  0  0  0  0  0  0
   38.2127   10.5624  -19.2212 C   0  0  0  0  0  0  0  0  0  0  0  0
   37.5080   11.1176  -18.0262 C   0  0  0  0  0  0  0  0  0  0  0  0
   38.3940   11.4160  -16.8523 C   0  0  0  0  0  0  0  0  0  0  0  0
   38.7599   10.1624  -16.0905 C   0  0  0  0  0  0  0  0  0  0  0  0
   37.6728   12.4122  -15.9976 C   0  0  0  0  0  0  0  0  0  0  0  0
   36.3390   11.8997  -15.5641 C   0  0  0  0  0  0  0  0  0  0  0  0
   35.5728   12.8751  -14.7130 C   0  0  0  0  0  0  0  0  0  0  0  0
   36.4272   13.3406  -13.5851 C   0  0  0  0  0  0  0  0  0  0  0  0
   36.7593   12.1671  -12.7026 C   0  0  0  0  0  0  0  0  0  0  0  0
   33.9466   14.5638  -12.9406 H   0  0  0  0  0  0  0  0  0  0  0  0
   35.5968   15.3351  -10.5048 C   0  0  0  0  0  0  0  0  0  0  0  0
   35.5379   14.0789  -11.3509 C   0  0  0  0  0  0  0  0  0  0  0  0
 23 24  1  0  0  0
 24  1  1  0  0  0
  1  2  1  0  0  0
  1  3  1  0  0  0
  3  4  1  0  0  0
  4  5  1  0  0  0
  5  6  1  0  0  0
  6  7  1  0  0  0
  7  8  1  0  0  0
  8  9  1  0  0  0
  9 10  2  0  0  0
 10 11  1  0  0  0
 11 12  2  0  0  0
 11 13  1  0  0  0
 13 14  1  0  0  0
 14 15  1  0  0  0
 15 16  1  0  0  0
 15 17  1  0  0  0
 17 18  1  0  0  0
 18 19  1  0  0  0
 19 20  1  0  0  0
 20 21  1  0  0  0
 20  1  1  0  0  0
 20  5  1  0  0  0
 17  6  1  0  0  0
 15  9  1  0  0  0
  2 22  1  0  0  0
M  END
> <minimizedAffinity>
-7.15771

> <CNNscore>
0.4998549521

> <CNNaffinity>
6.4227728844

> <CNN_VS>
3.2104549408

> <CNNaffinity_variance>
0.1908783466

$$$$
[H]O[C@]1(C([H])([H])C([H])([H])[H])C([H])([H])C([H])([H])[C@]2([H])[C@]1(C([H])([H])[H])C([H])([H])C([H])([H])[C@]1([H])[C@]3(C([H])([H])[H])C(=C([H])C(=O)C([H])([H])C3([H])[H])C([H])([H])C([H])([H])[C@@]21[H]


 24 27  0  0  0  0  0  0  0  0999 V2000
   42.0615   13.0893   -7.3271 C   0  0  0  0  0  0  0  0  0  0  0  0
   42.0591   12.6082   -8.6437 O   0  0  0  0  0  0  0  0  0  0  0  0
   41.5147   12.0218   -6.3888 C   0  0  0  0  0  0  0  0  0  0  0  0
   40.6157   12.8210   -5.4616 C   0  0  0  0  0  0  0  0  0  0  0  0
   40.0267   13.7669   -6.4146 C   0  0  0  0  0  0  0  0  0  0  0  0
   39.1800   14.8569   -5.8968 C   0  0  0  0  0  0  0  0  0  0  0  0
   38.0159   14.2611   -5.1316 C   0  0  0  0  0  0  0  0  0  0  0  0
   37.0440   15.3275   -4.7475 C   0  0  0  0  0  0  0  0  0  0  0  0
   36.6043   16.0997   -5.9699 C   0  0  0  0  0  0  0  0  0  0  0  0
   35.3187   16.2323   -6.1858 C   0  0  0  0  0  0  0  0  0  0  0  0
   34.8497   16.9619   -7.3400 C   0  0  0  0  0  0  0  0  0  0  0  0
   33.6666   16.8911   -7.7618 O   0  0  0  0  0  0  0  0  0  0  0  0
   35.8016   17.8265   -8.0528 C   0  0  0  0  0  0  0  0  0  0  0  0
   37.1125   17.1153   -8.1461 C   0  0  0  0  0  0  0  0  0  0  0  0
   37.6752   16.6528   -6.8340 C   0  0  0  0  0  0  0  0  0  0  0  0
   38.3123   17.7872   -6.0639 C   0  0  0  0  0  0  0  0  0  0  0  0
   38.6453   15.5519   -7.1339 C   0  0  0  0  0  0  0  0  0  0  0  0
   39.7210   16.0067   -8.0643 C   0  0  0  0  0  0  0  0  0  0  0  0
   40.7120   14.9271   -8.4039 C   0  0  0  0  0  0  0  0  0  0  0  0
   41.2299   14.3057   -7.1531 C   0  0  0  0  0  0  0  0  0  0  0  0
   41.9788   15.3443   -6.3613 C   0  0  0  0  0  0  0  0  0  0  0  0
   42.8311   13.0185   -9.1138 H   0  0  0  0  0  0  0  0  0  0  0  0
   44.0815   11.9043   -6.6044 C   0  0  0  0  0  0  0  0  0  0  0  0
   43.5117   13.2706   -6.9303 C   0  0  0  0  0  0  0  0  0  0  0  0
 23 24  1  0  0  0
 24  1  1  0  0  0
  1  2  1  0  0  0
  1  3  1  0  0  0
  3  4  1  0  0  0
  4  5  1  0  0  0
  5  6  1  0  0  0
  6  7  1  0  0  0
  7  8  1  0  0  0
  8  9  1  0  0  0
  9 10  2  0  0  0
 10 11  1  0  0  0
 11 12  2  0  0  0
 11 13  1  0  0  0
 13 14  1  0  0  0
 14 15  1  0  0  0
 15 16  1  0  0  0
 15 17  1  0  0  0
 17 18  1  0  0  0
 18 19  1  0  0  0
 19 20  1  0  0  0
 20 21  1  0  0  0
 20  1  1  0  0  0
 20  5  1  0  0  0
 17  6  1  0  0  0
 15  9  1  0  0  0
  2 22  1  0  0  0
M  END
> <minimizedAffinity>
-4.93670

> <CNNscore>
0.4762252271

> <CNNaffinity>
5.0522885323

> <CNN_VS>
2.4060273170

> <CNNaffinity_variance>
0.1866577119

$$$$
[H]O[C@]1(C([H])([H])C([H])([H])[H])C([H])([H])C([H])([H])[C@]2([H])[C@]1(C([H])([H])[H])C([H])([H])C([H])([H])[C@]1([H])[C@]3(C([H])([H])[H])C(=C([H])C(=O)C([H])([H])C3([H])[H])C([H])([H])C([H])([H])[C@@]21[H]


 24 27  0  0  0  0  0  0  0  0999 V2000
   41.8982   15.1428   -8.2228 C   0  0  0  0  0  0  0  0  0  0  0  0
   40.8418   14.2785   -7.9033 O   0  0  0  0  0  0  0  0  0  0  0  0
   41.6438   15.7860   -9.5794 C   0  0  0  0  0  0  0  0  0  0  0  0
   43.0107   15.7265  -10.2388 C   0  0  0  0  0  0  0  0  0  0  0  0
   43.4675   14.4100   -9.7825 C   0  0  0  0  0  0  0  0  0  0  0  0
   44.8526   14.0011  -10.0779 C   0  0  0  0  0  0  0  0  0  0  0  0
   45.0661   14.0165  -11.5777 C   0  0  0  0  0  0  0  0  0  0  0  0
   46.3987   13.4370  -11.9207 C   0  0  0  0  0  0  0  0  0  0  0  0
   46.5368   12.0545  -11.3263 C   0  0  0  0  0  0  0  0  0  0  0  0
   46.8872   11.0737  -12.1215 C   0  0  0  0  0  0  0  0  0  0  0  0
   47.0325    9.7353  -11.5999 C   0  0  0  0  0  0  0  0  0  0  0  0
   47.0846    8.7151  -12.3341 O   0  0  0  0  0  0  0  0  0  0  0  0
   47.1237    9.5605  -10.1429 C   0  0  0  0  0  0  0  0  0  0  0  0
   46.1364   10.4737   -9.4915 C   0  0  0  0  0  0  0  0  0  0  0  0
   46.2639   11.9190   -9.8748 C   0  0  0  0  0  0  0  0  0  0  0  0
   47.4082   12.5937   -9.1528 C   0  0  0  0  0  0  0  0  0  0  0  0
   44.9458   12.5693   -9.5871 C   0  0  0  0  0  0  0  0  0  0  0  0
   44.5576   12.4123   -8.1538 C   0  0  0  0  0  0  0  0  0  0  0  0
   43.2314   13.0402   -7.8226 C   0  0  0  0  0  0  0  0  0  0  0  0
   43.2100   14.4530   -8.2941 C   0  0  0  0  0  0  0  0  0  0  0  0
   44.2561   15.2368   -7.5473 C   0  0  0  0  0  0  0  0  0  0  0  0
   40.7315   14.2923   -6.9169 H   0  0  0  0  0  0  0  0  0  0  0  0
   40.6599   16.0525   -6.3135 C   0  0  0  0  0  0  0  0  0  0  0  0
   41.8515   16.2790   -7.2225 C   0  0  0  0  0  0  0  0  0  0  0  0
 23 24  1  0  0  0
 24  1  1  0  0  0
  1  2  1  0  0  0
  1  3  1  0  0  0
  3  4  1  0  0  0
  4  5  1  0  0  0
  5  6  1  0  0  0
  6  7  1  0  0  0
  7  8  1  0  0  0
  8  9  1  0  0  0
  9 10  2  0  0  0
 10 11  1  0  0  0
 11 12  2  0  0  0
 11 13  1  0  0  0
 13 14  1  0  0  0
 14 15  1  0  0  0
 15 16  1  0  0  0
 15 17  1  0  0  0
 17 18  1  0  0  0
 18 19  1  0  0  0
 19 20  1  0  0  0
 20 21  1  0  0  0
 20  1  1  0  0  0
 20  5  1  0  0  0
 17  6  1  0  0  0
 15  9  1  0  0  0
  2 22  1  0  0  0
M  END
> <minimizedAffinity>
-4.82651

> <CNNscore>
0.4723817408

> <CNNaffinity>
4.8473501205

> <CNN_VS>
2.2897996902

> <CNNaffinity_variance>
0.1220571026

$$$$
[H]O[C@]1(C([H])([H])C([H])([H])[H])C([H])([H])C([H])([H])[C@]2([H])[C@]1(C([H])([H])[H])C([H])([H])C([H])([H])[C@]1([H])[C@]3(C([H])([H])[H])C(=C([H])C(=O)C([H])([H])C3([H])[H])C([H])([H])C([H])([H])[C@@]21[H]


 24 27  0  0  0  0  0  0  0  0999 V2000
   41.5610   13.8166   -7.3285 C   0  0  0  0  0  0  0  0  0  0  0  0
   41.5430   12.7590   -8.2483 O   0  0  0  0  0  0  0  0  0  0  0  0
   41.8700   13.2821   -5.9366 C   0  0  0  0  0  0  0  0  0  0  0  0
   40.8978   14.0520   -5.0598 C   0  0  0  0  0  0  0  0  0  0  0  0
   39.7158   14.0692   -5.9272 C   0  0  0  0  0  0  0  0  0  0  0  0
   38.5483   14.8692   -5.5151 C   0  0  0  0  0  0  0  0  0  0  0  0
   38.0638   14.3821   -4.1648 C   0  0  0  0  0  0  0  0  0  0  0  0
   36.7782   15.0484   -3.8006 C   0  0  0  0  0  0  0  0  0  0  0  0
   35.7556   14.8461   -4.8947 C   0  0  0  0  0  0  0  0  0  0  0  0
   34.5832   14.3650   -4.5615 C   0  0  0  0  0  0  0  0  0  0  0  0
   33.5732   14.1545   -5.5715 C   0  0  0  0  0  0  0  0  0  0  0  0
   32.5505   13.4469   -5.3815 O   0  0  0  0  0  0  0  0  0  0  0  0
   33.7514   14.7985   -6.8811 C   0  0  0  0  0  0  0  0  0  0  0  0
   35.1875   14.6817   -7.2771 C   0  0  0  0  0  0  0  0  0  0  0  0
   36.1656   15.2146   -6.2715 C   0  0  0  0  0  0  0  0  0  0  0  0
   36.2473   16.7238   -6.3111 C   0  0  0  0  0  0  0  0  0  0  0  0
   37.4854   14.5649   -6.5529 C   0  0  0  0  0  0  0  0  0  0  0  0
   37.9378   14.8249   -7.9520 C   0  0  0  0  0  0  0  0  0  0  0  0
   39.2553   14.1785   -8.2830 C   0  0  0  0  0  0  0  0  0  0  0  0
   40.2681   14.5406   -7.2525 C   0  0  0  0  0  0  0  0  0  0  0  0
   40.4970   16.0281   -7.2888 C   0  0  0  0  0  0  0  0  0  0  0  0
   41.8638   13.1132   -9.1182 H   0  0  0  0  0  0  0  0  0  0  0  0
   44.0014   14.0084   -7.2095 C   0  0  0  0  0  0  0  0  0  0  0  0
   42.7397   14.6944   -7.6944 C   0  0  0  0  0  0  0  0  0  0  0  0
 23 24  1  0  0  0
 24  1  1  0  0  0
  1  2  1  0  0  0
  1  3  1  0  0  0
  3  4  1  0  0  0
  4  5  1  0  0  0
  5  6  1  0  0  0
  6  7  1  0  0  0
  7  8  1  0  0  0
  8  9  1  0  0  0
  9 10  2  0  0  0
 10 11  1  0  0  0
 11 12  2  0  0  0
 11 13  1  0  0  0
 13 14  1  0  0  0
 14 15  1  0  0  0
 15 16  1  0  0  0
 15 17  1  0  0  0
 17 18  1  0  0  0
 18 19  1  0  0  0
 19 20  1  0  0  0
 20 21  1  0  0  0
 20  1  1  0  0  0
 20  5  1  0  0  0
 17  6  1  0  0  0
 15  9  1  0  0  0
  2 22  1  0  0  0
M  END
> <minimizedAffinity>
-5.40496

> <CNNscore>
0.4523051977

> <CNNaffinity>
4.8948640823

> <CNN_VS>
2.2139725685

> <CNNaffinity_variance>
0.0389227644

$$$$
[H]O[C@]1(C([H])([H])C([H])([H])[H])C([H])([H])C([H])([H])[C@]2([H])[C@]1(C([H])([H])[H])C([H])([H])C([H])([H])[C@]1([H])[C@]3(C([H])([H])[H])C(=C([H])C(=O)C([H])([H])C3([H])[H])C([H])([H])C([H])([H])[C@@]21[H]


 24 27  0  0  0  0  0  0  0  0999 V2000
   32.1260   17.1954   -6.5357 C   0  0  0  0  0  0  0  0  0  0  0  0
   32.1977   18.4496   -5.9136 O   0  0  0  0  0  0  0  0  0  0  0  0
   31.7062   16.1412   -5.5203 C   0  0  0  0  0  0  0  0  0  0  0  0
   32.6210   14.9751   -5.8520 C   0  0  0  0  0  0  0  0  0  0  0  0
   33.8647   15.6915   -6.1519 C   0  0  0  0  0  0  0  0  0  0  0  0
   35.0094   14.9288   -6.6820 C   0  0  0  0  0  0  0  0  0  0  0  0
   35.3845   13.8441   -5.6930 C   0  0  0  0  0  0  0  0  0  0  0  0
   36.6487   13.1698   -6.1133 C   0  0  0  0  0  0  0  0  0  0  0  0
   37.7472   14.1898   -6.3046 C   0  0  0  0  0  0  0  0  0  0  0  0
   38.8844   13.9948   -5.6836 C   0  0  0  0  0  0  0  0  0  0  0  0
   39.9640   14.9413   -5.8356 C   0  0  0  0  0  0  0  0  0  0  0  0
   40.9594   14.9753   -5.0670 O   0  0  0  0  0  0  0  0  0  0  0  0
   39.8934   15.9084   -6.9407 C   0  0  0  0  0  0  0  0  0  0  0  0
   38.4894   16.4091   -7.0457 C   0  0  0  0  0  0  0  0  0  0  0  0
   37.4466   15.3399   -7.1914 C   0  0  0  0  0  0  0  0  0  0  0  0
   37.3896   14.7979   -8.6017 C   0  0  0  0  0  0  0  0  0  0  0  0
   36.1424   15.9339   -6.7560 C   0  0  0  0  0  0  0  0  0  0  0  0
   35.7996   17.1492   -7.5530 C   0  0  0  0  0  0  0  0  0  0  0  0
   34.5016   17.7872   -7.1397 C   0  0  0  0  0  0  0  0  0  0  0  0
   33.4197   16.7634   -7.1197 C   0  0  0  0  0  0  0  0  0  0  0  0
   33.2155   16.2361   -8.5149 C   0  0  0  0  0  0  0  0  0  0  0  0
   31.9478   19.1333   -6.5883 H   0  0  0  0  0  0  0  0  0  0  0  0
   29.6922   17.0486   -6.7843 C   0  0  0  0  0  0  0  0  0  0  0  0
   30.9905   17.2674   -7.5353 C   0  0  0  0  0  0  0  0  0  0  0  0
 23 24  1  0  0  0
 24  1  1  0  0  0
  1  2  1  0  0  0
  1  3  1  0  0  0
  3  4  1  0  0  0
  4  5  1  0  0  0
  5  6  1  0  0  0
  6  7  1  0  0  0
  7  8  1  0  0  0
  8  9  1  0  0  0
  9 10  2  0  0  0
 10 11  1  0  0  0
 11 12  2  0  0  0
 11 13  1  0  0  0
 13 14  1  0  0  0
 14 15  1  0  0  0
 15 16  1  0  0  0
 15 17  1  0  0  0
 17 18  1  0  0  0
 18 19  1  0  0  0
 19 20  1  0  0  0
 20 21  1  0  0  0
 20  1  1  0  0  0
 20  5  1  0  0  0
 17  6  1  0  0  0
 15  9  1  0  0  0
  2 22  1  0  0  0
M  END
> <minimizedAffinity>
-5.14471

> <CNNscore>
0.4496464729

> <CNNaffinity>
5.1248540878

> <CNN_VS>
2.3043725491

> <CNNaffinity_variance>
0.0715602040

$$$$
[H]O[C@]1(C([H])([H])C([H])([H])[H])C([H])([H])C([H])([H])[C@]2([H])[C@]1(C([H])([H])[H])C([H])([H])C([H])([H])[C@]1([H])[C@]3(C([H])([H])[H])C(=C([H])C(=O)C([H])([H])C3([H])[H])C([H])([H])C([H])([H])[C@@]21[H]


 24 27  0  0  0  0  0  0  0  0999 V2000
   38.5531   15.3380   -5.8967 C   0  0  0  0  0  0  0  0  0  0  0  0
   38.8967   14.4125   -6.8918 O   0  0  0  0  0  0  0  0  0  0  0  0
   38.3120   14.6117   -4.5803 C   0  0  0  0  0  0  0  0  0  0  0  0
   37.0721   15.3026   -4.0399 C   0  0  0  0  0  0  0  0  0  0  0  0
   36.3106   15.4869   -5.2792 C   0  0  0  0  0  0  0  0  0  0  0  0
   35.0673   16.2776   -5.2338 C   0  0  0  0  0  0  0  0  0  0  0  0
   34.1083   15.6394   -4.2497 C   0  0  0  0  0  0  0  0  0  0  0  0
   32.7753   16.3093   -4.3115 C   0  0  0  0  0  0  0  0  0  0  0  0
   32.2496   16.2989   -5.7283 C   0  0  0  0  0  0  0  0  0  0  0  0
   31.0430   15.8314   -5.9347 C   0  0  0  0  0  0  0  0  0  0  0  0
   30.4968   15.8013   -7.2708 C   0  0  0  0  0  0  0  0  0  0  0  0
   29.4853   15.1217   -7.5830 O   0  0  0  0  0  0  0  0  0  0  0  0
   31.1558   16.6033   -8.3120 C   0  0  0  0  0  0  0  0  0  0  0  0
   32.6353   16.4750   -8.1461 C   0  0  0  0  0  0  0  0  0  0  0  0
   33.1509   16.8265   -6.7812 C   0  0  0  0  0  0  0  0  0  0  0  0
   33.2284   18.3225   -6.5771 C   0  0  0  0  0  0  0  0  0  0  0  0
   34.4837   16.1606   -6.6285 C   0  0  0  0  0  0  0  0  0  0  0  0
   35.4337   16.5817   -7.7009 C   0  0  0  0  0  0  0  0  0  0  0  0
   36.7832   15.9259   -7.5939 C   0  0  0  0  0  0  0  0  0  0  0  0
   37.3229   16.1032   -6.2168 C   0  0  0  0  0  0  0  0  0  0  0  0
   37.5354   17.5708   -5.9569 C   0  0  0  0  0  0  0  0  0  0  0  0
   39.5222   14.8633   -7.5169 H   0  0  0  0  0  0  0  0  0  0  0  0
   40.8029   15.3680   -4.9251 C   0  0  0  0  0  0  0  0  0  0  0  0
   39.7746   16.2022   -5.6627 C   0  0  0  0  0  0  0  0  0  0  0  0
 23 24  1  0  0  0
 24  1  1  0  0  0
  1  2  1  0  0  0
  1  3  1  0  0  0
  3  4  1  0  0  0
  4  5  1  0  0  0
  5  6  1  0  0  0
  6  7  1  0  0  0
  7  8  1  0  0  0
  8  9  1  0  0  0
  9 10  2  0  0  0
 10 11  1  0  0  0
 11 12  2  0  0  0
 11 13  1  0  0  0
 13 14  1  0  0  0
 14 15  1  0  0  0
 15 16  1  0  0  0
 15 17  1  0  0  0
 17 18  1  0  0  0
 18 19  1  0  0  0
 19 20  1  0  0  0
 20 21  1  0  0  0
 20  1  1  0  0  0
 20  5  1  0  0  0
 17  6  1  0  0  0
 15  9  1  0  0  0
  2 22  1  0  0  0
M  END
> <minimizedAffinity>
-4.85660

> <CNNscore>
0.4371425807

> <CNNaffinity>
5.1728954315

> <CNN_VS>
2.2612929344

> <CNNaffinity_variance>
0.1298259646

$$$$
[H]O[C@]1(C([H])([H])C([H])([H])[H])C([H])([H])C([H])([H])[C@]2([H])[C@]1(C([H])([H])[H])C([H])([H])C([H])([H])[C@]1([H])[C@]3(C([H])([H])[H])C(=C([H])C(=O)C([H])([H])C3([H])[H])C([H])([H])C([H])([H])[C@@]21[H]


 24 27  0  0  0  0  0  0  0  0999 V2000
   34.1833   18.0292   -5.2151 C   0  0  0  0  0  0  0  0  0  0  0  0
   34.3783   19.4152   -5.1374 O   0  0  0  0  0  0  0  0  0  0  0  0
   34.7804   17.3564   -3.9865 C   0  0  0  0  0  0  0  0  0  0  0  0
   35.4672   16.1361   -4.5745 C   0  0  0  0  0  0  0  0  0  0  0  0
   36.0079   16.7074   -5.8119 C   0  0  0  0  0  0  0  0  0  0  0  0
   36.6419   15.8043   -6.7893 C   0  0  0  0  0  0  0  0  0  0  0  0
   37.7987   15.0862   -6.1247 C   0  0  0  0  0  0  0  0  0  0  0  0
   38.5723   14.3004   -7.1315 C   0  0  0  0  0  0  0  0  0  0  0  0
   39.0157   15.1956   -8.2655 C   0  0  0  0  0  0  0  0  0  0  0  0
   40.2853   15.1965   -8.5898 C   0  0  0  0  0  0  0  0  0  0  0  0
   40.7569   16.0346   -9.6667 C   0  0  0  0  0  0  0  0  0  0  0  0
   41.9733   16.3008   -9.8461 O   0  0  0  0  0  0  0  0  0  0  0  0
   39.7670   16.6012  -10.5945 C   0  0  0  0  0  0  0  0  0  0  0  0
   38.5823   17.0569   -9.8060 C   0  0  0  0  0  0  0  0  0  0  0  0
   37.9662   16.0074   -8.9279 C   0  0  0  0  0  0  0  0  0  0  0  0
   37.1073   15.0461   -9.7178 C   0  0  0  0  0  0  0  0  0  0  0  0
   37.1911   16.7222   -7.8641 C   0  0  0  0  0  0  0  0  0  0  0  0
   36.1567   17.6248   -8.4516 C   0  0  0  0  0  0  0  0  0  0  0  0
   35.3619   18.3743   -7.4175 C   0  0  0  0  0  0  0  0  0  0  0  0
   34.8179   17.4209   -6.4105 C   0  0  0  0  0  0  0  0  0  0  0  0
   33.8600   16.4799   -7.0912 C   0  0  0  0  0  0  0  0  0  0  0  0
   33.6055   19.8517   -5.5819 H   0  0  0  0  0  0  0  0  0  0  0  0
   32.2878   17.9266   -3.6649 C   0  0  0  0  0  0  0  0  0  0  0  0
   32.6907   17.7915   -5.1199 C   0  0  0  0  0  0  0  0  0  0  0  0
 23 24  1  0  0  0
 24  1  1  0  0  0
  1  2  1  0  0  0
  1  3  1  0  0  0
  3  4  1  0  0  0
  4  5  1  0  0  0
  5  6  1  0  0  0
  6  7  1  0  0  0
  7  8  1  0  0  0
  8  9  1  0  0  0
  9 10  2  0  0  0
 10 11  1  0  0  0
 11 12  2  0  0  0
 11 13  1  0  0  0
 13 14  1  0  0  0
 14 15  1  0  0  0
 15 16  1  0  0  0
 15 17  1  0  0  0
 17 18  1  0  0  0
 18 19  1  0  0  0
 19 20  1  0  0  0
 20 21  1  0  0  0
 20  1  1  0  0  0
 20  5  1  0  0  0
 17  6  1  0  0  0
 15  9  1  0  0  0
  2 22  1  0  0  0
M  END
> <minimizedAffinity>
-4.87930

> <CNNscore>
0.4081950784

> <CNNaffinity>
5.0785832405

> <CNN_VS>
2.0730526447

> <CNNaffinity_variance>
0.1673610061

$$$$
[H]N=C(c1c([H])c([H])c([H])c(C([H])([H])[C@]([H])(C(=O)N([H])[C@]([H])(C([H])=O)C([H])([H])C([H])([H])C([H])([H])N([H])C(=N[H])N([H])[H])N([H])C(=O)OC(C([H])([H])[H])(C([H])([H])[H])C([H])([H])[H])c1[H])N([H])[H]


 41 41  0  0  0  0  0  0  0  0999 V2000
   38.4003   13.7200  -13.7878 C   0  0  0  0  0  0  0  0  0  0  0  0
   36.5456   14.1548  -12.2112 C   0  0  0  0  0  0  0  0  0  0  0  0
   35.7283   14.2185  -13.1463 O   0  0  0  0  0  0  0  0  0  0  0  0
   37.9175   13.9108  -12.3936 N   0  0  0  0  0  0  0  0  0  0  0  0
   38.6322   13.8490  -11.6575 H   0  0  0  0  0  0  0  0  0  0  0  0
   36.0540   14.3377  -10.9288 O   0  0  0  0  0  0  0  0  0  0  0  0
   36.2201   16.6634  -11.2995 C   0  0  0  0  0  0  0  0  0  0  0  0
   36.1844   15.5505  -10.2726 C   0  0  0  0  0  0  0  0  0  0  0  0
   34.9716   15.7203   -9.3512 C   0  0  0  0  0  0  0  0  0  0  0  0
   37.4041   15.6761   -9.4082 C   0  0  0  0  0  0  0  0  0  0  0  0
   39.7534   14.2495  -13.8049 C   0  0  0  0  0  0  0  0  0  0  0  0
   39.8874   15.5360  -13.7773 O   0  0  0  0  0  0  0  0  0  0  0  0
   40.9475   13.5171  -13.8576 N   0  0  0  0  0  0  0  0  0  0  0  0
   40.8727   12.4652  -13.8760 H   0  0  0  0  0  0  0  0  0  0  0  0
   42.2619   14.1115  -13.9045 C   0  0  0  0  0  0  0  0  0  0  0  0
   43.1103   13.4142  -14.9343 C   0  0  0  0  0  0  0  0  0  0  0  0
   42.6746   13.3399  -16.0615 O   0  0  0  0  0  0  0  0  0  0  0  0
   42.9133   14.1223  -12.5713 C   0  0  0  0  0  0  0  0  0  0  0  0
   44.2873   13.5244  -12.5567 C   0  0  0  0  0  0  0  0  0  0  0  0
   44.4980   12.6077  -11.3719 C   0  0  0  0  0  0  0  0  0  0  0  0
   43.4565   12.7065  -10.3920 N   0  0  0  0  0  0  0  0  0  0  0  0
   42.5001   12.3688  -10.6315 H   0  0  0  0  0  0  0  0  0  0  0  0
   43.6480   13.2447   -9.0949 C   0  0  0  0  0  0  0  0  0  0  0  0
   44.3796   14.4472   -8.8955 N   0  0  0  0  0  0  0  0  0  0  0  0
   43.1754   12.6831   -8.0299 N   0  0  0  0  0  0  0  0  0  0  0  0
   45.3045   14.6158   -9.3485 H   0  0  0  0  0  0  0  0  0  0  0  0
   44.0164   15.2112   -8.2841 H   0  0  0  0  0  0  0  0  0  0  0  0
   42.6288   11.8119   -8.0311 H   0  0  0  0  0  0  0  0  0  0  0  0
   38.1198   12.3148  -14.0986 C   0  0  0  0  0  0  0  0  0  0  0  0
   37.9078   11.8881  -15.4704 C   0  0  0  0  0  0  0  0  0  0  0  0
   36.6395   11.4664  -15.8694 C   0  0  0  0  0  0  0  0  0  0  0  0
   36.4912   11.0140  -17.1528 C   0  0  0  0  0  0  0  0  0  0  0  0
   37.5758   10.9762  -18.0342 C   0  0  0  0  0  0  0  0  0  0  0  0
   38.8294   11.3900  -17.6485 C   0  0  0  0  0  0  0  0  0  0  0  0
   38.9623   11.8438  -16.3502 C   0  0  0  0  0  0  0  0  0  0  0  0
   39.9580   11.3454  -18.5673 C   0  0  0  0  0  0  0  0  0  0  0  0
   41.2119   11.7707  -18.0640 N   0  0  0  0  0  0  0  0  0  0  0  0
   39.8178   10.9350  -19.7729 N   0  0  0  0  0  0  0  0  0  0  0  0
   41.6125   12.6573  -18.3979 H   0  0  0  0  0  0  0  0  0  0  0  0
   41.7068   11.1914  -17.3726 H   0  0  0  0  0  0  0  0  0  0  0  0
   38.9726   10.6078  -20.2283 H   0  0  0  0  0  0  0  0  0  0  0  0
  7  8  1  0  0  0
  8  9  1  0  0  0
  8 10  1  0  0  0
  8  6  1  0  0  0
  6  2  1  0  0  0
  2  3  2  0  0  0
  2  4  1  0  0  0
  4  1  1  0  0  0
  1 29  1  0  0  0
 29 30  1  0  0  0
 30 31  2  0  0  0
 31 32  1  0  0  0
 32 33  2  0  0  0
 33 34  1  0  0  0
 34 35  2  0  0  0
 34 36  1  0  0  0
 36 37  1  0  0  0
 36 38  2  0  0  0
  1 11  1  0  0  0
 11 12  2  0  0  0
 11 13  1  0  0  0
 13 15  1  0  0  0
 15 18  1  0  0  0
 18 19  1  0  0  0
 19 20  1  0  0  0
 20 21  1  0  0  0
 21 23  1  0  0  0
 23 24  1  0  0  0
 23 25  2  0  0  0
 15 16  1  0  0  0
 16 17  2  0  0  0
 35 30  1  0  0  0
  4  5  1  0  0  0
 37 39  1  0  0  0
 37 40  1  0  0  0
 38 41  1  0  0  0
 13 14  1  0  0  0
 21 22  1  0  0  0
 24 26  1  0  0  0
 24 27  1  0  0  0
 25 28  1  0  0  0
M  END
> <minimizedAffinity>
-7.65653

> <CNNscore>
0.2335235327

> <CNNaffinity>
6.0030131340

> <CNN_VS>
1.4018448591

> <CNNaffinity_variance>
0.0988012701

$$$$
[H]N=C(c1c([H])c([H])c([H])c(C([H])([H])[C@]([H])(C(=O)N([H])[C@]([H])(C([H])=O)C([H])([H])C([H])([H])C([H])([H])N([H])C(=N[H])N([H])[H])N([H])C(=O)OC(C([H])([H])[H])(C([H])([H])[H])C([H])([H])[H])c1[H])N([H])[H]


 41 41  0  0  0  0  0  0  0  0999 V2000
   38.2152   14.3005  -13.0853 C   0  0  0  0  0  0  0  0  0  0  0  0
   37.5820   15.6901  -11.1403 C   0  0  0  0  0  0  0  0  0  0  0  0
   36.8803   16.4244  -11.8578 O   0  0  0  0  0  0  0  0  0  0  0  0
   38.3058   14.5888  -11.6286 N   0  0  0  0  0  0  0  0  0  0  0  0
   38.8984   13.9529  -11.0801 H   0  0  0  0  0  0  0  0  0  0  0  0
   37.6381   15.9934   -9.7896 O   0  0  0  0  0  0  0  0  0  0  0  0
   38.5888   16.8319   -7.7978 C   0  0  0  0  0  0  0  0  0  0  0  0
   38.4968   16.9656   -9.3038 C   0  0  0  0  0  0  0  0  0  0  0  0
   39.8727   16.7390   -9.9396 C   0  0  0  0  0  0  0  0  0  0  0  0
   38.1016   18.3774   -9.6220 C   0  0  0  0  0  0  0  0  0  0  0  0
   39.5636   14.4734  -13.5988 C   0  0  0  0  0  0  0  0  0  0  0  0
   40.0354   15.6775  -13.6335 O   0  0  0  0  0  0  0  0  0  0  0  0
   40.4215   13.4727  -14.0761 N   0  0  0  0  0  0  0  0  0  0  0  0
   40.0685   12.4791  -14.0565 H   0  0  0  0  0  0  0  0  0  0  0  0
   41.7418   13.7205  -14.6038 C   0  0  0  0  0  0  0  0  0  0  0  0
   41.9830   12.8672  -15.8204 C   0  0  0  0  0  0  0  0  0  0  0  0
   41.1697   12.9256  -16.7155 O   0  0  0  0  0  0  0  0  0  0  0  0
   42.7950   13.5243  -13.5770 C   0  0  0  0  0  0  0  0  0  0  0  0
   43.7065   14.7009  -13.4028 C   0  0  0  0  0  0  0  0  0  0  0  0
   44.9184   14.6221  -14.3049 C   0  0  0  0  0  0  0  0  0  0  0  0
   46.0817   15.2395  -13.7394 N   0  0  0  0  0  0  0  0  0  0  0  0
   46.7329   14.6644  -13.1637 H   0  0  0  0  0  0  0  0  0  0  0  0
   46.4084   16.6074  -13.9158 C   0  0  0  0  0  0  0  0  0  0  0  0
   46.4189   17.2031  -15.2065 N   0  0  0  0  0  0  0  0  0  0  0  0
   46.7117   17.3852  -12.9278 N   0  0  0  0  0  0  0  0  0  0  0  0
   46.8883   16.7519  -16.0221 H   0  0  0  0  0  0  0  0  0  0  0  0
   45.9546   18.1201  -15.3875 H   0  0  0  0  0  0  0  0  0  0  0  0
   46.7419   17.0843  -11.9449 H   0  0  0  0  0  0  0  0  0  0  0  0
   37.5162   13.0149  -13.1760 C   0  0  0  0  0  0  0  0  0  0  0  0
   36.1311   12.9543  -13.6079 C   0  0  0  0  0  0  0  0  0  0  0  0
   35.8104   12.2928  -14.7934 C   0  0  0  0  0  0  0  0  0  0  0  0
   34.5035   12.3083  -15.2001 C   0  0  0  0  0  0  0  0  0  0  0  0
   33.5227   12.9657  -14.4514 C   0  0  0  0  0  0  0  0  0  0  0  0
   33.8307   13.6204  -13.2818 C   0  0  0  0  0  0  0  0  0  0  0  0
   35.1540   13.5953  -12.8850 C   0  0  0  0  0  0  0  0  0  0  0  0
   32.8079   14.3078  -12.5064 C   0  0  0  0  0  0  0  0  0  0  0  0
   33.2562   15.2133  -11.5136 N   0  0  0  0  0  0  0  0  0  0  0  0
   31.5615   14.1025  -12.7203 N   0  0  0  0  0  0  0  0  0  0  0  0
   33.1403   14.9682  -10.5213 H   0  0  0  0  0  0  0  0  0  0  0  0
   33.6914   16.1025  -11.7936 H   0  0  0  0  0  0  0  0  0  0  0  0
   31.1373   13.4838  -13.4030 H   0  0  0  0  0  0  0  0  0  0  0  0
  7  8  1  0  0  0
  8  9  1  0  0  0
  8 10  1  0  0  0
  8  6  1  0  0  0
  6  2  1  0  0  0
  2  3  2  0  0  0
  2  4  1  0  0  0
  4  1  1  0  0  0
  1 29  1  0  0  0
 29 30  1  0  0  0
 30 31  2  0  0  0
 31 32  1  0  0  0
 32 33  2  0  0  0
 33 34  1  0  0  0
 34 35  2  0  0  0
 34 36  1  0  0  0
 36 37  1  0  0  0
 36 38  2  0  0  0
  1 11  1  0  0  0
 11 12  2  0  0  0
 11 13  1  0  0  0
 13 15  1  0  0  0
 15 18  1  0  0  0
 18 19  1  0  0  0
 19 20  1  0  0  0
 20 21  1  0  0  0
 21 23  1  0  0  0
 23 24  1  0  0  0
 23 25  2  0  0  0
 15 16  1  0  0  0
 16 17  2  0  0  0
 35 30  1  0  0  0
  4  5  1  0  0  0
 37 39  1  0  0  0
 37 40  1  0  0  0
 38 41  1  0  0  0
 13 14  1  0  0  0
 21 22  1  0  0  0
 24 26  1  0  0  0
 24 27  1  0  0  0
 25 28  1  0  0  0
M  END
> <minimizedAffinity>
-6.97195

> <CNNscore>
0.2213790715

> <CNNaffinity>
5.8920254707

> <CNN_VS>
1.3043711185

> <CNNaffinity_variance>
0.0669862330

$$$$
[H]N=C(c1c([H])c([H])c([H])c(C([H])([H])[C@]([H])(C(=O)N([H])[C@]([H])(C([H])=O)C([H])([H])C([H])([H])C([H])([H])N([H])C(=N[H])N([H])[H])N([H])C(=O)OC(C([H])([H])[H])(C([H])([H])[H])C([H])([H])[H])c1[H])N([H])[H]


 41 41  0  0  0  0  0  0  0  0999 V2000
   39.4224   13.2889  -14.9602 C   0  0  0  0  0  0  0  0  0  0  0  0
   39.5408   14.9560  -13.1376 C   0  0  0  0  0  0  0  0  0  0  0  0
   39.3224   15.8849  -13.9351 O   0  0  0  0  0  0  0  0  0  0  0  0
   39.6169   13.6057  -13.5196 N   0  0  0  0  0  0  0  0  0  0  0  0
   39.7945   12.8032  -12.9025 H   0  0  0  0  0  0  0  0  0  0  0  0
   39.7154   15.2947  -11.8056 O   0  0  0  0  0  0  0  0  0  0  0  0
   38.5909   14.8430   -9.7794 C   0  0  0  0  0  0  0  0  0  0  0  0
   38.6514   15.7083  -11.0211 C   0  0  0  0  0  0  0  0  0  0  0  0
   38.8922   17.1716  -10.6344 C   0  0  0  0  0  0  0  0  0  0  0  0
   37.3104   15.6540  -11.6914 C   0  0  0  0  0  0  0  0  0  0  0  0
   40.7297   13.4538  -15.5728 C   0  0  0  0  0  0  0  0  0  0  0  0
   40.7780   14.0635  -16.7128 O   0  0  0  0  0  0  0  0  0  0  0  0
   41.9615   13.0142  -15.0683 N   0  0  0  0  0  0  0  0  0  0  0  0
   41.9570   12.5178  -14.1378 H   0  0  0  0  0  0  0  0  0  0  0  0
   43.2233   13.1843  -15.7480 C   0  0  0  0  0  0  0  0  0  0  0  0
   43.4704   12.0285  -16.6804 C   0  0  0  0  0  0  0  0  0  0  0  0
   44.6013   11.8635  -17.0804 O   0  0  0  0  0  0  0  0  0  0  0  0
   44.3453   13.3718  -14.7952 C   0  0  0  0  0  0  0  0  0  0  0  0
   44.4370   14.7533  -14.2219 C   0  0  0  0  0  0  0  0  0  0  0  0
   45.8217   15.3433  -14.3738 C   0  0  0  0  0  0  0  0  0  0  0  0
   46.0818   16.4119  -13.4547 N   0  0  0  0  0  0  0  0  0  0  0  0
   46.4603   16.1884  -12.5098 H   0  0  0  0  0  0  0  0  0  0  0  0
   45.8519   17.7780  -13.7544 C   0  0  0  0  0  0  0  0  0  0  0  0
   44.5521   18.3459  -13.6596 N   0  0  0  0  0  0  0  0  0  0  0  0
   46.7969   18.5792  -14.1263 N   0  0  0  0  0  0  0  0  0  0  0  0
   43.7121   17.8806  -14.0685 H   0  0  0  0  0  0  0  0  0  0  0  0
   44.3886   19.2553  -13.1745 H   0  0  0  0  0  0  0  0  0  0  0  0
   47.7806   18.2998  -14.2352 H   0  0  0  0  0  0  0  0  0  0  0  0
   38.7223   12.0007  -14.9753 C   0  0  0  0  0  0  0  0  0  0  0  0
   37.3017   11.9336  -15.2686 C   0  0  0  0  0  0  0  0  0  0  0  0
   36.8713   11.3046  -16.4368 C   0  0  0  0  0  0  0  0  0  0  0  0
   35.5301   11.3139  -16.7103 C   0  0  0  0  0  0  0  0  0  0  0  0
   34.6220   11.9337  -15.8468 C   0  0  0  0  0  0  0  0  0  0  0  0
   35.0383   12.5563  -14.6932 C   0  0  0  0  0  0  0  0  0  0  0  0
   36.3948   12.5379  -14.4315 C   0  0  0  0  0  0  0  0  0  0  0  0
   34.0907   13.2047  -13.7979 C   0  0  0  0  0  0  0  0  0  0  0  0
   34.5310   13.4641  -12.4768 N   0  0  0  0  0  0  0  0  0  0  0  0
   32.9159   13.5275  -14.1942 N   0  0  0  0  0  0  0  0  0  0  0  0
   34.1341   12.9201  -11.6993 H   0  0  0  0  0  0  0  0  0  0  0  0
   35.2402   14.1904  -12.3092 H   0  0  0  0  0  0  0  0  0  0  0  0
   32.5055   13.3915  -15.1118 H   0  0  0  0  0  0  0  0  0  0  0  0
  7  8  1  0  0  0
  8  9  1  0  0  0
  8 10  1  0  0  0
  8  6  1  0  0  0
  6  2  1  0  0  0
  2  3  2  0  0  0
  2  4  1  0  0  0
  4  1  1  0  0  0
  1 29  1  0  0  0
 29 30  1  0  0  0
 30 31  2  0  0  0
 31 32  1  0  0  0
 32 33  2  0  0  0
 33 34  1  0  0  0
 34 35  2  0  0  0
 34 36  1  0  0  0
 36 37  1  0  0  0
 36 38  2  0  0  0
  1 11  1  0  0  0
 11 12  2  0  0  0
 11 13  1  0  0  0
 13 15  1  0  0  0
 15 18  1  0  0  0
 18 19  1  0  0  0
 19 20  1  0  0  0
 20 21  1  0  0  0
 21 23  1  0  0  0
 23 24  1  0  0  0
 23 25  2  0  0  0
 15 16  1  0  0  0
 16 17  2  0  0  0
 35 30  1  0  0  0
  4  5  1  0  0  0
 37 39  1  0  0  0
 37 40  1  0  0  0
 38 41  1  0  0  0
 13 14  1  0  0  0
 21 22  1  0  0  0
 24 26  1  0  0  0
 24 27  1  0  0  0
 25 28  1  0  0  0
M  END
> <minimizedAffinity>
-6.72770

> <CNNscore>
0.2188822925

> <CNNaffinity>
6.0197682381

> <CNN_VS>
1.3176206350

> <CNNaffinity_variance>
0.0707298666

$$$$
[H]N=C(c1c([H])c([H])c([H])c(C([H])([H])[C@]([H])(C(=O)N([H])[C@]([H])(C([H])=O)C([H])([H])C([H])([H])C([H])([H])N([H])C(=N[H])N([H])[H])N([H])C(=O)OC(C([H])([H])[H])(C([H])([H])[H])C([H])([H])[H])c1[H])N([H])[H]


 41 41  0  0  0  0  0  0  0  0999 V2000
   39.3341   14.3165  -13.9273 C   0  0  0  0  0  0  0  0  0  0  0  0
   37.1235   15.2164  -13.2803 C   0  0  0  0  0  0  0  0  0  0  0  0
   36.7144   15.1303  -14.4516 O   0  0  0  0  0  0  0  0  0  0  0  0
   38.4176   14.8425  -12.8799 N   0  0  0  0  0  0  0  0  0  0  0  0
   38.8038   14.8938  -11.9287 H   0  0  0  0  0  0  0  0  0  0  0  0
   36.2379   15.7107  -12.3364 O   0  0  0  0  0  0  0  0  0  0  0  0
   35.6629   15.0990  -10.1298 C   0  0  0  0  0  0  0  0  0  0  0  0
   35.4170   14.8671  -11.6064 C   0  0  0  0  0  0  0  0  0  0  0  0
   33.9638   15.2026  -11.9591 C   0  0  0  0  0  0  0  0  0  0  0  0
   35.6021   13.4047  -11.8845 C   0  0  0  0  0  0  0  0  0  0  0  0
   40.6578   14.7861  -13.5549 C   0  0  0  0  0  0  0  0  0  0  0  0
   40.7765   16.0342  -13.2357 O   0  0  0  0  0  0  0  0  0  0  0  0
   41.8401   14.0342  -13.5095 N   0  0  0  0  0  0  0  0  0  0  0  0
   41.7762   13.0115  -13.7593 H   0  0  0  0  0  0  0  0  0  0  0  0
   43.1319   14.5748  -13.1602 C   0  0  0  0  0  0  0  0  0  0  0  0
   44.1386   14.2458  -14.2301 C   0  0  0  0  0  0  0  0  0  0  0  0
   43.7892   13.4997  -15.1174 O   0  0  0  0  0  0  0  0  0  0  0  0
   43.5815   14.1163  -11.8225 C   0  0  0  0  0  0  0  0  0  0  0  0
   43.8928   12.6523  -11.7501 C   0  0  0  0  0  0  0  0  0  0  0  0
   45.0094   12.3540  -10.7740 C   0  0  0  0  0  0  0  0  0  0  0  0
   45.2876   10.9536  -10.6483 N   0  0  0  0  0  0  0  0  0  0  0  0
   44.6521   10.3590  -10.0750 H   0  0  0  0  0  0  0  0  0  0  0  0
   46.3925   10.3147  -11.2646 C   0  0  0  0  0  0  0  0  0  0  0  0
   47.4626   11.0661  -11.8223 N   0  0  0  0  0  0  0  0  0  0  0  0
   46.4929    9.0283  -11.3552 N   0  0  0  0  0  0  0  0  0  0  0  0
   47.2986   11.8858  -12.4471 H   0  0  0  0  0  0  0  0  0  0  0  0
   48.4588   10.8240  -11.6266 H   0  0  0  0  0  0  0  0  0  0  0  0
   45.7919    8.3680  -10.9942 H   0  0  0  0  0  0  0  0  0  0  0  0
   39.0231   12.8867  -14.0218 C   0  0  0  0  0  0  0  0  0  0  0  0
   38.5493   12.3131  -15.2689 C   0  0  0  0  0  0  0  0  0  0  0  0
   37.2319   11.8641  -15.3608 C   0  0  0  0  0  0  0  0  0  0  0  0
   36.8384   11.2741  -16.5315 C   0  0  0  0  0  0  0  0  0  0  0  0
   37.7282   11.1265  -17.5997 C   0  0  0  0  0  0  0  0  0  0  0  0
   39.0287   11.5662  -17.5170 C   0  0  0  0  0  0  0  0  0  0  0  0
   39.4101   12.1596  -16.3289 C   0  0  0  0  0  0  0  0  0  0  0  0
   39.9543   11.4073  -18.6296 C   0  0  0  0  0  0  0  0  0  0  0  0
   39.4235   10.8899  -19.8366 N   0  0  0  0  0  0  0  0  0  0  0  0
   41.1899   11.7270  -18.5172 N   0  0  0  0  0  0  0  0  0  0  0  0
   39.6822    9.9393  -20.1322 H   0  0  0  0  0  0  0  0  0  0  0  0
   38.7872   11.4674  -20.4026 H   0  0  0  0  0  0  0  0  0  0  0  0
   41.6670   12.1060  -17.7062 H   0  0  0  0  0  0  0  0  0  0  0  0
  7  8  1  0  0  0
  8  9  1  0  0  0
  8 10  1  0  0  0
  8  6  1  0  0  0
  6  2  1  0  0  0
  2  3  2  0  0  0
  2  4  1  0  0  0
  4  1  1  0  0  0
  1 29  1  0  0  0
 29 30  1  0  0  0
 30 31  2  0  0  0
 31 32  1  0  0  0
 32 33  2  0  0  0
 33 34  1  0  0  0
 34 35  2  0  0  0
 34 36  1  0  0  0
 36 37  1  0  0  0
 36 38  2  0  0  0
  1 11  1  0  0  0
 11 12  2  0  0  0
 11 13  1  0  0  0
 13 15  1  0  0  0
 15 18  1  0  0  0
 18 19  1  0  0  0
 19 20  1  0  0  0
 20 21  1  0  0  0
 21 23  1  0  0  0
 23 24  1  0  0  0
 23 25  2  0  0  0
 15 16  1  0  0  0
 16 17  2  0  0  0
 35 30  1  0  0  0
  4  5  1  0  0  0
 37 39  1  0  0  0
 37 40  1  0  0  0
 38 41  1  0  0  0
 13 14  1  0  0  0
 21 22  1  0  0  0
 24 26  1  0  0  0
 24 27  1  0  0  0
 25 28  1  0  0  0
M  END
> <minimizedAffinity>
-7.21038

> <CNNscore>
0.2021107227

> <CNNaffinity>
5.8691482544

> <CNN_VS>
1.1862177849

> <CNNaffinity_variance>
0.1311914921

$$$$
[H]N=C(c1c([H])c([H])c([H])c(C([H])([H])[C@]([H])(C(=O)N([H])[C@]([H])(C([H])=O)C([H])([H])C([H])([H])C([H])([H])N([H])C(=N[H])N([H])[H])N([H])C(=O)OC(C([H])([H])[H])(C([H])([H])[H])C([H])([H])[H])c1[H])N([H])[H]


 41 41  0  0  0  0  0  0  0  0999 V2000
   38.1579   13.7016  -13.7875 C   0  0  0  0  0  0  0  0  0  0  0  0
   36.5516   14.0562  -11.9412 C   0  0  0  0  0  0  0  0  0  0  0  0
   35.6101   14.1731  -12.7453 O   0  0  0  0  0  0  0  0  0  0  0  0
   37.8807   13.8180  -12.3304 N   0  0  0  0  0  0  0  0  0  0  0  0
   38.6923   13.7140  -11.7083 H   0  0  0  0  0  0  0  0  0  0  0  0
   36.2497   14.1707  -10.5938 O   0  0  0  0  0  0  0  0  0  0  0  0
   35.1041   15.5801   -9.0855 C   0  0  0  0  0  0  0  0  0  0  0  0
   36.3433   15.3852   -9.9345 C   0  0  0  0  0  0  0  0  0  0  0  0
   37.5914   15.3439   -9.0461 C   0  0  0  0  0  0  0  0  0  0  0  0
   36.4883   16.5821  -10.8272 C   0  0  0  0  0  0  0  0  0  0  0  0
   39.4633   14.3093  -13.9831 C   0  0  0  0  0  0  0  0  0  0  0  0
   39.5349   15.3120  -14.7973 O   0  0  0  0  0  0  0  0  0  0  0  0
   40.6732   13.9233  -13.3896 N   0  0  0  0  0  0  0  0  0  0  0  0
   40.6479   13.1119  -12.7163 H   0  0  0  0  0  0  0  0  0  0  0  0
   41.9440   14.5541  -13.6549 C   0  0  0  0  0  0  0  0  0  0  0  0
   42.8782   13.5792  -14.3207 C   0  0  0  0  0  0  0  0  0  0  0  0
   42.6930   13.3372  -15.4925 O   0  0  0  0  0  0  0  0  0  0  0  0
   42.5407   15.1368  -12.4276 C   0  0  0  0  0  0  0  0  0  0  0  0
   42.6887   16.6274  -12.4674 C   0  0  0  0  0  0  0  0  0  0  0  0
   44.1334   17.0536  -12.6089 C   0  0  0  0  0  0  0  0  0  0  0  0
   44.3285   18.0545  -13.6161 N   0  0  0  0  0  0  0  0  0  0  0  0
   44.1122   17.8246  -14.6093 H   0  0  0  0  0  0  0  0  0  0  0  0
   44.8063   19.3605  -13.3424 C   0  0  0  0  0  0  0  0  0  0  0  0
   45.9672   19.5704  -12.5491 N   0  0  0  0  0  0  0  0  0  0  0  0
   44.2241   20.4247  -13.7914 N   0  0  0  0  0  0  0  0  0  0  0  0
   46.1133   19.0812  -11.6389 H   0  0  0  0  0  0  0  0  0  0  0  0
   46.7215   20.2263  -12.8495 H   0  0  0  0  0  0  0  0  0  0  0  0
   43.3782   20.4164  -14.3762 H   0  0  0  0  0  0  0  0  0  0  0  0
   37.9083   12.2934  -14.1110 C   0  0  0  0  0  0  0  0  0  0  0  0
   37.7952   11.8601  -15.4923 C   0  0  0  0  0  0  0  0  0  0  0  0
   36.5657   11.4074  -15.9708 C   0  0  0  0  0  0  0  0  0  0  0  0
   36.5111   10.9500  -17.2598 C   0  0  0  0  0  0  0  0  0  0  0  0
   37.6507   10.9372  -18.0696 C   0  0  0  0  0  0  0  0  0  0  0  0
   38.8666   11.3816  -17.6053 C   0  0  0  0  0  0  0  0  0  0  0  0
   38.9049   11.8401  -16.3025 C   0  0  0  0  0  0  0  0  0  0  0  0
   40.0527   11.3631  -18.4496 C   0  0  0  0  0  0  0  0  0  0  0  0
   41.2485   11.8728  -17.8868 N   0  0  0  0  0  0  0  0  0  0  0  0
   40.0112   10.9016  -19.6441 N   0  0  0  0  0  0  0  0  0  0  0  0
   41.6243   12.7664  -18.2306 H   0  0  0  0  0  0  0  0  0  0  0  0
   41.7267   11.3465  -17.1432 H   0  0  0  0  0  0  0  0  0  0  0  0
   39.2147   10.5133  -20.1377 H   0  0  0  0  0  0  0  0  0  0  0  0
  7  8  1  0  0  0
  8  9  1  0  0  0
  8 10  1  0  0  0
  8  6  1  0  0  0
  6  2  1  0  0  0
  2  3  2  0  0  0
  2  4  1  0  0  0
  4  1  1  0  0  0
  1 29  1  0  0  0
 29 30  1  0  0  0
 30 31  2  0  0  0
 31 32  1  0  0  0
 32 33  2  0  0  0
 33 34  1  0  0  0
 34 35  2  0  0  0
 34 36  1  0  0  0
 36 37  1  0  0  0
 36 38  2  0  0  0
  1 11  1  0  0  0
 11 12  2  0  0  0
 11 13  1  0  0  0
 13 15  1  0  0  0
 15 18  1  0  0  0
 18 19  1  0  0  0
 19 20  1  0  0  0
 20 21  1  0  0  0
 21 23  1  0  0  0
 23 24  1  0  0  0
 23 25  2  0  0  0
 15 16  1  0  0  0
 16 17  2  0  0  0
 35 30  1  0  0  0
  4  5  1  0  0  0
 37 39  1  0  0  0
 37 40  1  0  0  0
 38 41  1  0  0  0
 13 14  1  0  0  0
 21 22  1  0  0  0
 24 26  1  0  0  0
 24 27  1  0  0  0
 25 28  1  0  0  0
M  END
> <minimizedAffinity>
-8.25391

> <CNNscore>
0.2006173432

> <CNNaffinity>
5.7119817734

> <CNN_VS>
1.1459226608

> <CNNaffinity_variance>
0.1124361530

$$$$
[H]N=C(c1c([H])c([H])c([H])c(C([H])([H])[C@]([H])(C(=O)N([H])[C@]([H])(C([H])=O)C([H])([H])C([H])([H])C([H])([H])N([H])C(=N[H])N([H])[H])N([H])C(=O)OC(C([H])([H])[H])(C([H])([H])[H])C([H])([H])[H])c1[H])N([H])[H]


 41 41  0  0  0  0  0  0  0  0999 V2000
   36.5280   14.1453  -12.9513 C   0  0  0  0  0  0  0  0  0  0  0  0
   34.7417   12.9752  -14.1983 C   0  0  0  0  0  0  0  0  0  0  0  0
   34.2233   12.5791  -13.1395 O   0  0  0  0  0  0  0  0  0  0  0  0
   35.9009   13.7682  -14.2467 N   0  0  0  0  0  0  0  0  0  0  0  0
   36.3678   14.1203  -15.0920 H   0  0  0  0  0  0  0  0  0  0  0  0
   34.1256   12.6018  -15.3818 O   0  0  0  0  0  0  0  0  0  0  0  0
   33.4049   11.1945  -17.1351 C   0  0  0  0  0  0  0  0  0  0  0  0
   34.2691   11.3245  -15.8978 C   0  0  0  0  0  0  0  0  0  0  0  0
   35.7448   11.1261  -16.2607 C   0  0  0  0  0  0  0  0  0  0  0  0
   33.9032   10.2152  -14.9565 C   0  0  0  0  0  0  0  0  0  0  0  0
   37.9484   13.8890  -13.1196 C   0  0  0  0  0  0  0  0  0  0  0  0
   38.3126   12.6604  -13.2972 O   0  0  0  0  0  0  0  0  0  0  0  0
   38.9857   14.8318  -13.1027 N   0  0  0  0  0  0  0  0  0  0  0  0
   38.7214   15.8436  -12.9650 H   0  0  0  0  0  0  0  0  0  0  0  0
   40.3836   14.5020  -13.2447 C   0  0  0  0  0  0  0  0  0  0  0  0
   41.2377   15.6497  -12.7761 C   0  0  0  0  0  0  0  0  0  0  0  0
   40.7398   16.7534  -12.7725 O   0  0  0  0  0  0  0  0  0  0  0  0
   40.7195   14.0974  -14.6323 C   0  0  0  0  0  0  0  0  0  0  0  0
   42.0366   13.3948  -14.7630 C   0  0  0  0  0  0  0  0  0  0  0  0
   42.2513   12.8393  -16.1536 C   0  0  0  0  0  0  0  0  0  0  0  0
   41.2045   13.1905  -17.0674 N   0  0  0  0  0  0  0  0  0  0  0  0
   41.0157   14.1970  -17.2610 H   0  0  0  0  0  0  0  0  0  0  0  0
   40.3945   12.2388  -17.7361 C   0  0  0  0  0  0  0  0  0  0  0  0
   39.3896   11.5090  -17.0445 N   0  0  0  0  0  0  0  0  0  0  0  0
   40.5185   11.9807  -18.9975 N   0  0  0  0  0  0  0  0  0  0  0  0
   39.5723   11.0453  -16.1275 H   0  0  0  0  0  0  0  0  0  0  0  0
   38.4252   11.4088  -17.4308 H   0  0  0  0  0  0  0  0  0  0  0  0
   41.2037   12.4357  -19.6149 H   0  0  0  0  0  0  0  0  0  0  0  0
   36.0177   15.4883  -12.6584 C   0  0  0  0  0  0  0  0  0  0  0  0
   35.3943   15.7807  -11.3799 C   0  0  0  0  0  0  0  0  0  0  0  0
   36.1945   16.1088  -10.2855 C   0  0  0  0  0  0  0  0  0  0  0  0
   35.5764   16.3185   -9.0823 C   0  0  0  0  0  0  0  0  0  0  0  0
   34.1886   16.2074   -8.9552 C   0  0  0  0  0  0  0  0  0  0  0  0
   33.3927   15.8841  -10.0292 C   0  0  0  0  0  0  0  0  0  0  0  0
   34.0317   15.6758  -11.2364 C   0  0  0  0  0  0  0  0  0  0  0  0
   31.9480   15.7650   -9.8928 C   0  0  0  0  0  0  0  0  0  0  0  0
   31.3644   14.5399  -10.2992 N   0  0  0  0  0  0  0  0  0  0  0  0
   31.2432   16.7257   -9.4219 N   0  0  0  0  0  0  0  0  0  0  0  0
   30.7879   14.5164  -11.1508 H   0  0  0  0  0  0  0  0  0  0  0  0
   31.5224   13.6900   -9.7412 H   0  0  0  0  0  0  0  0  0  0  0  0
   31.5590   17.6346   -9.1011 H   0  0  0  0  0  0  0  0  0  0  0  0
  7  8  1  0  0  0
  8  9  1  0  0  0
  8 10  1  0  0  0
  8  6  1  0  0  0
  6  2  1  0  0  0
  2  3  2  0  0  0
  2  4  1  0  0  0
  4  1  1  0  0  0
  1 29  1  0  0  0
 29 30  1  0  0  0
 30 31  2  0  0  0
 31 32  1  0  0  0
 32 33  2  0  0  0
 33 34  1  0  0  0
 34 35  2  0  0  0
 34 36  1  0  0  0
 36 37  1  0  0  0
 36 38  2  0  0  0
  1 11  1  0  0  0
 11 12  2  0  0  0
 11 13  1  0  0  0
 13 15  1  0  0  0
 15 18  1  0  0  0
 18 19  1  0  0  0
 19 20  1  0  0  0
 20 21  1  0  0  0
 21 23  1  0  0  0
 23 24  1  0  0  0
 23 25  2  0  0  0
 15 16  1  0  0  0
 16 17  2  0  0  0
 35 30  1  0  0  0
  4  5  1  0  0  0
 37 39  1  0  0  0
 37 40  1  0  0  0
 38 41  1  0  0  0
 13 14  1  0  0  0
 21 22  1  0  0  0
 24 26  1  0  0  0
 24 27  1  0  0  0
 25 28  1  0  0  0
M  END
> <minimizedAffinity>
-6.68250

> <CNNscore>
0.1908020675

> <CNNaffinity>
6.2721738815

> <CNN_VS>
1.1967437267

> <CNNaffinity_variance>
0.1691066325

$$$$
[H]N=C(c1c([H])c([H])c([H])c(C([H])([H])[C@]([H])(C(=O)N([H])[C@]([H])(C([H])=O)C([H])([H])C([H])([H])C([H])([H])N([H])C(=N[H])N([H])[H])N([H])C(=O)OC(C([H])([H])[H])(C([H])([H])[H])C([H])([H])[H])c1[H])N([H])[H]


 41 41  0  0  0  0  0  0  0  0999 V2000
   40.7050   14.6124  -13.6615 C   0  0  0  0  0  0  0  0  0  0  0  0
   43.1197   14.2253  -13.2950 C   0  0  0  0  0  0  0  0  0  0  0  0
   42.9744   12.9992  -13.4441 O   0  0  0  0  0  0  0  0  0  0  0  0
   42.0636   15.1487  -13.3783 N   0  0  0  0  0  0  0  0  0  0  0  0
   42.1300   16.1679  -13.2633 H   0  0  0  0  0  0  0  0  0  0  0  0
   44.4011   14.6826  -13.0335 O   0  0  0  0  0  0  0  0  0  0  0  0
   46.3193   14.6399  -11.6576 C   0  0  0  0  0  0  0  0  0  0  0  0
   44.8325   14.9181  -11.7385 C   0  0  0  0  0  0  0  0  0  0  0  0
   44.5512   16.3880  -11.4083 C   0  0  0  0  0  0  0  0  0  0  0  0
   44.1483   14.1001  -10.6833 C   0  0  0  0  0  0  0  0  0  0  0  0
   39.8084   15.3465  -12.7846 C   0  0  0  0  0  0  0  0  0  0  0  0
   40.1259   16.5676  -12.4991 O   0  0  0  0  0  0  0  0  0  0  0  0
   38.6266   14.8746  -12.1966 N   0  0  0  0  0  0  0  0  0  0  0  0
   38.3370   13.8839  -12.4137 H   0  0  0  0  0  0  0  0  0  0  0  0
   37.7978   15.6512  -11.3061 C   0  0  0  0  0  0  0  0  0  0  0  0
   37.9873   15.1894   -9.8858 C   0  0  0  0  0  0  0  0  0  0  0  0
   38.6317   15.9001   -9.1471 O   0  0  0  0  0  0  0  0  0  0  0  0
   36.3699   15.6194  -11.7088 C   0  0  0  0  0  0  0  0  0  0  0  0
   36.0784   14.7022  -12.8575 C   0  0  0  0  0  0  0  0  0  0  0  0
   35.2033   13.5376  -12.4497 C   0  0  0  0  0  0  0  0  0  0  0  0
   34.9303   12.6343  -13.5285 N   0  0  0  0  0  0  0  0  0  0  0  0
   35.6151   11.8788  -13.7441 H   0  0  0  0  0  0  0  0  0  0  0  0
   33.7675   12.7049  -14.3358 C   0  0  0  0  0  0  0  0  0  0  0  0
   33.3886   11.6258  -15.1803 N   0  0  0  0  0  0  0  0  0  0  0  0
   32.9918   13.7399  -14.3527 N   0  0  0  0  0  0  0  0  0  0  0  0
   34.0707   11.1468  -15.8083 H   0  0  0  0  0  0  0  0  0  0  0  0
   32.4076   11.2705  -15.2038 H   0  0  0  0  0  0  0  0  0  0  0  0
   33.1482   14.5873  -13.7915 H   0  0  0  0  0  0  0  0  0  0  0  0
   40.5707   14.6677  -15.1205 C   0  0  0  0  0  0  0  0  0  0  0  0
   40.3123   13.4613  -15.8864 C   0  0  0  0  0  0  0  0  0  0  0  0
   41.3507   12.8697  -16.6055 C   0  0  0  0  0  0  0  0  0  0  0  0
   41.0562   11.7690  -17.3641 C   0  0  0  0  0  0  0  0  0  0  0  0
   39.7571   11.2551  -17.4159 C   0  0  0  0  0  0  0  0  0  0  0  0
   38.7277   11.8327  -16.7100 C   0  0  0  0  0  0  0  0  0  0  0  0
   39.0414   12.9427  -15.9492 C   0  0  0  0  0  0  0  0  0  0  0  0
   37.3748   11.2979  -16.7693 C   0  0  0  0  0  0  0  0  0  0  0  0
   37.0738   10.4331  -17.8500 N   0  0  0  0  0  0  0  0  0  0  0  0
   36.5026   11.5959  -15.8793 N   0  0  0  0  0  0  0  0  0  0  0  0
   36.4451   10.7608  -18.5953 H   0  0  0  0  0  0  0  0  0  0  0  0
   37.4853    9.4905  -17.8786 H   0  0  0  0  0  0  0  0  0  0  0  0
   36.6146   12.1969  -15.0699 H   0  0  0  0  0  0  0  0  0  0  0  0
  7  8  1  0  0  0
  8  9  1  0  0  0
  8 10  1  0  0  0
  8  6  1  0  0  0
  6  2  1  0  0  0
  2  3  2  0  0  0
  2  4  1  0  0  0
  4  1  1  0  0  0
  1 29  1  0  0  0
 29 30  1  0  0  0
 30 31  2  0  0  0
 31 32  1  0  0  0
 32 33  2  0  0  0
 33 34  1  0  0  0
 34 35  2  0  0  0
 34 36  1  0  0  0
 36 37  1  0  0  0
 36 38  2  0  0  0
  1 11  1  0  0  0
 11 12  2  0  0  0
 11 13  1  0  0  0
 13 15  1  0  0  0
 15 18  1  0  0  0
 18 19  1  0  0  0
 19 20  1  0  0  0
 20 21  1  0  0  0
 21 23  1  0  0  0
 23 24  1  0  0  0
 23 25  2  0  0  0
 15 16  1  0  0  0
 16 17  2  0  0  0
 35 30  1  0  0  0
  4  5  1  0  0  0
 37 39  1  0  0  0
 37 40  1  0  0  0
 38 41  1  0  0  0
 13 14  1  0  0  0
 21 22  1  0  0  0
 24 26  1  0  0  0
 24 27  1  0  0  0
 25 28  1  0  0  0
M  END
> <minimizedAffinity>
-6.67306

> <CNNscore>
0.1886017323

> <CNNaffinity>
6.2657294273

> <CNN_VS>
1.1817274094

> <CNNaffinity_variance>
0.0820656866

$$$$
[H]N=C(c1c([H])c([H])c([H])c(C([H])([H])[C@]([H])(C(=O)N([H])[C@]([H])(C([H])=O)C([H])([H])C([H])([H])C([H])([H])N([H])C(=N[H])N([H])[H])N([H])C(=O)OC(C([H])([H])[H])(C([H])([H])[H])C([H])([H])[H])c1[H])N([H])[H]


 41 41  0  0  0  0  0  0  0  0999 V2000
   38.2127   13.7006  -13.6975 C   0  0  0  0  0  0  0  0  0  0  0  0
   36.4957   14.0571  -11.9540 C   0  0  0  0  0  0  0  0  0  0  0  0
   35.6228   14.2618  -12.8158 O   0  0  0  0  0  0  0  0  0  0  0  0
   37.8359   13.7650  -12.2596 N   0  0  0  0  0  0  0  0  0  0  0  0
   38.5934   13.5887  -11.5877 H   0  0  0  0  0  0  0  0  0  0  0  0
   36.1022   14.1261  -10.6273 O   0  0  0  0  0  0  0  0  0  0  0  0
   36.3611   16.4726  -10.6515 C   0  0  0  0  0  0  0  0  0  0  0  0
   36.4459   15.2039   -9.8283 C   0  0  0  0  0  0  0  0  0  0  0  0
   35.4520   15.2625   -8.6632 C   0  0  0  0  0  0  0  0  0  0  0  0
   37.8167   15.1333   -9.2230 C   0  0  0  0  0  0  0  0  0  0  0  0
   39.4631   14.4333  -13.8033 C   0  0  0  0  0  0  0  0  0  0  0  0
   39.4132   15.6213  -14.3131 O   0  0  0  0  0  0  0  0  0  0  0  0
   40.7370   13.9919  -13.4195 N   0  0  0  0  0  0  0  0  0  0  0  0
   40.8110   13.0290  -12.9954 H   0  0  0  0  0  0  0  0  0  0  0  0
   41.9459   14.7631  -13.5836 C   0  0  0  0  0  0  0  0  0  0  0  0
   43.0922   13.8591  -13.9514 C   0  0  0  0  0  0  0  0  0  0  0  0
   42.9317   13.1019  -14.8826 O   0  0  0  0  0  0  0  0  0  0  0  0
   42.2516   15.5772  -12.3813 C   0  0  0  0  0  0  0  0  0  0  0  0
   41.4841   15.1751  -11.1586 C   0  0  0  0  0  0  0  0  0  0  0  0
   41.1948   16.3525  -10.2539 C   0  0  0  0  0  0  0  0  0  0  0  0
   42.0670   16.4171   -9.1184 N   0  0  0  0  0  0  0  0  0  0  0  0
   43.0487   16.7413   -9.2498 H   0  0  0  0  0  0  0  0  0  0  0  0
   41.6724   16.0608   -7.8045 C   0  0  0  0  0  0  0  0  0  0  0  0
   41.1436   14.7731   -7.5163 N   0  0  0  0  0  0  0  0  0  0  0  0
   41.7685   16.8735   -6.8027 N   0  0  0  0  0  0  0  0  0  0  0  0
   40.3992   14.3351   -8.1022 H   0  0  0  0  0  0  0  0  0  0  0  0
   41.4822   14.2143   -6.7025 H   0  0  0  0  0  0  0  0  0  0  0  0
   42.1334   17.8326   -6.8709 H   0  0  0  0  0  0  0  0  0  0  0  0
   38.1204   12.2808  -14.0517 C   0  0  0  0  0  0  0  0  0  0  0  0
   37.8692   11.8749  -15.4232 C   0  0  0  0  0  0  0  0  0  0  0  0
   36.5891   11.4622  -15.7930 C   0  0  0  0  0  0  0  0  0  0  0  0
   36.4040   11.0292  -17.0782 C   0  0  0  0  0  0  0  0  0  0  0  0
   37.4636   11.0016  -17.9899 C   0  0  0  0  0  0  0  0  0  0  0  0
   38.7286   11.4065  -17.6331 C   0  0  0  0  0  0  0  0  0  0  0  0
   38.8988   11.8409  -16.3325 C   0  0  0  0  0  0  0  0  0  0  0  0
   39.8311   11.3727  -18.5834 C   0  0  0  0  0  0  0  0  0  0  0  0
   39.5419   10.8930  -19.8845 N   0  0  0  0  0  0  0  0  0  0  0  0
   41.0055   11.7646  -18.2534 N   0  0  0  0  0  0  0  0  0  0  0  0
   39.9140    9.9799  -20.1772 H   0  0  0  0  0  0  0  0  0  0  0  0
   38.9650   11.4600  -20.5203 H   0  0  0  0  0  0  0  0  0  0  0  0
   41.3160   12.1259  -17.3580 H   0  0  0  0  0  0  0  0  0  0  0  0
  7  8  1  0  0  0
  8  9  1  0  0  0
  8 10  1  0  0  0
  8  6  1  0  0  0
  6  2  1  0  0  0
  2  3  2  0  0  0
  2  4  1  0  0  0
  4  1  1  0  0  0
  1 29  1  0  0  0
 29 30  1  0  0  0
 30 31  2  0  0  0
 31 32  1  0  0  0
 32 33  2  0  0  0
 33 34  1  0  0  0
 34 35  2  0  0  0
 34 36  1  0  0  0
 36 37  1  0  0  0
 36 38  2  0  0  0
  1 11  1  0  0  0
 11 12  2  0  0  0
 11 13  1  0  0  0
 13 15  1  0  0  0
 15 18  1  0  0  0
 18 19  1  0  0  0
 19 20  1  0  0  0
 20 21  1  0  0  0
 21 23  1  0  0  0
 23 24  1  0  0  0
 23 25  2  0  0  0
 15 16  1  0  0  0
 16 17  2  0  0  0
 35 30  1  0  0  0
  4  5  1  0  0  0
 37 39  1  0  0  0
 37 40  1  0  0  0
 38 41  1  0  0  0
 13 14  1  0  0  0
 21 22  1  0  0  0
 24 26  1  0  0  0
 24 27  1  0  0  0
 25 28  1  0  0  0
M  END
> <minimizedAffinity>
-6.90132

> <CNNscore>
0.1834756583

> <CNNaffinity>
5.7087836266

> <CNN_VS>
1.0474228859

> <CNNaffinity_variance>
0.1005144939

$$$$
[H]N=C(c1c([H])c([H])c([H])c(C([H])([H])[C@]([H])(C(=O)N([H])[C@]([H])(C([H])=O)C([H])([H])C([H])([H])C([H])([H])N([H])C(=N[H])N([H])[H])N([H])C(=O)OC(C([H])([H])[H])(C([H])([H])[H])C([H])([H])[H])c1[H])N([H])[H]


 41 41  0  0  0  0  0  0  0  0999 V2000
   38.1494   13.6455  -13.8448 C   0  0  0  0  0  0  0  0  0  0  0  0
   36.5778   13.9955  -11.9679 C   0  0  0  0  0  0  0  0  0  0  0  0
   35.6135   14.0595  -12.7505 O   0  0  0  0  0  0  0  0  0  0  0  0
   37.9043   13.7914  -12.3846 N   0  0  0  0  0  0  0  0  0  0  0  0
   38.7341   13.7311  -11.7809 H   0  0  0  0  0  0  0  0  0  0  0  0
   36.3055   14.1358  -10.6167 O   0  0  0  0  0  0  0  0  0  0  0  0
   36.2384   16.4781  -10.9054 C   0  0  0  0  0  0  0  0  0  0  0  0
   36.5277   15.3332   -9.9568 C   0  0  0  0  0  0  0  0  0  0  0  0
   35.5798   15.3911   -8.7540 C   0  0  0  0  0  0  0  0  0  0  0  0
   37.9171   15.5135   -9.4205 C   0  0  0  0  0  0  0  0  0  0  0  0
   39.4892   14.1626  -14.0661 C   0  0  0  0  0  0  0  0  0  0  0  0
   39.5917   15.3687  -14.5228 O   0  0  0  0  0  0  0  0  0  0  0  0
   40.7011   13.4928  -13.8473 N   0  0  0  0  0  0  0  0  0  0  0  0
   40.6521   12.5090  -13.4703 H   0  0  0  0  0  0  0  0  0  0  0  0
   42.0007   14.0580  -14.1204 C   0  0  0  0  0  0  0  0  0  0  0  0
   42.7168   13.2351  -15.1579 C   0  0  0  0  0  0  0  0  0  0  0  0
   43.2499   13.8255  -16.0708 O   0  0  0  0  0  0  0  0  0  0  0  0
   42.8093   14.2108  -12.8856 C   0  0  0  0  0  0  0  0  0  0  0  0
   43.8215   13.1254  -12.6787 C   0  0  0  0  0  0  0  0  0  0  0  0
   45.2400   13.6397  -12.7887 C   0  0  0  0  0  0  0  0  0  0  0  0
   46.0242   12.9253  -13.7526 N   0  0  0  0  0  0  0  0  0  0  0  0
   46.2909   11.9368  -13.5583 H   0  0  0  0  0  0  0  0  0  0  0  0
   46.4687   13.4883  -14.9750 C   0  0  0  0  0  0  0  0  0  0  0  0
   47.1280   14.7473  -15.0112 N   0  0  0  0  0  0  0  0  0  0  0  0
   46.3042   12.8994  -16.1149 N   0  0  0  0  0  0  0  0  0  0  0  0
   46.7628   15.5799  -14.4988 H   0  0  0  0  0  0  0  0  0  0  0  0
   48.0076   14.8866  -15.5554 H   0  0  0  0  0  0  0  0  0  0  0  0
   45.8445   11.9869  -16.2318 H   0  0  0  0  0  0  0  0  0  0  0  0
   37.8007   12.2548  -14.1519 C   0  0  0  0  0  0  0  0  0  0  0  0
   37.6422   11.8179  -15.5277 C   0  0  0  0  0  0  0  0  0  0  0  0
   36.3972   11.3656  -15.9646 C   0  0  0  0  0  0  0  0  0  0  0  0
   36.3000   10.9049  -17.2499 C   0  0  0  0  0  0  0  0  0  0  0  0
   37.4126   10.8886  -18.0965 C   0  0  0  0  0  0  0  0  0  0  0  0
   38.6435   11.3326  -17.6732 C   0  0  0  0  0  0  0  0  0  0  0  0
   38.7248   11.7945  -16.3735 C   0  0  0  0  0  0  0  0  0  0  0  0
   39.8014   11.3105  -18.5557 C   0  0  0  0  0  0  0  0  0  0  0  0
   39.6118   10.7642  -19.8488 N   0  0  0  0  0  0  0  0  0  0  0  0
   40.9356   11.7697  -18.1759 N   0  0  0  0  0  0  0  0  0  0  0  0
   40.0405    9.8579  -20.0789 H   0  0  0  0  0  0  0  0  0  0  0  0
   39.0497   11.2769  -20.5415 H   0  0  0  0  0  0  0  0  0  0  0  0
   41.1758   12.1820  -17.2808 H   0  0  0  0  0  0  0  0  0  0  0  0
  7  8  1  0  0  0
  8  9  1  0  0  0
  8 10  1  0  0  0
  8  6  1  0  0  0
  6  2  1  0  0  0
  2  3  2  0  0  0
  2  4  1  0  0  0
  4  1  1  0  0  0
  1 29  1  0  0  0
 29 30  1  0  0  0
 30 31  2  0  0  0
 31 32  1  0  0  0
 32 33  2  0  0  0
 33 34  1  0  0  0
 34 35  2  0  0  0
 34 36  1  0  0  0
 36 37  1  0  0  0
 36 38  2  0  0  0
  1 11  1  0  0  0
 11 12  2  0  0  0
 11 13  1  0  0  0
 13 15  1  0  0  0
 15 18  1  0  0  0
 18 19  1  0  0  0
 19 20  1  0  0  0
 20 21  1  0  0  0
 21 23  1  0  0  0
 23 24  1  0  0  0
 23 25  2  0  0  0
 15 16  1  0  0  0
 16 17  2  0  0  0
 35 30  1  0  0  0
  4  5  1  0  0  0
 37 39  1  0  0  0
 37 40  1  0  0  0
 38 41  1  0  0  0
 13 14  1  0  0  0
 21 22  1  0  0  0
 24 26  1  0  0  0
 24 27  1  0  0  0
 25 28  1  0  0  0
M  END
> <minimizedAffinity>
-7.62231

> <CNNscore>
0.1639112532

> <CNNaffinity>
5.9323472977

> <CNN_VS>
0.9723784924

> <CNNaffinity_variance>
0.1085546613

$$$$
[H]N=C(N([H])[H])N([H])C([H])([H])C([H])([H])C([H])([H])[C@@]([H])(C([H])=O)N([H])C(=O)[C@@]1([H])N(C(=O)[C@]([H])(N([H])C(=O)OC([H])([H])c2c([H])c([H])c([H])c([H])c2[H])C([H])([H])c2c([H])c([H])c([H])c([H])c2[H])C([H])([H])C([H])([H])C1([H])[H]


 45 47  0  0  0  0  0  0  0  0999 V2000
   36.7742   14.7384  -13.2846 C   0  0  0  0  0  0  0  0  0  0  0  0
   35.6375   14.0089  -13.9172 C   0  0  0  0  0  0  0  0  0  0  0  0
   35.9246   12.5604  -13.5813 C   0  0  0  0  0  0  0  0  0  0  0  0
   37.4064   12.5430  -13.2339 C   0  0  0  0  0  0  0  0  0  0  0  0
   37.8943   13.8667  -13.6083 N   0  0  0  0  0  0  0  0  0  0  0  0
   39.1332   14.2822  -14.1280 C   0  0  0  0  0  0  0  0  0  0  0  0
   39.2998   15.5480  -14.2764 O   0  0  0  0  0  0  0  0  0  0  0  0
   35.5434   15.6684  -11.2230 N   0  0  0  0  0  0  0  0  0  0  0  0
   36.6256   15.0546  -11.8755 C   0  0  0  0  0  0  0  0  0  0  0  0
   37.6198   14.7253  -11.1288 O   0  0  0  0  0  0  0  0  0  0  0  0
   34.7131   15.9394  -11.7806 H   0  0  0  0  0  0  0  0  0  0  0  0
   35.5154   15.9399   -9.8025 C   0  0  0  0  0  0  0  0  0  0  0  0
   34.1716   15.8789   -9.2003 C   0  0  0  0  0  0  0  0  0  0  0  0
   33.8054   16.6609   -8.3440 O   0  0  0  0  0  0  0  0  0  0  0  0
   36.2851   17.1528   -9.4258 C   0  0  0  0  0  0  0  0  0  0  0  0
   37.1350   17.0755   -8.2141 C   0  0  0  0  0  0  0  0  0  0  0  0
   36.6588   17.8309   -7.0186 C   0  0  0  0  0  0  0  0  0  0  0  0
   35.8638   18.9809   -7.3912 N   0  0  0  0  0  0  0  0  0  0  0  0
   34.8692   18.8257   -7.6496 H   0  0  0  0  0  0  0  0  0  0  0  0
   36.4731   21.0908   -8.5985 N   0  0  0  0  0  0  0  0  0  0  0  0
   36.3843   20.2914   -7.4104 C   0  0  0  0  0  0  0  0  0  0  0  0
   36.8168   20.8371   -6.3002 N   0  0  0  0  0  0  0  0  0  0  0  0
   37.2966   20.9635   -9.2213 H   0  0  0  0  0  0  0  0  0  0  0  0
   35.7315   21.7909   -8.8394 H   0  0  0  0  0  0  0  0  0  0  0  0
   36.7513   20.2514   -5.4320 H   0  0  0  0  0  0  0  0  0  0  0  0
   40.2468   13.3806  -14.5129 C   0  0  0  0  0  0  0  0  0  0  0  0
   41.5037   13.8184  -13.8799 N   0  0  0  0  0  0  0  0  0  0  0  0
   42.7611   13.3740  -14.3491 C   0  0  0  0  0  0  0  0  0  0  0  0
   42.8107   12.5681  -15.3512 O   0  0  0  0  0  0  0  0  0  0  0  0
   41.4494   14.4574  -13.0753 H   0  0  0  0  0  0  0  0  0  0  0  0
   43.9800   13.7411  -13.8100 O   0  0  0  0  0  0  0  0  0  0  0  0
   44.9077   14.4490  -14.5802 C   0  0  0  0  0  0  0  0  0  0  0  0
   45.1084   15.7854  -13.9660 C   0  0  0  0  0  0  0  0  0  0  0  0
   46.0132   16.7093  -14.4988 C   0  0  0  0  0  0  0  0  0  0  0  0
   46.2253   17.9514  -13.9506 C   0  0  0  0  0  0  0  0  0  0  0  0
   45.5403   18.3530  -12.8296 C   0  0  0  0  0  0  0  0  0  0  0  0
   44.6402   17.4348  -12.3027 C   0  0  0  0  0  0  0  0  0  0  0  0
   44.4339   16.2009  -12.8487 C   0  0  0  0  0  0  0  0  0  0  0  0
   40.5556   13.4347  -16.0004 C   0  0  0  0  0  0  0  0  0  0  0  0
   39.8324   12.5038  -16.8348 C   0  0  0  0  0  0  0  0  0  0  0  0
   38.6249   11.9609  -16.4819 C   0  0  0  0  0  0  0  0  0  0  0  0
   37.9689   11.0537  -17.3180 C   0  0  0  0  0  0  0  0  0  0  0  0
   38.5810   10.7226  -18.5202 C   0  0  0  0  0  0  0  0  0  0  0  0
   39.8021   11.2593  -18.9027 C   0  0  0  0  0  0  0  0  0  0  0  0
   40.4137   12.1427  -18.0562 C   0  0  0  0  0  0  0  0  0  0  0  0
 20 21  1  0  0  0
 21 22  2  0  0  0
 21 18  1  0  0  0
 18 17  1  0  0  0
 17 16  1  0  0  0
 16 15  1  0  0  0
 15 12  1  0  0  0
 12  8  1  0  0  0
  8  9  1  0  0  0
  9 10  2  0  0  0
  9  1  1  0  0  0
  1  2  1  0  0  0
  2  3  1  0  0  0
  3  4  1  0  0  0
  4  5  1  0  0  0
  5  6  1  0  0  0
  6  7  2  0  0  0
  6 26  1  0  0  0
 26 39  1  0  0  0
 39 40  1  0  0  0
 40 41  2  0  0  0
 41 42  1  0  0  0
 42 43  2  0  0  0
 43 44  1  0  0  0
 44 45  2  0  0  0
 26 27  1  0  0  0
 27 28  1  0  0  0
 28 29  2  0  0  0
 28 31  1  0  0  0
 31 32  1  0  0  0
 32 33  1  0  0  0
 33 34  2  0  0  0
 34 35  1  0  0  0
 35 36  2  0  0  0
 36 37  1  0  0  0
 37 38  2  0  0  0
 12 13  1  0  0  0
 13 14  2  0  0  0
  5  1  1  0  0  0
 45 40  1  0  0  0
 38 33  1  0  0  0
 20 23  1  0  0  0
 20 24  1  0  0  0
 22 25  1  0  0  0
 18 19  1  0  0  0
  8 11  1  0  0  0
 27 30  1  0  0  0
M  END
> <minimizedAffinity>
-7.71325

> <CNNscore>
0.5983487964

> <CNNaffinity>
6.7928032875

> <CNN_VS>
4.0644655228

> <CNNaffinity_variance>
0.0520710051

$$$$
[H]N=C(N([H])[H])N([H])C([H])([H])C([H])([H])C([H])([H])[C@@]([H])(C([H])=O)N([H])C(=O)[C@@]1([H])N(C(=O)[C@]([H])(N([H])C(=O)OC([H])([H])c2c([H])c([H])c([H])c([H])c2[H])C([H])([H])c2c([H])c([H])c([H])c([H])c2[H])C([H])([H])C([H])([H])C1([H])[H]


 45 47  0  0  0  0  0  0  0  0999 V2000
   36.3343   14.8704  -13.1103 C   0  0  0  0  0  0  0  0  0  0  0  0
   35.2351   13.9878  -13.5974 C   0  0  0  0  0  0  0  0  0  0  0  0
   35.6286   12.6222  -13.0743 C   0  0  0  0  0  0  0  0  0  0  0  0
   37.1161   12.7491  -12.7776 C   0  0  0  0  0  0  0  0  0  0  0  0
   37.5032   14.0357  -13.3477 N   0  0  0  0  0  0  0  0  0  0  0  0
   38.6978   14.4531  -13.9611 C   0  0  0  0  0  0  0  0  0  0  0  0
   38.7739   15.6936  -14.2886 O   0  0  0  0  0  0  0  0  0  0  0  0
   35.2109   15.0689  -10.8018 N   0  0  0  0  0  0  0  0  0  0  0  0
   36.1986   15.3709  -11.7543 C   0  0  0  0  0  0  0  0  0  0  0  0
   37.1076   16.2000  -11.3792 O   0  0  0  0  0  0  0  0  0  0  0  0
   34.4650   14.3951  -11.0531 H   0  0  0  0  0  0  0  0  0  0  0  0
   35.1779   15.6425   -9.4744 C   0  0  0  0  0  0  0  0  0  0  0  0
   35.7465   14.7766   -8.4259 C   0  0  0  0  0  0  0  0  0  0  0  0
   36.7546   14.1191   -8.6000 O   0  0  0  0  0  0  0  0  0  0  0  0
   33.8558   16.2195   -9.1217 C   0  0  0  0  0  0  0  0  0  0  0  0
   32.6821   15.7742   -9.9096 C   0  0  0  0  0  0  0  0  0  0  0  0
   31.4229   15.5302   -9.1469 C   0  0  0  0  0  0  0  0  0  0  0  0
   31.1503   14.1171   -8.9977 N   0  0  0  0  0  0  0  0  0  0  0  0
   31.4573   13.4763   -9.7563 H   0  0  0  0  0  0  0  0  0  0  0  0
   30.1302   14.3659   -6.7222 N   0  0  0  0  0  0  0  0  0  0  0  0
   30.4947   13.5840   -7.8687 C   0  0  0  0  0  0  0  0  0  0  0  0
   30.1872   12.3106   -7.8346 N   0  0  0  0  0  0  0  0  0  0  0  0
   30.8466   14.5303   -5.9861 H   0  0  0  0  0  0  0  0  0  0  0  0
   29.1660   14.7633   -6.6196 H   0  0  0  0  0  0  0  0  0  0  0  0
   30.4544   11.7399   -8.6737 H   0  0  0  0  0  0  0  0  0  0  0  0
   39.8608   13.5799  -14.2547 C   0  0  0  0  0  0  0  0  0  0  0  0
   41.0579   14.0634  -13.5438 N   0  0  0  0  0  0  0  0  0  0  0  0
   42.3572   13.6538  -13.9215 C   0  0  0  0  0  0  0  0  0  0  0  0
   42.4993   12.8395  -14.9079 O   0  0  0  0  0  0  0  0  0  0  0  0
   40.9296   14.7087  -12.7527 H   0  0  0  0  0  0  0  0  0  0  0  0
   43.5249   14.0644  -13.3060 O   0  0  0  0  0  0  0  0  0  0  0  0
   43.7497   13.7773  -11.9561 C   0  0  0  0  0  0  0  0  0  0  0  0
   44.8300   12.7635  -11.8635 C   0  0  0  0  0  0  0  0  0  0  0  0
   44.8277   11.7774  -10.8716 C   0  0  0  0  0  0  0  0  0  0  0  0
   45.8153   10.8289  -10.7562 C   0  0  0  0  0  0  0  0  0  0  0  0
   46.8734   10.8035  -11.6319 C   0  0  0  0  0  0  0  0  0  0  0  0
   46.8733   11.7825  -12.6180 C   0  0  0  0  0  0  0  0  0  0  0  0
   45.8917   12.7246  -12.7280 C   0  0  0  0  0  0  0  0  0  0  0  0
   40.2699   13.6232  -15.7182 C   0  0  0  0  0  0  0  0  0  0  0  0
   39.6534   12.6422  -16.5805 C   0  0  0  0  0  0  0  0  0  0  0  0
   38.4426   12.0606  -16.3107 C   0  0  0  0  0  0  0  0  0  0  0  0
   37.8923   11.1061  -17.1700 C   0  0  0  0  0  0  0  0  0  0  0  0
   38.6132   10.7684  -18.3084 C   0  0  0  0  0  0  0  0  0  0  0  0
   39.8403   11.3435  -18.6064 C   0  0  0  0  0  0  0  0  0  0  0  0
   40.3464   12.2729  -17.7397 C   0  0  0  0  0  0  0  0  0  0  0  0
 20 21  1  0  0  0
 21 22  2  0  0  0
 21 18  1  0  0  0
 18 17  1  0  0  0
 17 16  1  0  0  0
 16 15  1  0  0  0
 15 12  1  0  0  0
 12  8  1  0  0  0
  8  9  1  0  0  0
  9 10  2  0  0  0
  9  1  1  0  0  0
  1  2  1  0  0  0
  2  3  1  0  0  0
  3  4  1  0  0  0
  4  5  1  0  0  0
  5  6  1  0  0  0
  6  7  2  0  0  0
  6 26  1  0  0  0
 26 39  1  0  0  0
 39 40  1  0  0  0
 40 41  2  0  0  0
 41 42  1  0  0  0
 42 43  2  0  0  0
 43 44  1  0  0  0
 44 45  2  0  0  0
 26 27  1  0  0  0
 27 28  1  0  0  0
 28 29  2  0  0  0
 28 31  1  0  0  0
 31 32  1  0  0  0
 32 33  1  0  0  0
 33 34  2  0  0  0
 34 35  1  0  0  0
 35 36  2  0  0  0
 36 37  1  0  0  0
 37 38  2  0  0  0
 12 13  1  0  0  0
 13 14  2  0  0  0
  5  1  1  0  0  0
 45 40  1  0  0  0
 38 33  1  0  0  0
 20 23  1  0  0  0
 20 24  1  0  0  0
 22 25  1  0  0  0
 18 19  1  0  0  0
  8 11  1  0  0  0
 27 30  1  0  0  0
M  END
> <minimizedAffinity>
-8.09767

> <CNNscore>
0.5127295852

> <CNNaffinity>
6.7606415749

> <CNN_VS>
3.4663808346

> <CNNaffinity_variance>
0.0674431548

$$$$
[H]N=C(N([H])[H])N([H])C([H])([H])C([H])([H])C([H])([H])[C@@]([H])(C([H])=O)N([H])C(=O)[C@@]1([H])N(C(=O)[C@]([H])(N([H])C(=O)OC([H])([H])c2c([H])c([H])c([H])c([H])c2[H])C([H])([H])c2c([H])c([H])c([H])c([H])c2[H])C([H])([H])C([H])([H])C1([H])[H]


 45 47  0  0  0  0  0  0  0  0999 V2000
   36.3719   14.8042  -13.2533 C   0  0  0  0  0  0  0  0  0  0  0  0
   35.3152   13.8761  -13.7497 C   0  0  0  0  0  0  0  0  0  0  0  0
   35.7351   12.5364  -13.1819 C   0  0  0  0  0  0  0  0  0  0  0  0
   37.2086   12.7171  -12.8461 C   0  0  0  0  0  0  0  0  0  0  0  0
   37.5724   14.0014  -13.4364 N   0  0  0  0  0  0  0  0  0  0  0  0
   38.7711   14.4415  -14.0255 C   0  0  0  0  0  0  0  0  0  0  0  0
   38.8185   15.6757  -14.3813 O   0  0  0  0  0  0  0  0  0  0  0  0
   35.2375   14.9502  -10.9463 N   0  0  0  0  0  0  0  0  0  0  0  0
   36.1811   15.3323  -11.9145 C   0  0  0  0  0  0  0  0  0  0  0  0
   36.9873   16.2747  -11.5736 O   0  0  0  0  0  0  0  0  0  0  0  0
   34.5751   14.1853  -11.1697 H   0  0  0  0  0  0  0  0  0  0  0  0
   35.1400   15.5618   -9.6392 C   0  0  0  0  0  0  0  0  0  0  0  0
   35.7524   14.7740   -8.5544 C   0  0  0  0  0  0  0  0  0  0  0  0
   36.8471   14.2558   -8.6638 O   0  0  0  0  0  0  0  0  0  0  0  0
   33.7734   16.0510   -9.3252 C   0  0  0  0  0  0  0  0  0  0  0  0
   33.4807   16.4079   -7.9168 C   0  0  0  0  0  0  0  0  0  0  0  0
   32.2697   15.7817   -7.3101 C   0  0  0  0  0  0  0  0  0  0  0  0
   31.9462   14.5187   -7.9375 N   0  0  0  0  0  0  0  0  0  0  0  0
   32.5095   14.2215   -8.7589 H   0  0  0  0  0  0  0  0  0  0  0  0
   30.8659   12.2689   -7.7110 N   0  0  0  0  0  0  0  0  0  0  0  0
   30.9083   13.6835   -7.4752 C   0  0  0  0  0  0  0  0  0  0  0  0
   29.9160   14.1959   -6.7896 N   0  0  0  0  0  0  0  0  0  0  0  0
   30.4747   11.9280   -8.6126 H   0  0  0  0  0  0  0  0  0  0  0  0
   31.2160   11.5878   -6.9956 H   0  0  0  0  0  0  0  0  0  0  0  0
   29.9482   15.2306   -6.6179 H   0  0  0  0  0  0  0  0  0  0  0  0
   39.9685   13.5987  -14.2641 C   0  0  0  0  0  0  0  0  0  0  0  0
   41.1283   14.1351  -13.5296 N   0  0  0  0  0  0  0  0  0  0  0  0
   42.4458   13.7108  -13.8174 C   0  0  0  0  0  0  0  0  0  0  0  0
   42.6382   12.8356  -14.7411 O   0  0  0  0  0  0  0  0  0  0  0  0
   40.9597   14.8292  -12.7890 H   0  0  0  0  0  0  0  0  0  0  0  0
   43.5809   14.1683  -13.1746 O   0  0  0  0  0  0  0  0  0  0  0  0
   43.5326   15.3306  -12.3989 C   0  0  0  0  0  0  0  0  0  0  0  0
   44.5613   16.2756  -12.9010 C   0  0  0  0  0  0  0  0  0  0  0  0
   45.2885   16.0168  -14.0674 C   0  0  0  0  0  0  0  0  0  0  0  0
   46.2503   16.8685  -14.5548 C   0  0  0  0  0  0  0  0  0  0  0  0
   46.5467   18.0420  -13.9052 C   0  0  0  0  0  0  0  0  0  0  0  0
   45.8220   18.2989  -12.7477 C   0  0  0  0  0  0  0  0  0  0  0  0
   44.8689   17.4492  -12.2653 C   0  0  0  0  0  0  0  0  0  0  0  0
   40.4203   13.6219  -15.7154 C   0  0  0  0  0  0  0  0  0  0  0  0
   39.8089   12.6466  -16.5879 C   0  0  0  0  0  0  0  0  0  0  0  0
   38.5881   12.0769  -16.3383 C   0  0  0  0  0  0  0  0  0  0  0  0
   38.0431   11.1275  -17.2066 C   0  0  0  0  0  0  0  0  0  0  0  0
   38.7797   10.7824  -18.3326 C   0  0  0  0  0  0  0  0  0  0  0  0
   40.0172   11.3455  -18.6101 C   0  0  0  0  0  0  0  0  0  0  0  0
   40.5176   12.2702  -17.7352 C   0  0  0  0  0  0  0  0  0  0  0  0
 20 21  1  0  0  0
 21 22  2  0  0  0
 21 18  1  0  0  0
 18 17  1  0  0  0
 17 16  1  0  0  0
 16 15  1  0  0  0
 15 12  1  0  0  0
 12  8  1  0  0  0
  8  9  1  0  0  0
  9 10  2  0  0  0
  9  1  1  0  0  0
  1  2  1  0  0  0
  2  3  1  0  0  0
  3  4  1  0  0  0
  4  5  1  0  0  0
  5  6  1  0  0  0
  6  7  2  0  0  0
  6 26  1  0  0  0
 26 39  1  0  0  0
 39 40  1  0  0  0
 40 41  2  0  0  0
 41 42  1  0  0  0
 42 43  2  0  0  0
 43 44  1  0  0  0
 44 45  2  0  0  0
 26 27  1  0  0  0
 27 28  1  0  0  0
 28 29  2  0  0  0
 28 31  1  0  0  0
 31 32  1  0  0  0
 32 33  1  0  0  0
 33 34  2  0  0  0
 34 35  1  0  0  0
 35 36  2  0  0  0
 36 37  1  0  0  0
 37 38  2  0  0  0
 12 13  1  0  0  0
 13 14  2  0  0  0
  5  1  1  0  0  0
 45 40  1  0  0  0
 38 33  1  0  0  0
 20 23  1  0  0  0
 20 24  1  0  0  0
 22 25  1  0  0  0
 18 19  1  0  0  0
  8 11  1  0  0  0
 27 30  1  0  0  0
M  END
> <minimizedAffinity>
-7.98383

> <CNNscore>
0.4996494055

> <CNNaffinity>
6.6808943748

> <CNN_VS>
3.3381049633

> <CNNaffinity_variance>
0.0753744394

$$$$
[H]N=C(N([H])[H])N([H])C([H])([H])C([H])([H])C([H])([H])[C@@]([H])(C([H])=O)N([H])C(=O)[C@@]1([H])N(C(=O)[C@]([H])(N([H])C(=O)OC([H])([H])c2c([H])c([H])c([H])c([H])c2[H])C([H])([H])c2c([H])c([H])c([H])c([H])c2[H])C([H])([H])C([H])([H])C1([H])[H]


 45 47  0  0  0  0  0  0  0  0999 V2000
   36.7089   14.9309  -13.3267 C   0  0  0  0  0  0  0  0  0  0  0  0
   35.5710   14.1302  -13.8638 C   0  0  0  0  0  0  0  0  0  0  0  0
   35.8764   12.7269  -13.3832 C   0  0  0  0  0  0  0  0  0  0  0  0
   37.3628   12.7580  -13.0568 C   0  0  0  0  0  0  0  0  0  0  0  0
   37.8330   14.0394  -13.5737 N   0  0  0  0  0  0  0  0  0  0  0  0
   39.0609   14.4086  -14.1513 C   0  0  0  0  0  0  0  0  0  0  0  0
   39.2134   15.6534  -14.4328 O   0  0  0  0  0  0  0  0  0  0  0  0
   35.5620   15.1018  -11.0276 N   0  0  0  0  0  0  0  0  0  0  0  0
   36.5760   15.3909  -11.9561 C   0  0  0  0  0  0  0  0  0  0  0  0
   37.5155   16.1650  -11.5409 O   0  0  0  0  0  0  0  0  0  0  0  0
   34.7905   14.4712  -11.3116 H   0  0  0  0  0  0  0  0  0  0  0  0
   35.5352   15.6310   -9.6817 C   0  0  0  0  0  0  0  0  0  0  0  0
   36.2498   14.8055   -8.6917 C   0  0  0  0  0  0  0  0  0  0  0  0
   35.6724   14.0398   -7.9438 O   0  0  0  0  0  0  0  0  0  0  0  0
   34.1778   16.0466   -9.2459 C   0  0  0  0  0  0  0  0  0  0  0  0
   33.0247   15.5593  -10.0394 C   0  0  0  0  0  0  0  0  0  0  0  0
   31.7667   16.3560   -9.9427 C   0  0  0  0  0  0  0  0  0  0  0  0
   31.0975   16.1521   -8.6762 N   0  0  0  0  0  0  0  0  0  0  0  0
   30.6932   15.2146   -8.4813 H   0  0  0  0  0  0  0  0  0  0  0  0
   31.4750   17.0422   -6.3641 N   0  0  0  0  0  0  0  0  0  0  0  0
   30.9810   17.1682   -7.7052 C   0  0  0  0  0  0  0  0  0  0  0  0
   30.3968   18.3000   -8.0134 N   0  0  0  0  0  0  0  0  0  0  0  0
   30.8763   16.5680   -5.6577 H   0  0  0  0  0  0  0  0  0  0  0  0
   32.4146   17.4188   -6.0933 H   0  0  0  0  0  0  0  0  0  0  0  0
   30.0360   18.3908   -8.9946 H   0  0  0  0  0  0  0  0  0  0  0  0
   40.1778   13.4810  -14.4560 C   0  0  0  0  0  0  0  0  0  0  0  0
   41.4104   13.9218  -13.7786 N   0  0  0  0  0  0  0  0  0  0  0  0
   42.6840   13.4714  -14.1954 C   0  0  0  0  0  0  0  0  0  0  0  0
   42.7705   12.6572  -15.1883 O   0  0  0  0  0  0  0  0  0  0  0  0
   41.3264   14.5675  -12.9819 H   0  0  0  0  0  0  0  0  0  0  0  0
   43.8819   13.8409  -13.6127 O   0  0  0  0  0  0  0  0  0  0  0  0
   44.0488   13.7548  -12.2271 C   0  0  0  0  0  0  0  0  0  0  0  0
   44.5565   15.0586  -11.7316 C   0  0  0  0  0  0  0  0  0  0  0  0
   44.3675   16.2417  -12.4531 C   0  0  0  0  0  0  0  0  0  0  0  0
   44.8298   17.4626  -12.0241 C   0  0  0  0  0  0  0  0  0  0  0  0
   45.5122   17.5802  -10.8377 C   0  0  0  0  0  0  0  0  0  0  0  0
   45.6974   16.4043  -10.1209 C   0  0  0  0  0  0  0  0  0  0  0  0
   45.2388   15.1929  -10.5515 C   0  0  0  0  0  0  0  0  0  0  0  0
   40.5560   13.4847  -15.9284 C   0  0  0  0  0  0  0  0  0  0  0  0
   39.8544   12.5419  -16.7680 C   0  0  0  0  0  0  0  0  0  0  0  0
   38.6634   11.9638  -16.4151 C   0  0  0  0  0  0  0  0  0  0  0  0
   38.0284   11.0466  -17.2565 C   0  0  0  0  0  0  0  0  0  0  0  0
   38.6442   10.7423  -18.4638 C   0  0  0  0  0  0  0  0  0  0  0  0
   39.8489   11.3148  -18.8465 C   0  0  0  0  0  0  0  0  0  0  0  0
   40.4402   12.2071  -17.9948 C   0  0  0  0  0  0  0  0  0  0  0  0
 20 21  1  0  0  0
 21 22  2  0  0  0
 21 18  1  0  0  0
 18 17  1  0  0  0
 17 16  1  0  0  0
 16 15  1  0  0  0
 15 12  1  0  0  0
 12  8  1  0  0  0
  8  9  1  0  0  0
  9 10  2  0  0  0
  9  1  1  0  0  0
  1  2  1  0  0  0
  2  3  1  0  0  0
  3  4  1  0  0  0
  4  5  1  0  0  0
  5  6  1  0  0  0
  6  7  2  0  0  0
  6 26  1  0  0  0
 26 39  1  0  0  0
 39 40  1  0  0  0
 40 41  2  0  0  0
 41 42  1  0  0  0
 42 43  2  0  0  0
 43 44  1  0  0  0
 44 45  2  0  0  0
 26 27  1  0  0  0
 27 28  1  0  0  0
 28 29  2  0  0  0
 28 31  1  0  0  0
 31 32  1  0  0  0
 32 33  1  0  0  0
 33 34  2  0  0  0
 34 35  1  0  0  0
 35 36  2  0  0  0
 36 37  1  0  0  0
 37 38  2  0  0  0
 12 13  1  0  0  0
 13 14  2  0  0  0
  5  1  1  0  0  0
 45 40  1  0  0  0
 38 33  1  0  0  0
 20 23  1  0  0  0
 20 24  1  0  0  0
 22 25  1  0  0  0
 18 19  1  0  0  0
  8 11  1  0  0  0
 27 30  1  0  0  0
M  END
> <minimizedAffinity>
-7.56312

> <CNNscore>
0.4802933335

> <CNNaffinity>
6.6588363647

> <CNN_VS>
3.1981947422

> <CNNaffinity_variance>
0.0440518036

$$$$
[H]N=C(N([H])[H])N([H])C([H])([H])C([H])([H])C([H])([H])[C@@]([H])(C([H])=O)N([H])C(=O)[C@@]1([H])N(C(=O)[C@]([H])(N([H])C(=O)OC([H])([H])c2c([H])c([H])c([H])c([H])c2[H])C([H])([H])c2c([H])c([H])c([H])c([H])c2[H])C([H])([H])C([H])([H])C1([H])[H]


 45 47  0  0  0  0  0  0  0  0999 V2000
   37.4203   15.0875  -12.6562 C   0  0  0  0  0  0  0  0  0  0  0  0
   36.1339   14.6477  -13.2694 C   0  0  0  0  0  0  0  0  0  0  0  0
   36.2466   13.1376  -13.2672 C   0  0  0  0  0  0  0  0  0  0  0  0
   37.7386   12.8735  -13.1235 C   0  0  0  0  0  0  0  0  0  0  0  0
   38.3677   14.1802  -13.2876 N   0  0  0  0  0  0  0  0  0  0  0  0
   39.5936   14.5495  -13.8693 C   0  0  0  0  0  0  0  0  0  0  0  0
   39.9210   15.7894  -13.7839 O   0  0  0  0  0  0  0  0  0  0  0  0
   36.3901   15.1120  -10.2965 N   0  0  0  0  0  0  0  0  0  0  0  0
   37.4616   15.1110  -11.2052 C   0  0  0  0  0  0  0  0  0  0  0  0
   38.6388   15.1319  -10.6875 O   0  0  0  0  0  0  0  0  0  0  0  0
   35.4225   15.0817  -10.6659 H   0  0  0  0  0  0  0  0  0  0  0  0
   36.5593   15.1447   -8.8604 C   0  0  0  0  0  0  0  0  0  0  0  0
   35.5475   14.3763   -8.1133 C   0  0  0  0  0  0  0  0  0  0  0  0
   35.8355   13.6645   -7.1703 O   0  0  0  0  0  0  0  0  0  0  0  0
   36.7814   16.5143   -8.3308 C   0  0  0  0  0  0  0  0  0  0  0  0
   35.6623   17.4801   -8.4391 C   0  0  0  0  0  0  0  0  0  0  0  0
   35.6515   18.5987   -7.4516 C   0  0  0  0  0  0  0  0  0  0  0  0
   36.3389   19.7676   -7.9562 N   0  0  0  0  0  0  0  0  0  0  0  0
   35.7771   20.4942   -8.4426 H   0  0  0  0  0  0  0  0  0  0  0  0
   38.5385   19.1940   -6.9009 N   0  0  0  0  0  0  0  0  0  0  0  0
   37.7286   19.9559   -7.8078 C   0  0  0  0  0  0  0  0  0  0  0  0
   38.3429   20.8663   -8.5227 N   0  0  0  0  0  0  0  0  0  0  0  0
   38.5884   19.4965   -5.9069 H   0  0  0  0  0  0  0  0  0  0  0  0
   39.0728   18.3527   -7.2249 H   0  0  0  0  0  0  0  0  0  0  0  0
   37.7495   21.4227   -9.1855 H   0  0  0  0  0  0  0  0  0  0  0  0
   40.5241   13.6270  -14.5652 C   0  0  0  0  0  0  0  0  0  0  0  0
   41.9209   13.9605  -14.2336 N   0  0  0  0  0  0  0  0  0  0  0  0
   43.0057   13.3027  -14.8575 C   0  0  0  0  0  0  0  0  0  0  0  0
   42.7694   12.3910  -15.7346 O   0  0  0  0  0  0  0  0  0  0  0  0
   42.0955   14.6865  -13.5257 H   0  0  0  0  0  0  0  0  0  0  0  0
   44.3392   13.5613  -14.6011 O   0  0  0  0  0  0  0  0  0  0  0  0
   44.7343   14.0621  -13.3568 C   0  0  0  0  0  0  0  0  0  0  0  0
   45.3150   12.9498  -12.5638 C   0  0  0  0  0  0  0  0  0  0  0  0
   46.5438   12.3726  -12.9000 C   0  0  0  0  0  0  0  0  0  0  0  0
   47.1050   11.3389  -12.1895 C   0  0  0  0  0  0  0  0  0  0  0  0
   46.4714   10.8147  -11.0891 C   0  0  0  0  0  0  0  0  0  0  0  0
   45.2517   11.3906  -10.7551 C   0  0  0  0  0  0  0  0  0  0  0  0
   44.6963   12.4158  -11.4647 C   0  0  0  0  0  0  0  0  0  0  0  0
   40.4693   13.7719  -16.0775 C   0  0  0  0  0  0  0  0  0  0  0  0
   39.7587   12.7363  -16.7907 C   0  0  0  0  0  0  0  0  0  0  0  0
   38.5842   12.1888  -16.3457 C   0  0  0  0  0  0  0  0  0  0  0  0
   37.9399   11.1791  -17.0653 C   0  0  0  0  0  0  0  0  0  0  0  0
   38.5290   10.7507  -18.2481 C   0  0  0  0  0  0  0  0  0  0  0  0
   39.7165   11.2896  -18.7223 C   0  0  0  0  0  0  0  0  0  0  0  0
   40.3177   12.2752  -17.9886 C   0  0  0  0  0  0  0  0  0  0  0  0
 20 21  1  0  0  0
 21 22  2  0  0  0
 21 18  1  0  0  0
 18 17  1  0  0  0
 17 16  1  0  0  0
 16 15  1  0  0  0
 15 12  1  0  0  0
 12  8  1  0  0  0
  8  9  1  0  0  0
  9 10  2  0  0  0
  9  1  1  0  0  0
  1  2  1  0  0  0
  2  3  1  0  0  0
  3  4  1  0  0  0
  4  5  1  0  0  0
  5  6  1  0  0  0
  6  7  2  0  0  0
  6 26  1  0  0  0
 26 39  1  0  0  0
 39 40  1  0  0  0
 40 41  2  0  0  0
 41 42  1  0  0  0
 42 43  2  0  0  0
 43 44  1  0  0  0
 44 45  2  0  0  0
 26 27  1  0  0  0
 27 28  1  0  0  0
 28 29  2  0  0  0
 28 31  1  0  0  0
 31 32  1  0  0  0
 32 33  1  0  0  0
 33 34  2  0  0  0
 34 35  1  0  0  0
 35 36  2  0  0  0
 36 37  1  0  0  0
 37 38  2  0  0  0
 12 13  1  0  0  0
 13 14  2  0  0  0
  5  1  1  0  0  0
 45 40  1  0  0  0
 38 33  1  0  0  0
 20 23  1  0  0  0
 20 24  1  0  0  0
 22 25  1  0  0  0
 18 19  1  0  0  0
  8 11  1  0  0  0
 27 30  1  0  0  0
M  END
> <minimizedAffinity>
-7.64144

> <CNNscore>
0.3684680760

> <CNNaffinity>
6.3681740761

> <CNN_VS>
2.3464689255

> <CNNaffinity_variance>
0.0544412956

$$$$
[H]N=C(N([H])[H])N([H])C([H])([H])C([H])([H])C([H])([H])[C@@]([H])(C([H])=O)N([H])C(=O)[C@@]1([H])N(C(=O)[C@]([H])(N([H])C(=O)OC([H])([H])c2c([H])c([H])c([H])c([H])c2[H])C([H])([H])c2c([H])c([H])c([H])c([H])c2[H])C([H])([H])C([H])([H])C1([H])[H]


 45 47  0  0  0  0  0  0  0  0999 V2000
   37.1231   15.9124  -10.9458 C   0  0  0  0  0  0  0  0  0  0  0  0
   35.8000   16.5951  -11.0326 C   0  0  0  0  0  0  0  0  0  0  0  0
   34.8261   15.4461  -11.1903 C   0  0  0  0  0  0  0  0  0  0  0  0
   35.6888   14.2867  -11.6681 C   0  0  0  0  0  0  0  0  0  0  0  0
   36.9865   14.8840  -11.9671 N   0  0  0  0  0  0  0  0  0  0  0  0
   37.9388   14.5786  -12.9557 C   0  0  0  0  0  0  0  0  0  0  0  0
   39.0439   15.2335  -12.9123 O   0  0  0  0  0  0  0  0  0  0  0  0
   36.7704   15.4549   -8.4364 N   0  0  0  0  0  0  0  0  0  0  0  0
   37.5082   15.4297   -9.6318 C   0  0  0  0  0  0  0  0  0  0  0  0
   38.6819   14.9088   -9.5580 O   0  0  0  0  0  0  0  0  0  0  0  0
   35.8136   15.8523   -8.4490 H   0  0  0  0  0  0  0  0  0  0  0  0
   37.2692   14.9459   -7.1778 C   0  0  0  0  0  0  0  0  0  0  0  0
   36.5599   13.7524   -6.6830 C   0  0  0  0  0  0  0  0  0  0  0  0
   37.0812   12.6545   -6.6438 O   0  0  0  0  0  0  0  0  0  0  0  0
   37.4480   16.0040   -6.1512 C   0  0  0  0  0  0  0  0  0  0  0  0
   37.2956   17.4127   -6.5859 C   0  0  0  0  0  0  0  0  0  0  0  0
   38.4871   18.2943   -6.4139 C   0  0  0  0  0  0  0  0  0  0  0  0
   38.5379   19.3317   -7.4213 N   0  0  0  0  0  0  0  0  0  0  0  0
   39.3729   19.9501   -7.4457 H   0  0  0  0  0  0  0  0  0  0  0  0
   36.2231   20.0729   -8.0318 N   0  0  0  0  0  0  0  0  0  0  0  0
   37.5077   19.5272   -8.3642 C   0  0  0  0  0  0  0  0  0  0  0  0
   37.7032   19.2047   -9.6192 N   0  0  0  0  0  0  0  0  0  0  0  0
   35.4938   19.4321   -7.6583 H   0  0  0  0  0  0  0  0  0  0  0  0
   36.0151   21.0918   -8.1618 H   0  0  0  0  0  0  0  0  0  0  0  0
   38.6432   18.8057   -9.8610 H   0  0  0  0  0  0  0  0  0  0  0  0
   37.7651   13.5710  -14.0307 C   0  0  0  0  0  0  0  0  0  0  0  0
   38.9645   13.5206  -14.8857 N   0  0  0  0  0  0  0  0  0  0  0  0
   39.4291   12.3041  -15.4359 C   0  0  0  0  0  0  0  0  0  0  0  0
   38.7915   11.2148  -15.1846 O   0  0  0  0  0  0  0  0  0  0  0  0
   39.4686   14.3978  -15.0731 H   0  0  0  0  0  0  0  0  0  0  0  0
   40.5420   12.1778  -16.2462 O   0  0  0  0  0  0  0  0  0  0  0  0
   41.3331   13.2934  -16.5373 C   0  0  0  0  0  0  0  0  0  0  0  0
   42.5867   13.2012  -15.7478 C   0  0  0  0  0  0  0  0  0  0  0  0
   42.6329   13.5678  -14.3988 C   0  0  0  0  0  0  0  0  0  0  0  0
   43.7783   13.4990  -13.6428 C   0  0  0  0  0  0  0  0  0  0  0  0
   44.9574   13.0540  -14.1894 C   0  0  0  0  0  0  0  0  0  0  0  0
   44.9095   12.6882  -15.5291 C   0  0  0  0  0  0  0  0  0  0  0  0
   43.7703   12.7602  -16.2775 C   0  0  0  0  0  0  0  0  0  0  0  0
   36.6494   13.9337  -14.9976 C   0  0  0  0  0  0  0  0  0  0  0  0
   35.7238   12.8751  -15.3272 C   0  0  0  0  0  0  0  0  0  0  0  0
   34.6278   12.5713  -14.5633 C   0  0  0  0  0  0  0  0  0  0  0  0
   33.7675   11.5286  -14.9170 C   0  0  0  0  0  0  0  0  0  0  0  0
   34.0596   10.8119  -16.0705 C   0  0  0  0  0  0  0  0  0  0  0  0
   35.1615   11.1001  -16.8631 C   0  0  0  0  0  0  0  0  0  0  0  0
   35.9808   12.1273  -16.4826 C   0  0  0  0  0  0  0  0  0  0  0  0
 20 21  1  0  0  0
 21 22  2  0  0  0
 21 18  1  0  0  0
 18 17  1  0  0  0
 17 16  1  0  0  0
 16 15  1  0  0  0
 15 12  1  0  0  0
 12  8  1  0  0  0
  8  9  1  0  0  0
  9 10  2  0  0  0
  9  1  1  0  0  0
  1  2  1  0  0  0
  2  3  1  0  0  0
  3  4  1  0  0  0
  4  5  1  0  0  0
  5  6  1  0  0  0
  6  7  2  0  0  0
  6 26  1  0  0  0
 26 39  1  0  0  0
 39 40  1  0  0  0
 40 41  2  0  0  0
 41 42  1  0  0  0
 42 43  2  0  0  0
 43 44  1  0  0  0
 44 45  2  0  0  0
 26 27  1  0  0  0
 27 28  1  0  0  0
 28 29  2  0  0  0
 28 31  1  0  0  0
 31 32  1  0  0  0
 32 33  1  0  0  0
 33 34  2  0  0  0
 34 35  1  0  0  0
 35 36  2  0  0  0
 36 37  1  0  0  0
 37 38  2  0  0  0
 12 13  1  0  0  0
 13 14  2  0  0  0
  5  1  1  0  0  0
 45 40  1  0  0  0
 38 33  1  0  0  0
 20 23  1  0  0  0
 20 24  1  0  0  0
 22 25  1  0  0  0
 18 19  1  0  0  0
  8 11  1  0  0  0
 27 30  1  0  0  0
M  END
> <minimizedAffinity>
-7.73645

> <CNNscore>
0.2593934238

> <CNNaffinity>
6.3473978043

> <CNN_VS>
1.6464732885

> <CNNaffinity_variance>
0.3292261958

$$$$
[H]N=C(N([H])[H])N([H])C([H])([H])C([H])([H])C([H])([H])[C@@]([H])(C([H])=O)N([H])C(=O)[C@@]1([H])N(C(=O)[C@]([H])(N([H])C(=O)OC([H])([H])c2c([H])c([H])c([H])c([H])c2[H])C([H])([H])c2c([H])c([H])c([H])c([H])c2[H])C([H])([H])C([H])([H])C1([H])[H]


 45 47  0  0  0  0  0  0  0  0999 V2000
   37.0775   14.7163  -13.4630 C   0  0  0  0  0  0  0  0  0  0  0  0
   35.8857   13.9838  -13.9800 C   0  0  0  0  0  0  0  0  0  0  0  0
   36.1824   12.5422  -13.6235 C   0  0  0  0  0  0  0  0  0  0  0  0
   37.6870   12.5150  -13.3949 C   0  0  0  0  0  0  0  0  0  0  0  0
   38.1582   13.8200  -13.8478 N   0  0  0  0  0  0  0  0  0  0  0  0
   39.3561   14.2029  -14.4772 C   0  0  0  0  0  0  0  0  0  0  0  0
   39.5245   15.4613  -14.6775 O   0  0  0  0  0  0  0  0  0  0  0  0
   38.0783   15.6015  -11.2618 N   0  0  0  0  0  0  0  0  0  0  0  0
   37.0458   15.0766  -12.0570 C   0  0  0  0  0  0  0  0  0  0  0  0
   35.9191   14.8898  -11.4653 O   0  0  0  0  0  0  0  0  0  0  0  0
   39.0008   15.7823  -11.6975 H   0  0  0  0  0  0  0  0  0  0  0  0
   37.9260   15.9157   -9.8582 C   0  0  0  0  0  0  0  0  0  0  0  0
   37.6695   17.3403   -9.5805 C   0  0  0  0  0  0  0  0  0  0  0  0
   37.8799   18.2121  -10.4018 O   0  0  0  0  0  0  0  0  0  0  0  0
   38.9910   15.3232   -9.0095 C   0  0  0  0  0  0  0  0  0  0  0  0
   40.3903   15.7255   -9.2863 C   0  0  0  0  0  0  0  0  0  0  0  0
   41.3813   15.4766   -8.1988 C   0  0  0  0  0  0  0  0  0  0  0  0
   41.1036   14.2461   -7.4901 N   0  0  0  0  0  0  0  0  0  0  0  0
   40.5103   14.2949   -6.6382 H   0  0  0  0  0  0  0  0  0  0  0  0
   41.0841   11.7405   -7.4485 N   0  0  0  0  0  0  0  0  0  0  0  0
   41.6001   12.9959   -7.9135 C   0  0  0  0  0  0  0  0  0  0  0  0
   42.5837   12.9442   -8.7778 N   0  0  0  0  0  0  0  0  0  0  0  0
   41.4427   11.3594   -6.5494 H   0  0  0  0  0  0  0  0  0  0  0  0
   40.3646   11.2118   -7.9971 H   0  0  0  0  0  0  0  0  0  0  0  0
   42.9601   13.8631   -9.1171 H   0  0  0  0  0  0  0  0  0  0  0  0
   40.4250   13.2750  -14.9216 C   0  0  0  0  0  0  0  0  0  0  0  0
   41.7178   13.6590  -14.3270 N   0  0  0  0  0  0  0  0  0  0  0  0
   42.9417   13.1772  -14.8453 C   0  0  0  0  0  0  0  0  0  0  0  0
   42.9280   12.3845  -15.8591 O   0  0  0  0  0  0  0  0  0  0  0  0
   41.7139   14.2879  -13.5127 H   0  0  0  0  0  0  0  0  0  0  0  0
   44.1906   13.4932  -14.3441 O   0  0  0  0  0  0  0  0  0  0  0  0
   44.3159   14.0858  -13.0838 C   0  0  0  0  0  0  0  0  0  0  0  0
   44.7897   15.4809  -13.2639 C   0  0  0  0  0  0  0  0  0  0  0  0
   45.6724   15.8291  -14.2914 C   0  0  0  0  0  0  0  0  0  0  0  0
   46.1332   17.1098  -14.4810 C   0  0  0  0  0  0  0  0  0  0  0  0
   45.7364   18.1311  -13.6524 C   0  0  0  0  0  0  0  0  0  0  0  0
   44.8578   17.7840  -12.6333 C   0  0  0  0  0  0  0  0  0  0  0  0
   44.4042   16.5103  -12.4467 C   0  0  0  0  0  0  0  0  0  0  0  0
   40.6810   13.3515  -16.4182 C   0  0  0  0  0  0  0  0  0  0  0  0
   39.9517   12.4118  -17.2374 C   0  0  0  0  0  0  0  0  0  0  0  0
   40.3369   12.0645  -18.5056 C   0  0  0  0  0  0  0  0  0  0  0  0
   39.5907   11.1593  -19.2646 C   0  0  0  0  0  0  0  0  0  0  0  0
   38.4464   10.6215  -18.6893 C   0  0  0  0  0  0  0  0  0  0  0  0
   38.0352   10.9543  -17.4065 C   0  0  0  0  0  0  0  0  0  0  0  0
   38.7916   11.8453  -16.6957 C   0  0  0  0  0  0  0  0  0  0  0  0
 20 21  1  0  0  0
 21 22  2  0  0  0
 21 18  1  0  0  0
 18 17  1  0  0  0
 17 16  1  0  0  0
 16 15  1  0  0  0
 15 12  1  0  0  0
 12  8  1  0  0  0
  8  9  1  0  0  0
  9 10  2  0  0  0
  9  1  1  0  0  0
  1  2  1  0  0  0
  2  3  1  0  0  0
  3  4  1  0  0  0
  4  5  1  0  0  0
  5  6  1  0  0  0
  6  7  2  0  0  0
  6 26  1  0  0  0
 26 39  1  0  0  0
 39 40  1  0  0  0
 40 41  2  0  0  0
 41 42  1  0  0  0
 42 43  2  0  0  0
 43 44  1  0  0  0
 44 45  2  0  0  0
 26 27  1  0  0  0
 27 28  1  0  0  0
 28 29  2  0  0  0
 28 31  1  0  0  0
 31 32  1  0  0  0
 32 33  1  0  0  0
 33 34  2  0  0  0
 34 35  1  0  0  0
 35 36  2  0  0  0
 36 37  1  0  0  0
 37 38  2  0  0  0
 12 13  1  0  0  0
 13 14  2  0  0  0
  5  1  1  0  0  0
 45 40  1  0  0  0
 38 33  1  0  0  0
 20 23  1  0  0  0
 20 24  1  0  0  0
 22 25  1  0  0  0
 18 19  1  0  0  0
  8 11  1  0  0  0
 27 30  1  0  0  0
M  END
> <minimizedAffinity>
-7.87925

> <CNNscore>
0.2530286312

> <CNNaffinity>
6.3937134743

> <CNN_VS>
1.6177926064

> <CNNaffinity_variance>
0.3107140660

$$$$
[H]N=C(N([H])[H])N([H])C([H])([H])C([H])([H])C([H])([H])[C@@]([H])(C([H])=O)N([H])C(=O)[C@@]1([H])N(C(=O)[C@]([H])(N([H])C(=O)OC([H])([H])c2c([H])c([H])c([H])c([H])c2[H])C([H])([H])c2c([H])c([H])c([H])c([H])c2[H])C([H])([H])C([H])([H])C1([H])[H]


 45 47  0  0  0  0  0  0  0  0999 V2000
   36.6956   14.7552  -13.4656 C   0  0  0  0  0  0  0  0  0  0  0  0
   35.6204   13.9676  -14.1350 C   0  0  0  0  0  0  0  0  0  0  0  0
   35.8916   12.5500  -13.6764 C   0  0  0  0  0  0  0  0  0  0  0  0
   37.3402   12.5778  -13.2103 C   0  0  0  0  0  0  0  0  0  0  0  0
   37.8457   13.8791  -13.6360 N   0  0  0  0  0  0  0  0  0  0  0  0
   39.1192   14.2752  -14.0819 C   0  0  0  0  0  0  0  0  0  0  0  0
   39.2866   15.5300  -14.3047 O   0  0  0  0  0  0  0  0  0  0  0  0
   36.1143   14.3665  -10.9874 N   0  0  0  0  0  0  0  0  0  0  0  0
   36.4301   15.1660  -12.0987 C   0  0  0  0  0  0  0  0  0  0  0  0
   36.4956   16.4319  -11.8810 O   0  0  0  0  0  0  0  0  0  0  0  0
   36.0636   13.3389  -11.1103 H   0  0  0  0  0  0  0  0  0  0  0  0
   35.8612   14.8976   -9.6660 C   0  0  0  0  0  0  0  0  0  0  0  0
   35.0282   16.1133   -9.6508 C   0  0  0  0  0  0  0  0  0  0  0  0
   34.0576   16.2289   -8.9273 O   0  0  0  0  0  0  0  0  0  0  0  0
   37.0879   15.0026   -8.8355 C   0  0  0  0  0  0  0  0  0  0  0  0
   37.7714   16.3168   -8.7869 C   0  0  0  0  0  0  0  0  0  0  0  0
   38.8312   16.4771   -7.7487 C   0  0  0  0  0  0  0  0  0  0  0  0
   40.1547   16.5097   -8.3324 N   0  0  0  0  0  0  0  0  0  0  0  0
   40.6327   17.4292   -8.4112 H   0  0  0  0  0  0  0  0  0  0  0  0
   40.5407   14.0340   -8.2840 N   0  0  0  0  0  0  0  0  0  0  0  0
   40.8138   15.3492   -8.7881 C   0  0  0  0  0  0  0  0  0  0  0  0
   41.7285   15.4435   -9.7217 N   0  0  0  0  0  0  0  0  0  0  0  0
   41.0193   13.7277   -7.4126 H   0  0  0  0  0  0  0  0  0  0  0  0
   39.8780   13.3894   -8.7775 H   0  0  0  0  0  0  0  0  0  0  0  0
   41.9272   16.4059  -10.0896 H   0  0  0  0  0  0  0  0  0  0  0  0
   40.2681   13.3651  -14.3116 C   0  0  0  0  0  0  0  0  0  0  0  0
   41.4574   13.8469  -13.5867 N   0  0  0  0  0  0  0  0  0  0  0  0
   42.7653   13.5265  -14.0175 C   0  0  0  0  0  0  0  0  0  0  0  0
   42.9223   12.7969  -15.0659 O   0  0  0  0  0  0  0  0  0  0  0  0
   41.3175   14.4237  -12.7463 H   0  0  0  0  0  0  0  0  0  0  0  0
   43.9264   13.9418  -13.3927 O   0  0  0  0  0  0  0  0  0  0  0  0
   44.0901   13.7616  -12.0158 C   0  0  0  0  0  0  0  0  0  0  0  0
   45.0415   12.6436  -11.7965 C   0  0  0  0  0  0  0  0  0  0  0  0
   46.1787   12.4807  -12.5943 C   0  0  0  0  0  0  0  0  0  0  0  0
   47.0751   11.4539  -12.4200 C   0  0  0  0  0  0  0  0  0  0  0  0
   46.8924   10.5199  -11.4293 C   0  0  0  0  0  0  0  0  0  0  0  0
   45.7633   10.6842  -10.6362 C   0  0  0  0  0  0  0  0  0  0  0  0
   44.8739   11.7042  -10.8139 C   0  0  0  0  0  0  0  0  0  0  0  0
   40.7164   13.3443  -15.7641 C   0  0  0  0  0  0  0  0  0  0  0  0
   39.9806   12.4672  -16.6447 C   0  0  0  0  0  0  0  0  0  0  0  0
   38.7827   11.8953  -16.3054 C   0  0  0  0  0  0  0  0  0  0  0  0
   38.1140   11.0425  -17.1875 C   0  0  0  0  0  0  0  0  0  0  0  0
   38.7035   10.7960  -18.4209 C   0  0  0  0  0  0  0  0  0  0  0  0
   39.9145   11.3638  -18.7904 C   0  0  0  0  0  0  0  0  0  0  0  0
   40.5391   12.1920  -17.8987 C   0  0  0  0  0  0  0  0  0  0  0  0
 20 21  1  0  0  0
 21 22  2  0  0  0
 21 18  1  0  0  0
 18 17  1  0  0  0
 17 16  1  0  0  0
 16 15  1  0  0  0
 15 12  1  0  0  0
 12  8  1  0  0  0
  8  9  1  0  0  0
  9 10  2  0  0  0
  9  1  1  0  0  0
  1  2  1  0  0  0
  2  3  1  0  0  0
  3  4  1  0  0  0
  4  5  1  0  0  0
  5  6  1  0  0  0
  6  7  2  0  0  0
  6 26  1  0  0  0
 26 39  1  0  0  0
 39 40  1  0  0  0
 40 41  2  0  0  0
 41 42  1  0  0  0
 42 43  2  0  0  0
 43 44  1  0  0  0
 44 45  2  0  0  0
 26 27  1  0  0  0
 27 28  1  0  0  0
 28 29  2  0  0  0
 28 31  1  0  0  0
 31 32  1  0  0  0
 32 33  1  0  0  0
 33 34  2  0  0  0
 34 35  1  0  0  0
 35 36  2  0  0  0
 36 37  1  0  0  0
 37 38  2  0  0  0
 12 13  1  0  0  0
 13 14  2  0  0  0
  5  1  1  0  0  0
 45 40  1  0  0  0
 38 33  1  0  0  0
 20 23  1  0  0  0
 20 24  1  0  0  0
 22 25  1  0  0  0
 18 19  1  0  0  0
  8 11  1  0  0  0
 27 30  1  0  0  0
M  END
> <minimizedAffinity>
-7.89783

> <CNNscore>
0.2457874268

> <CNNaffinity>
6.2285957336

> <CNN_VS>
1.5309104919

> <CNNaffinity_variance>
0.3666091561

$$$$
[H]N=C(N([H])[H])N([H])C([H])([H])C([H])([H])C([H])([H])[C@@]([H])(C([H])=O)N([H])C(=O)[C@@]1([H])N(C(=O)[C@]([H])(N([H])C(=O)OC([H])([H])c2c([H])c([H])c([H])c([H])c2[H])C([H])([H])c2c([H])c([H])c([H])c([H])c2[H])C([H])([H])C([H])([H])C1([H])[H]


 45 47  0  0  0  0  0  0  0  0999 V2000
   37.0189   15.1368  -12.9622 C   0  0  0  0  0  0  0  0  0  0  0  0
   35.6873   14.5090  -13.2010 C   0  0  0  0  0  0  0  0  0  0  0  0
   35.8798   13.0892  -12.7107 C   0  0  0  0  0  0  0  0  0  0  0  0
   37.3896   12.8968  -12.7036 C   0  0  0  0  0  0  0  0  0  0  0  0
   37.9203   14.0742  -13.3836 N   0  0  0  0  0  0  0  0  0  0  0  0
   39.0357   14.2311  -14.2255 C   0  0  0  0  0  0  0  0  0  0  0  0
   39.3049   15.4284  -14.6074 O   0  0  0  0  0  0  0  0  0  0  0  0
   38.3712   16.3442  -11.1335 N   0  0  0  0  0  0  0  0  0  0  0  0
   37.2528   15.6499  -11.6244 C   0  0  0  0  0  0  0  0  0  0  0  0
   36.3057   15.4396  -10.7799 O   0  0  0  0  0  0  0  0  0  0  0  0
   39.1542   16.5496  -11.7803 H   0  0  0  0  0  0  0  0  0  0  0  0
   38.4923   16.8015   -9.7667 C   0  0  0  0  0  0  0  0  0  0  0  0
   38.0170   18.1788   -9.5442 C   0  0  0  0  0  0  0  0  0  0  0  0
   37.2588   18.4679   -8.6384 O   0  0  0  0  0  0  0  0  0  0  0  0
   39.8270   16.5266   -9.1763 C   0  0  0  0  0  0  0  0  0  0  0  0
   39.8676   15.9908   -7.7951 C   0  0  0  0  0  0  0  0  0  0  0  0
   40.0404   14.5149   -7.6592 C   0  0  0  0  0  0  0  0  0  0  0  0
   41.4367   14.1406   -7.5997 N   0  0  0  0  0  0  0  0  0  0  0  0
   42.1459   14.8994   -7.5600 H   0  0  0  0  0  0  0  0  0  0  0  0
   40.9700   11.6826   -7.4551 N   0  0  0  0  0  0  0  0  0  0  0  0
   41.8642   12.7967   -7.5883 C   0  0  0  0  0  0  0  0  0  0  0  0
   43.1392   12.5175   -7.7047 N   0  0  0  0  0  0  0  0  0  0  0  0
   40.6766   11.3937   -6.4998 H   0  0  0  0  0  0  0  0  0  0  0  0
   40.6181   11.1646   -8.2954 H   0  0  0  0  0  0  0  0  0  0  0  0
   43.7920   13.3332   -7.8021 H   0  0  0  0  0  0  0  0  0  0  0  0
   39.9126   13.1323  -14.6996 C   0  0  0  0  0  0  0  0  0  0  0  0
   41.3302   13.4914  -14.5159 N   0  0  0  0  0  0  0  0  0  0  0  0
   42.3237   13.0688  -15.4286 C   0  0  0  0  0  0  0  0  0  0  0  0
   41.9840   12.3534  -16.4430 O   0  0  0  0  0  0  0  0  0  0  0  0
   41.5889   14.0580  -13.6970 H   0  0  0  0  0  0  0  0  0  0  0  0
   43.6697   13.3664  -15.3245 O   0  0  0  0  0  0  0  0  0  0  0  0
   44.1344   14.1791  -14.2859 C   0  0  0  0  0  0  0  0  0  0  0  0
   44.6800   13.3087  -13.2144 C   0  0  0  0  0  0  0  0  0  0  0  0
   45.9023   12.6446  -13.3599 C   0  0  0  0  0  0  0  0  0  0  0  0
   46.4313   11.8283  -12.3892 C   0  0  0  0  0  0  0  0  0  0  0  0
   45.7697   11.6246  -11.2027 C   0  0  0  0  0  0  0  0  0  0  0  0
   44.5565   12.2866  -11.0588 C   0  0  0  0  0  0  0  0  0  0  0  0
   44.0331   13.0948  -12.0262 C   0  0  0  0  0  0  0  0  0  0  0  0
   39.7935   12.8933  -16.1962 C   0  0  0  0  0  0  0  0  0  0  0  0
   38.6485   12.1267  -16.6291 C   0  0  0  0  0  0  0  0  0  0  0  0
   37.4037   12.2567  -16.0716 C   0  0  0  0  0  0  0  0  0  0  0  0
   36.3287   11.4829  -16.5165 C   0  0  0  0  0  0  0  0  0  0  0  0
   36.5640   10.5789  -17.5446 C   0  0  0  0  0  0  0  0  0  0  0  0
   37.8140   10.4288  -18.1280 C   0  0  0  0  0  0  0  0  0  0  0  0
   38.8414   11.2034  -17.6638 C   0  0  0  0  0  0  0  0  0  0  0  0
 20 21  1  0  0  0
 21 22  2  0  0  0
 21 18  1  0  0  0
 18 17  1  0  0  0
 17 16  1  0  0  0
 16 15  1  0  0  0
 15 12  1  0  0  0
 12  8  1  0  0  0
  8  9  1  0  0  0
  9 10  2  0  0  0
  9  1  1  0  0  0
  1  2  1  0  0  0
  2  3  1  0  0  0
  3  4  1  0  0  0
  4  5  1  0  0  0
  5  6  1  0  0  0
  6  7  2  0  0  0
  6 26  1  0  0  0
 26 39  1  0  0  0
 39 40  1  0  0  0
 40 41  2  0  0  0
 41 42  1  0  0  0
 42 43  2  0  0  0
 43 44  1  0  0  0
 44 45  2  0  0  0
 26 27  1  0  0  0
 27 28  1  0  0  0
 28 29  2  0  0  0
 28 31  1  0  0  0
 31 32  1  0  0  0
 32 33  1  0  0  0
 33 34  2  0  0  0
 34 35  1  0  0  0
 35 36  2  0  0  0
 36 37  1  0  0  0
 37 38  2  0  0  0
 12 13  1  0  0  0
 13 14  2  0  0  0
  5  1  1  0  0  0
 45 40  1  0  0  0
 38 33  1  0  0  0
 20 23  1  0  0  0
 20 24  1  0  0  0
 22 25  1  0  0  0
 18 19  1  0  0  0
  8 11  1  0  0  0
 27 30  1  0  0  0
M  END
> <minimizedAffinity>
-7.69533

> <CNNscore>
0.2320783585

> <CNNaffinity>
6.4064431190

> <CNN_VS>
1.4867968559

> <CNNaffinity_variance>
0.1873081326

$$$$
[H]c1c([H])c([H])c2c(c1[H])c1c3c(c4c5c([H])c([H])c([H])c([H])c5n5c4c1n2[C@@]1(C([H])([H])[H])O[C@]5([H])C([H])([H])[C@@]([H])(OC([H])([H])[H])[C@@]1([H])OC([H])([H])[H])C(=O)N([H])C3([H])[H]


 36 43  0  0  0  0  0  0  0  0999 V2000
   36.1284   14.4114  -13.4660 C   0  0  0  0  0  0  0  0  0  0  0  0
   36.9987   15.1722  -12.4748 C   0  0  0  0  0  0  0  0  0  0  0  0
   38.4123   15.0386  -13.0051 C   0  0  0  0  0  0  0  0  0  0  0  0
   38.7496   13.5896  -13.0015 C   0  0  0  0  0  0  0  0  0  0  0  0
   37.7355   12.7323  -12.7503 O   0  0  0  0  0  0  0  0  0  0  0  0
   36.5087   12.9445  -13.3575 C   0  0  0  0  0  0  0  0  0  0  0  0
   35.5093   12.3913  -12.3582 C   0  0  0  0  0  0  0  0  0  0  0  0
   36.5270   12.3469  -14.6557 N   0  0  0  0  0  0  0  0  0  0  0  0
   35.4449   11.8194  -15.3093 C   0  0  0  0  0  0  0  0  0  0  0  0
   34.1114   11.7181  -14.9841 C   0  0  0  0  0  0  0  0  0  0  0  0
   33.2237   11.1247  -15.8798 C   0  0  0  0  0  0  0  0  0  0  0  0
   33.6553   10.6342  -17.0940 C   0  0  0  0  0  0  0  0  0  0  0  0
   34.9965   10.7509  -17.3928 C   0  0  0  0  0  0  0  0  0  0  0  0
   35.9057   11.3346  -16.5261 C   0  0  0  0  0  0  0  0  0  0  0  0
   37.2517   11.5808  -16.5862 C   0  0  0  0  0  0  0  0  0  0  0  0
   38.2160   11.3335  -17.5593 C   0  0  0  0  0  0  0  0  0  0  0  0
   38.0246   10.6843  -18.8663 C   0  0  0  0  0  0  0  0  0  0  0  0
   39.3312   10.6655  -19.4666 N   0  0  0  0  0  0  0  0  0  0  0  0
   40.2804   11.2949  -18.5822 C   0  0  0  0  0  0  0  0  0  0  0  0
   41.4857   11.4094  -18.8928 O   0  0  0  0  0  0  0  0  0  0  0  0
   39.5351   11.6962  -17.4017 C   0  0  0  0  0  0  0  0  0  0  0  0
   39.9337   12.3348  -16.2314 C   0  0  0  0  0  0  0  0  0  0  0  0
   41.0970   12.8402  -15.7224 C   0  0  0  0  0  0  0  0  0  0  0  0
   42.3665   12.8895  -16.2215 C   0  0  0  0  0  0  0  0  0  0  0  0
   43.3632   13.4900  -15.4356 C   0  0  0  0  0  0  0  0  0  0  0  0
   43.0405   14.0041  -14.2046 C   0  0  0  0  0  0  0  0  0  0  0  0
   41.7622   13.9584  -13.6939 C   0  0  0  0  0  0  0  0  0  0  0  0
   40.7716   13.3572  -14.4840 C   0  0  0  0  0  0  0  0  0  0  0  0
   39.4813   13.1910  -14.2207 N   0  0  0  0  0  0  0  0  0  0  0  0
   38.9625   12.5684  -15.2814 C   0  0  0  0  0  0  0  0  0  0  0  0
   37.6341   12.2092  -15.4251 C   0  0  0  0  0  0  0  0  0  0  0  0
   39.6195   10.2688  -20.4049 H   0  0  0  0  0  0  0  0  0  0  0  0
   35.0354   15.1457  -15.3593 C   0  0  0  0  0  0  0  0  0  0  0  0
   36.2479   14.9118  -14.7461 O   0  0  0  0  0  0  0  0  0  0  0  0
   36.6028   16.4693  -12.2934 O   0  0  0  0  0  0  0  0  0  0  0  0
   35.8902   16.5776  -11.1117 C   0  0  0  0  0  0  0  0  0  0  0  0
 33 34  1  0  0  0
 34  1  1  0  0  0
  1  2  1  0  0  0
  2  3  1  0  0  0
  3  4  1  0  0  0
  4  5  1  0  0  0
  5  6  1  0  0  0
  6  7  1  0  0  0
  6  8  1  0  0  0
  8  9  1  0  0  0
  9 10  2  0  0  0
 10 11  1  0  0  0
 11 12  2  0  0  0
 12 13  1  0  0  0
 13 14  2  0  0  0
 14 15  1  0  0  0
 15 16  2  0  0  0
 16 17  1  0  0  0
 17 18  1  0  0  0
 18 19  1  0  0  0
 19 20  2  0  0  0
 19 21  1  0  0  0
 21 22  2  0  0  0
 22 23  1  0  0  0
 23 24  2  0  0  0
 24 25  1  0  0  0
 25 26  2  0  0  0
 26 27  1  0  0  0
 27 28  2  0  0  0
 28 29  1  0  0  0
 29 30  1  0  0  0
 30 31  2  0  0  0
  2 35  1  0  0  0
 35 36  1  0  0  0
  6  1  1  0  0  0
 31  8  1  0  0  0
 29  4  1  0  0  0
 14  9  1  0  0  0
 31 15  1  0  0  0
 21 16  1  0  0  0
 30 22  1  0  0  0
 28 23  1  0  0  0
 18 32  1  0  0  0
M  END
> <minimizedAffinity>
-10.74628

> <CNNscore>
0.7660771608

> <CNNaffinity>
7.5844321251

> <CNN_VS>
5.8102602959

> <CNNaffinity_variance>
0.0704872832

$$$$
[H]c1c([H])c([H])c2c(c1[H])c1c3c(c4c5c([H])c([H])c([H])c([H])c5n5c4c1n2[C@@]1(C([H])([H])[H])O[C@]5([H])C([H])([H])[C@@]([H])(OC([H])([H])[H])[C@@]1([H])OC([H])([H])[H])C(=O)N([H])C3([H])[H]


 36 43  0  0  0  0  0  0  0  0999 V2000
   43.5613   13.0701   -7.9023 C   0  0  0  0  0  0  0  0  0  0  0  0
   42.3355   12.8888   -7.0171 C   0  0  0  0  0  0  0  0  0  0  0  0
   42.1465   14.2236   -6.3242 C   0  0  0  0  0  0  0  0  0  0  0  0
   43.3614   14.4693   -5.5014 C   0  0  0  0  0  0  0  0  0  0  0  0
   44.4004   13.6253   -5.6882 O   0  0  0  0  0  0  0  0  0  0  0  0
   44.7519   13.2659   -6.9789 C   0  0  0  0  0  0  0  0  0  0  0  0
   45.3157   11.8653   -6.8242 C   0  0  0  0  0  0  0  0  0  0  0  0
   45.6263   14.2621   -7.5133 N   0  0  0  0  0  0  0  0  0  0  0  0
   46.6191   14.0461   -8.4321 C   0  0  0  0  0  0  0  0  0  0  0  0
   47.0501   12.9223   -9.0995 C   0  0  0  0  0  0  0  0  0  0  0  0
   48.1039   13.0175  -10.0067 C   0  0  0  0  0  0  0  0  0  0  0  0
   48.7281   14.2221  -10.2525 C   0  0  0  0  0  0  0  0  0  0  0  0
   48.2738   15.3310   -9.5700 C   0  0  0  0  0  0  0  0  0  0  0  0
   47.2295   15.2719   -8.6620 C   0  0  0  0  0  0  0  0  0  0  0  0
   46.5939   16.2026   -7.8837 C   0  0  0  0  0  0  0  0  0  0  0  0
   46.7652   17.5744   -7.7197 C   0  0  0  0  0  0  0  0  0  0  0  0
   47.7554   18.4394   -8.3809 C   0  0  0  0  0  0  0  0  0  0  0  0
   47.5136   19.7539   -7.8503 N   0  0  0  0  0  0  0  0  0  0  0  0
   46.4104   19.7072   -6.9230 C   0  0  0  0  0  0  0  0  0  0  0  0
   46.0042   20.7351   -6.3392 O   0  0  0  0  0  0  0  0  0  0  0  0
   45.9757   18.3220   -6.8746 C   0  0  0  0  0  0  0  0  0  0  0  0
   44.9648   17.6966   -6.1513 C   0  0  0  0  0  0  0  0  0  0  0  0
   44.0037   18.0752   -5.2564 C   0  0  0  0  0  0  0  0  0  0  0  0
   43.6853   19.2880   -4.7171 C   0  0  0  0  0  0  0  0  0  0  0  0
   42.6188   19.3470   -3.8057 C   0  0  0  0  0  0  0  0  0  0  0  0
   41.9342   18.2014   -3.4852 C   0  0  0  0  0  0  0  0  0  0  0  0
   42.2491   16.9740   -4.0248 C   0  0  0  0  0  0  0  0  0  0  0  0
   43.3155   16.9221   -4.9344 C   0  0  0  0  0  0  0  0  0  0  0  0
   43.8080   15.8744   -5.5837 N   0  0  0  0  0  0  0  0  0  0  0  0
   44.8141   16.3378   -6.3285 C   0  0  0  0  0  0  0  0  0  0  0  0
   45.5998   15.5736   -7.1729 C   0  0  0  0  0  0  0  0  0  0  0  0
   48.0264   20.6553   -8.0639 H   0  0  0  0  0  0  0  0  0  0  0  0
   43.4971   13.6991  -10.1201 C   0  0  0  0  0  0  0  0  0  0  0  0
   43.3969   14.1004   -8.8048 O   0  0  0  0  0  0  0  0  0  0  0  0
   41.2302   12.4682   -7.7051 O   0  0  0  0  0  0  0  0  0  0  0  0
   40.1023   12.6337   -6.9201 C   0  0  0  0  0  0  0  0  0  0  0  0
 33 34  1  0  0  0
 34  1  1  0  0  0
  1  2  1  0  0  0
  2  3  1  0  0  0
  3  4  1  0  0  0
  4  5  1  0  0  0
  5  6  1  0  0  0
  6  7  1  0  0  0
  6  8  1  0  0  0
  8  9  1  0  0  0
  9 10  2  0  0  0
 10 11  1  0  0  0
 11 12  2  0  0  0
 12 13  1  0  0  0
 13 14  2  0  0  0
 14 15  1  0  0  0
 15 16  2  0  0  0
 16 17  1  0  0  0
 17 18  1  0  0  0
 18 19  1  0  0  0
 19 20  2  0  0  0
 19 21  1  0  0  0
 21 22  2  0  0  0
 22 23  1  0  0  0
 23 24  2  0  0  0
 24 25  1  0  0  0
 25 26  2  0  0  0
 26 27  1  0  0  0
 27 28  2  0  0  0
 28 29  1  0  0  0
 29 30  1  0  0  0
 30 31  2  0  0  0
  2 35  1  0  0  0
 35 36  1  0  0  0
  6  1  1  0  0  0
 31  8  1  0  0  0
 29  4  1  0  0  0
 14  9  1  0  0  0
 31 15  1  0  0  0
 21 16  1  0  0  0
 30 22  1  0  0  0
 28 23  1  0  0  0
 18 32  1  0  0  0
M  END
> <minimizedAffinity>
-4.00065

> <CNNscore>
0.5482116342

> <CNNaffinity>
5.3795509338

> <CNN_VS>
2.9491324425

> <CNNaffinity_variance>
0.1806999743

$$$$
[H]c1c([H])c([H])c2c(c1[H])c1c3c(c4c5c([H])c([H])c([H])c([H])c5n5c4c1n2[C@@]1(C([H])([H])[H])O[C@]5([H])C([H])([H])[C@@]([H])(OC([H])([H])[H])[C@@]1([H])OC([H])([H])[H])C(=O)N([H])C3([H])[H]


 36 43  0  0  0  0  0  0  0  0999 V2000
   40.6103   13.0899  -16.8762 C   0  0  0  0  0  0  0  0  0  0  0  0
   40.2425   12.0135  -17.8887 C   0  0  0  0  0  0  0  0  0  0  0  0
   38.7577   11.7786  -17.6952 C   0  0  0  0  0  0  0  0  0  0  0  0
   38.5668   11.2843  -16.3050 C   0  0  0  0  0  0  0  0  0  0  0  0
   39.6420   11.3434  -15.4882 O   0  0  0  0  0  0  0  0  0  0  0  0
   40.4311   12.4817  -15.4955 C   0  0  0  0  0  0  0  0  0  0  0  0
   41.8162   11.9648  -15.1525 C   0  0  0  0  0  0  0  0  0  0  0  0
   39.8596   13.4449  -14.6076 N   0  0  0  0  0  0  0  0  0  0  0  0
   40.5533   14.3851  -13.8925 C   0  0  0  0  0  0  0  0  0  0  0  0
   41.8898   14.7038  -13.8128 C   0  0  0  0  0  0  0  0  0  0  0  0
   42.3048   15.7453  -12.9847 C   0  0  0  0  0  0  0  0  0  0  0  0
   41.3988   16.4692  -12.2389 C   0  0  0  0  0  0  0  0  0  0  0  0
   40.0665   16.1278  -12.3402 C   0  0  0  0  0  0  0  0  0  0  0  0
   39.6199   15.0989  -13.1529 C   0  0  0  0  0  0  0  0  0  0  0  0
   38.3840   14.5812  -13.4368 C   0  0  0  0  0  0  0  0  0  0  0  0
   37.1005   14.9074  -13.0079 C   0  0  0  0  0  0  0  0  0  0  0  0
   36.7140   15.9636  -12.0585 C   0  0  0  0  0  0  0  0  0  0  0  0
   35.2831   15.8648  -11.9550 N   0  0  0  0  0  0  0  0  0  0  0  0
   34.8060   14.8128  -12.8180 C   0  0  0  0  0  0  0  0  0  0  0  0
   33.5886   14.5442  -12.9083 O   0  0  0  0  0  0  0  0  0  0  0  0
   35.9804   14.2429  -13.4554 C   0  0  0  0  0  0  0  0  0  0  0  0
   36.1212   13.2047  -14.3710 C   0  0  0  0  0  0  0  0  0  0  0  0
   35.2906   12.3453  -15.0339 C   0  0  0  0  0  0  0  0  0  0  0  0
   33.9343   12.1929  -15.0189 C   0  0  0  0  0  0  0  0  0  0  0  0
   33.3718   11.1963  -15.8325 C   0  0  0  0  0  0  0  0  0  0  0  0
   34.1875   10.4129  -16.6101 C   0  0  0  0  0  0  0  0  0  0  0  0
   35.5568   10.5603  -16.6309 C   0  0  0  0  0  0  0  0  0  0  0  0
   36.1120   11.5575  -15.8159 C   0  0  0  0  0  0  0  0  0  0  0  0
   37.3865   11.8941  -15.6603 N   0  0  0  0  0  0  0  0  0  0  0  0
   37.4012   12.8982  -14.7810 C   0  0  0  0  0  0  0  0  0  0  0  0
   38.5357   13.5560  -14.3397 C   0  0  0  0  0  0  0  0  0  0  0  0
   34.6243   16.4412  -11.3595 H   0  0  0  0  0  0  0  0  0  0  0  0
   40.4503   15.1188  -17.9609 C   0  0  0  0  0  0  0  0  0  0  0  0
   39.8775   14.2438  -17.0624 O   0  0  0  0  0  0  0  0  0  0  0  0
   40.5816   12.3418  -19.1729 O   0  0  0  0  0  0  0  0  0  0  0  0
   39.6281   11.8488  -20.0468 C   0  0  0  0  0  0  0  0  0  0  0  0
 33 34  1  0  0  0
 34  1  1  0  0  0
  1  2  1  0  0  0
  2  3  1  0  0  0
  3  4  1  0  0  0
  4  5  1  0  0  0
  5  6  1  0  0  0
  6  7  1  0  0  0
  6  8  1  0  0  0
  8  9  1  0  0  0
  9 10  2  0  0  0
 10 11  1  0  0  0
 11 12  2  0  0  0
 12 13  1  0  0  0
 13 14  2  0  0  0
 14 15  1  0  0  0
 15 16  2  0  0  0
 16 17  1  0  0  0
 17 18  1  0  0  0
 18 19  1  0  0  0
 19 20  2  0  0  0
 19 21  1  0  0  0
 21 22  2  0  0  0
 22 23  1  0  0  0
 23 24  2  0  0  0
 24 25  1  0  0  0
 25 26  2  0  0  0
 26 27  1  0  0  0
 27 28  2  0  0  0
 28 29  1  0  0  0
 29 30  1  0  0  0
 30 31  2  0  0  0
  2 35  1  0  0  0
 35 36  1  0  0  0
  6  1  1  0  0  0
 31  8  1  0  0  0
 29  4  1  0  0  0
 14  9  1  0  0  0
 31 15  1  0  0  0
 21 16  1  0  0  0
 30 22  1  0  0  0
 28 23  1  0  0  0
 18 32  1  0  0  0
M  END
> <minimizedAffinity>
-5.06040

> <CNNscore>
0.5089159012

> <CNNaffinity>
6.9262404442

> <CNN_VS>
3.5248739719

> <CNNaffinity_variance>
0.0709080622

$$$$
[H]c1c([H])c([H])c2c(c1[H])c1c3c(c4c5c([H])c([H])c([H])c([H])c5n5c4c1n2[C@@]1(C([H])([H])[H])O[C@]5([H])C([H])([H])[C@@]([H])(OC([H])([H])[H])[C@@]1([H])OC([H])([H])[H])C(=O)N([H])C3([H])[H]


 36 43  0  0  0  0  0  0  0  0999 V2000
   40.8511   13.8511  -15.9106 C   0  0  0  0  0  0  0  0  0  0  0  0
   40.0388   12.9130  -16.7933 C   0  0  0  0  0  0  0  0  0  0  0  0
   38.6326   12.9570  -16.2292 C   0  0  0  0  0  0  0  0  0  0  0  0
   38.7007   12.4441  -14.8344 C   0  0  0  0  0  0  0  0  0  0  0  0
   39.9353   12.2588  -14.3167 O   0  0  0  0  0  0  0  0  0  0  0  0
   40.9055   13.2247  -14.5275 C   0  0  0  0  0  0  0  0  0  0  0  0
   42.2030   12.4375  -14.5447 C   0  0  0  0  0  0  0  0  0  0  0  0
   40.7737   14.2369  -13.5270 N   0  0  0  0  0  0  0  0  0  0  0  0
   41.7944   14.9930  -13.0142 C   0  0  0  0  0  0  0  0  0  0  0  0
   43.1443   15.0468  -13.2766 C   0  0  0  0  0  0  0  0  0  0  0  0
   43.9486   15.9503  -12.5842 C   0  0  0  0  0  0  0  0  0  0  0  0
   43.4172   16.7982  -11.6357 C   0  0  0  0  0  0  0  0  0  0  0  0
   42.0614   16.7225  -11.3951 C   0  0  0  0  0  0  0  0  0  0  0  0
   41.2334   15.8367  -12.0647 C   0  0  0  0  0  0  0  0  0  0  0  0
   39.8890   15.5781  -12.0245 C   0  0  0  0  0  0  0  0  0  0  0  0
   38.8426   16.1230  -11.2856 C   0  0  0  0  0  0  0  0  0  0  0  0
   38.9199   17.1882  -10.2729 C   0  0  0  0  0  0  0  0  0  0  0  0
   37.5693   17.3596   -9.8101 N   0  0  0  0  0  0  0  0  0  0  0  0
   36.6953   16.4593  -10.5205 C   0  0  0  0  0  0  0  0  0  0  0  0
   35.4655   16.4325  -10.2986 O   0  0  0  0  0  0  0  0  0  0  0  0
   37.5384   15.7061  -11.4326 C   0  0  0  0  0  0  0  0  0  0  0  0
   37.2401   14.7039  -12.3506 C   0  0  0  0  0  0  0  0  0  0  0  0
   36.1185   14.0506  -12.7785 C   0  0  0  0  0  0  0  0  0  0  0  0
   34.8060   14.1593  -12.4200 C   0  0  0  0  0  0  0  0  0  0  0  0
   33.8742   13.3273  -13.0613 C   0  0  0  0  0  0  0  0  0  0  0  0
   34.3003   12.4396  -14.0174 C   0  0  0  0  0  0  0  0  0  0  0  0
   35.6227   12.3238  -14.3849 C   0  0  0  0  0  0  0  0  0  0  0  0
   36.5480   13.1577  -13.7404 C   0  0  0  0  0  0  0  0  0  0  0  0
   37.8616   13.2373  -13.9139 N   0  0  0  0  0  0  0  0  0  0  0  0
   38.2917   14.1781  -13.0703 C   0  0  0  0  0  0  0  0  0  0  0  0
   39.6067   14.5860  -12.9329 C   0  0  0  0  0  0  0  0  0  0  0  0
   37.2059   18.0228   -9.0691 H   0  0  0  0  0  0  0  0  0  0  0  0
   38.9599   15.1691  -15.9787 C   0  0  0  0  0  0  0  0  0  0  0  0
   40.3364   15.1310  -15.9090 O   0  0  0  0  0  0  0  0  0  0  0  0
   40.1052   13.2299  -18.1226 O   0  0  0  0  0  0  0  0  0  0  0  0
   40.9042   14.3469  -18.2957 C   0  0  0  0  0  0  0  0  0  0  0  0
 33 34  1  0  0  0
 34  1  1  0  0  0
  1  2  1  0  0  0
  2  3  1  0  0  0
  3  4  1  0  0  0
  4  5  1  0  0  0
  5  6  1  0  0  0
  6  7  1  0  0  0
  6  8  1  0  0  0
  8  9  1  0  0  0
  9 10  2  0  0  0
 10 11  1  0  0  0
 11 12  2  0  0  0
 12 13  1  0  0  0
 13 14  2  0  0  0
 14 15  1  0  0  0
 15 16  2  0  0  0
 16 17  1  0  0  0
 17 18  1  0  0  0
 18 19  1  0  0  0
 19 20  2  0  0  0
 19 21  1  0  0  0
 21 22  2  0  0  0
 22 23  1  0  0  0
 23 24  2  0  0  0
 24 25  1  0  0  0
 25 26  2  0  0  0
 26 27  1  0  0  0
 27 28  2  0  0  0
 28 29  1  0  0  0
 29 30  1  0  0  0
 30 31  2  0  0  0
  2 35  1  0  0  0
 35 36  1  0  0  0
  6  1  1  0  0  0
 31  8  1  0  0  0
 29  4  1  0  0  0
 14  9  1  0  0  0
 31 15  1  0  0  0
 21 16  1  0  0  0
 30 22  1  0  0  0
 28 23  1  0  0  0
 18 32  1  0  0  0
M  END
> <minimizedAffinity>
-0.97308

> <CNNscore>
0.2756025791

> <CNNaffinity>
6.2596564293

> <CNN_VS>
1.7251774073

> <CNNaffinity_variance>
0.2613603473

$$$$
[H]c1c([H])c([H])c2c(c1[H])c1c3c(c4c5c([H])c([H])c([H])c([H])c5n5c4c1n2[C@@]1(C([H])([H])[H])O[C@]5([H])C([H])([H])[C@@]([H])(OC([H])([H])[H])[C@@]1([H])OC([H])([H])[H])C(=O)N([H])C3([H])[H]


 36 43  0  0  0  0  0  0  0  0999 V2000
   45.3510   14.1880   -8.9717 C   0  0  0  0  0  0  0  0  0  0  0  0
   45.1180   15.5852   -8.4128 C   0  0  0  0  0  0  0  0  0  0  0  0
   45.6986   16.5277   -9.4482 C   0  0  0  0  0  0  0  0  0  0  0  0
   47.1536   16.2331   -9.5461 C   0  0  0  0  0  0  0  0  0  0  0  0
   47.5926   15.1286   -8.9027 O   0  0  0  0  0  0  0  0  0  0  0  0
   46.8531   13.9606   -8.9894 C   0  0  0  0  0  0  0  0  0  0  0  0
   47.1223   13.2624   -7.6690 C   0  0  0  0  0  0  0  0  0  0  0  0
   47.2281   13.2644  -10.1799 N   0  0  0  0  0  0  0  0  0  0  0  0
   47.2143   11.9052  -10.3503 C   0  0  0  0  0  0  0  0  0  0  0  0
   46.8507   10.8615   -9.5302 C   0  0  0  0  0  0  0  0  0  0  0  0
   46.9369    9.5514   -9.9979 C   0  0  0  0  0  0  0  0  0  0  0  0
   47.3808    9.2762  -11.2739 C   0  0  0  0  0  0  0  0  0  0  0  0
   47.7368   10.3422  -12.0730 C   0  0  0  0  0  0  0  0  0  0  0  0
   47.6635   11.6560  -11.6403 C   0  0  0  0  0  0  0  0  0  0  0  0
   47.9357   12.8647  -12.2241 C   0  0  0  0  0  0  0  0  0  0  0  0
   48.3903   13.2226  -13.4902 C   0  0  0  0  0  0  0  0  0  0  0  0
   48.7327   12.3262  -14.6062 C   0  0  0  0  0  0  0  0  0  0  0  0
   49.1582   13.1992  -15.6668 N   0  0  0  0  0  0  0  0  0  0  0  0
   49.0605   14.5712  -15.2343 C   0  0  0  0  0  0  0  0  0  0  0  0
   49.3659   15.5178  -15.9913 O   0  0  0  0  0  0  0  0  0  0  0  0
   48.5758   14.5346  -13.8654 C   0  0  0  0  0  0  0  0  0  0  0  0
   48.3022   15.5513  -12.9557 C   0  0  0  0  0  0  0  0  0  0  0  0
   48.3469   16.9173  -12.9495 C   0  0  0  0  0  0  0  0  0  0  0  0
   48.7100   17.8231  -13.9038 C   0  0  0  0  0  0  0  0  0  0  0  0
   48.6431   19.1877  -13.5799 C   0  0  0  0  0  0  0  0  0  0  0  0
   48.2208   19.5701  -12.3312 C   0  0  0  0  0  0  0  0  0  0  0  0
   47.8526   18.6625  -11.3628 C   0  0  0  0  0  0  0  0  0  0  0  0
   47.9219   17.3012  -11.6930 C   0  0  0  0  0  0  0  0  0  0  0  0
   47.6255   16.2453  -10.9453 N   0  0  0  0  0  0  0  0  0  0  0  0
   47.8543   15.1738  -11.7078 C   0  0  0  0  0  0  0  0  0  0  0  0
   47.6642   13.8604  -11.3163 C   0  0  0  0  0  0  0  0  0  0  0  0
   49.5004   12.9414  -16.6350 H   0  0  0  0  0  0  0  0  0  0  0  0
   43.7048   13.1359  -10.1972 C   0  0  0  0  0  0  0  0  0  0  0  0
   44.7606   14.0227  -10.2076 O   0  0  0  0  0  0  0  0  0  0  0  0
   43.8058   15.8371   -8.1185 O   0  0  0  0  0  0  0  0  0  0  0  0
   43.6927   17.0816   -7.5231 C   0  0  0  0  0  0  0  0  0  0  0  0
 33 34  1  0  0  0
 34  1  1  0  0  0
  1  2  1  0  0  0
  2  3  1  0  0  0
  3  4  1  0  0  0
  4  5  1  0  0  0
  5  6  1  0  0  0
  6  7  1  0  0  0
  6  8  1  0  0  0
  8  9  1  0  0  0
  9 10  2  0  0  0
 10 11  1  0  0  0
 11 12  2  0  0  0
 12 13  1  0  0  0
 13 14  2  0  0  0
 14 15  1  0  0  0
 15 16  2  0  0  0
 16 17  1  0  0  0
 17 18  1  0  0  0
 18 19  1  0  0  0
 19 20  2  0  0  0
 19 21  1  0  0  0
 21 22  2  0  0  0
 22 23  1  0  0  0
 23 24  2  0  0  0
 24 25  1  0  0  0
 25 26  2  0  0  0
 26 27  1  0  0  0
 27 28  2  0  0  0
 28 29  1  0  0  0
 29 30  1  0  0  0
 30 31  2  0  0  0
  2 35  1  0  0  0
 35 36  1  0  0  0
  6  1  1  0  0  0
 31  8  1  0  0  0
 29  4  1  0  0  0
 14  9  1  0  0  0
 31 15  1  0  0  0
 21 16  1  0  0  0
 30 22  1  0  0  0
 28 23  1  0  0  0
 18 32  1  0  0  0
M  END
> <minimizedAffinity>
-4.33785

> <CNNscore>
0.2607107460

> <CNNaffinity>
5.3106441498

> <CNN_VS>
1.3845419884

> <CNNaffinity_variance>
0.0437854044

$$$$
[H]c1c([H])c([H])c2c(c1[H])c1c3c(c4c5c([H])c([H])c([H])c([H])c5n5c4c1n2[C@@]1(C([H])([H])[H])O[C@]5([H])C([H])([H])[C@@]([H])(OC([H])([H])[H])[C@@]1([H])OC([H])([H])[H])C(=O)N([H])C3([H])[H]


 36 43  0  0  0  0  0  0  0  0999 V2000
   35.5048   14.1040  -13.5144 C   0  0  0  0  0  0  0  0  0  0  0  0
   35.4507   14.9453  -12.2463 C   0  0  0  0  0  0  0  0  0  0  0  0
   36.8710   15.4292  -12.0313 C   0  0  0  0  0  0  0  0  0  0  0  0
   37.7217   14.2252  -11.8314 C   0  0  0  0  0  0  0  0  0  0  0  0
   37.1440   13.0281  -12.0758 O   0  0  0  0  0  0  0  0  0  0  0  0
   36.3502   12.8811  -13.2014 C   0  0  0  0  0  0  0  0  0  0  0  0
   35.3274   11.8380  -12.7898 C   0  0  0  0  0  0  0  0  0  0  0  0
   37.1857   12.5658  -14.3173 N   0  0  0  0  0  0  0  0  0  0  0  0
   36.8257   11.8025  -15.3963 C   0  0  0  0  0  0  0  0  0  0  0  0
   35.6558   11.1682  -15.7471 C   0  0  0  0  0  0  0  0  0  0  0  0
   35.5858   10.4574  -16.9439 C   0  0  0  0  0  0  0  0  0  0  0  0
   36.6709   10.3758  -17.7907 C   0  0  0  0  0  0  0  0  0  0  0  0
   37.8291   11.0225  -17.4134 C   0  0  0  0  0  0  0  0  0  0  0  0
   37.9330   11.7373  -16.2315 C   0  0  0  0  0  0  0  0  0  0  0  0
   38.9362   12.4628  -15.6456 C   0  0  0  0  0  0  0  0  0  0  0  0
   40.2411   12.7560  -16.0316 C   0  0  0  0  0  0  0  0  0  0  0  0
   40.9339   12.3186  -17.2543 C   0  0  0  0  0  0  0  0  0  0  0  0
   42.2537   12.8808  -17.1548 N   0  0  0  0  0  0  0  0  0  0  0  0
   42.3633   13.6489  -15.9395 C   0  0  0  0  0  0  0  0  0  0  0  0
   43.4190   14.2461  -15.6375 O   0  0  0  0  0  0  0  0  0  0  0  0
   41.0786   13.5405  -15.2703 C   0  0  0  0  0  0  0  0  0  0  0  0
   40.6168   14.0672  -14.0680 C   0  0  0  0  0  0  0  0  0  0  0  0
   41.1152   14.8648  -13.0764 C   0  0  0  0  0  0  0  0  0  0  0  0
   42.3327   15.4583  -12.9075 C   0  0  0  0  0  0  0  0  0  0  0  0
   42.5359   16.2344  -11.7551 C   0  0  0  0  0  0  0  0  0  0  0  0
   41.5208   16.3743  -10.8420 C   0  0  0  0  0  0  0  0  0  0  0  0
   40.2896   15.7788  -11.0050 C   0  0  0  0  0  0  0  0  0  0  0  0
   40.0934   15.0050  -12.1581 C   0  0  0  0  0  0  0  0  0  0  0  0
   39.0117   14.3378  -12.5410 N   0  0  0  0  0  0  0  0  0  0  0  0
   39.3221   13.7631  -13.7051 C   0  0  0  0  0  0  0  0  0  0  0  0
   38.4696   12.9758  -14.4589 C   0  0  0  0  0  0  0  0  0  0  0  0
   43.0632   12.7852  -17.8305 H   0  0  0  0  0  0  0  0  0  0  0  0
   35.0714   14.9015  -15.6345 C   0  0  0  0  0  0  0  0  0  0  0  0
   35.9714   14.8272  -14.5926 O   0  0  0  0  0  0  0  0  0  0  0  0
   34.5316   15.9569  -12.3082 O   0  0  0  0  0  0  0  0  0  0  0  0
   33.2715   15.4590  -12.0248 C   0  0  0  0  0  0  0  0  0  0  0  0
 33 34  1  0  0  0
 34  1  1  0  0  0
  1  2  1  0  0  0
  2  3  1  0  0  0
  3  4  1  0  0  0
  4  5  1  0  0  0
  5  6  1  0  0  0
  6  7  1  0  0  0
  6  8  1  0  0  0
  8  9  1  0  0  0
  9 10  2  0  0  0
 10 11  1  0  0  0
 11 12  2  0  0  0
 12 13  1  0  0  0
 13 14  2  0  0  0
 14 15  1  0  0  0
 15 16  2  0  0  0
 16 17  1  0  0  0
 17 18  1  0  0  0
 18 19  1  0  0  0
 19 20  2  0  0  0
 19 21  1  0  0  0
 21 22  2  0  0  0
 22 23  1  0  0  0
 23 24  2  0  0  0
 24 25  1  0  0  0
 25 26  2  0  0  0
 26 27  1  0  0  0
 27 28  2  0  0  0
 28 29  1  0  0  0
 29 30  1  0  0  0
 30 31  2  0  0  0
  2 35  1  0  0  0
 35 36  1  0  0  0
  6  1  1  0  0  0
 31  8  1  0  0  0
 29  4  1  0  0  0
 14  9  1  0  0  0
 31 15  1  0  0  0
 21 16  1  0  0  0
 30 22  1  0  0  0
 28 23  1  0  0  0
 18 32  1  0  0  0
M  END
> <minimizedAffinity>
-7.50729

> <CNNscore>
0.2557626069

> <CNNaffinity>
6.7454757690

> <CNN_VS>
1.7252404690

> <CNNaffinity_variance>
0.1190866679

$$$$
[H]c1c([H])c([H])c2c(c1[H])c1c3c(c4c5c([H])c([H])c([H])c([H])c5n5c4c1n2[C@@]1(C([H])([H])[H])O[C@]5([H])C([H])([H])[C@@]([H])(OC([H])([H])[H])[C@@]1([H])OC([H])([H])[H])C(=O)N([H])C3([H])[H]


 36 43  0  0  0  0  0  0  0  0999 V2000
   38.3289   15.1229  -12.5945 C   0  0  0  0  0  0  0  0  0  0  0  0
   39.7918   14.8340  -12.9035 C   0  0  0  0  0  0  0  0  0  0  0  0
   39.7679   13.9144  -14.1082 C   0  0  0  0  0  0  0  0  0  0  0  0
   39.0581   12.6720  -13.7006 C   0  0  0  0  0  0  0  0  0  0  0  0
   38.4372   12.6951  -12.5004 O   0  0  0  0  0  0  0  0  0  0  0  0
   37.7025   13.8140  -12.1442 C   0  0  0  0  0  0  0  0  0  0  0  0
   37.8262   13.8625  -10.6323 C   0  0  0  0  0  0  0  0  0  0  0  0
   36.3847   13.6917  -12.6839 N   0  0  0  0  0  0  0  0  0  0  0  0
   35.2421   14.2063  -12.1305 C   0  0  0  0  0  0  0  0  0  0  0  0
   35.0030   14.9561  -11.0015 C   0  0  0  0  0  0  0  0  0  0  0  0
   33.7019   15.3513  -10.6958 C   0  0  0  0  0  0  0  0  0  0  0  0
   32.6414   15.0056  -11.5062 C   0  0  0  0  0  0  0  0  0  0  0  0
   32.9117   14.2550  -12.6311 C   0  0  0  0  0  0  0  0  0  0  0  0
   34.1923   13.8456  -12.9645 C   0  0  0  0  0  0  0  0  0  0  0  0
   34.7186   13.1257  -14.0041 C   0  0  0  0  0  0  0  0  0  0  0  0
   34.1500   12.5343  -15.1287 C   0  0  0  0  0  0  0  0  0  0  0  0
   32.7290   12.5190  -15.5117 C   0  0  0  0  0  0  0  0  0  0  0  0
   32.6826   11.7684  -16.7375 N   0  0  0  0  0  0  0  0  0  0  0  0
   34.0152   11.3599  -17.1066 C   0  0  0  0  0  0  0  0  0  0  0  0
   34.2317   10.7021  -18.1472 O   0  0  0  0  0  0  0  0  0  0  0  0
   34.8989   11.8623  -16.0690 C   0  0  0  0  0  0  0  0  0  0  0  0
   36.2768   11.7631  -15.9022 C   0  0  0  0  0  0  0  0  0  0  0  0
   37.3232   11.2126  -16.5877 C   0  0  0  0  0  0  0  0  0  0  0  0
   37.3803   10.5107  -17.7570 C   0  0  0  0  0  0  0  0  0  0  0  0
   38.6371   10.0733  -18.2049 C   0  0  0  0  0  0  0  0  0  0  0  0
   39.7588   10.3582  -17.4671 C   0  0  0  0  0  0  0  0  0  0  0  0
   39.7097   11.0658  -16.2864 C   0  0  0  0  0  0  0  0  0  0  0  0
   38.4512   11.4996  -15.8448 C   0  0  0  0  0  0  0  0  0  0  0  0
   38.1423   12.1897  -14.7538 N   0  0  0  0  0  0  0  0  0  0  0  0
   36.8180   12.3551  -14.7811 C   0  0  0  0  0  0  0  0  0  0  0  0
   36.0785   13.0324  -13.8277 C   0  0  0  0  0  0  0  0  0  0  0  0
   31.8385   11.5194  -17.3260 H   0  0  0  0  0  0  0  0  0  0  0  0
   38.3835   16.7316  -14.2461 C   0  0  0  0  0  0  0  0  0  0  0  0
   37.6794   15.6966  -13.6679 O   0  0  0  0  0  0  0  0  0  0  0  0
   40.5370   15.9655  -13.0938 O   0  0  0  0  0  0  0  0  0  0  0  0
   41.3868   15.7876  -14.1718 C   0  0  0  0  0  0  0  0  0  0  0  0
 33 34  1  0  0  0
 34  1  1  0  0  0
  1  2  1  0  0  0
  2  3  1  0  0  0
  3  4  1  0  0  0
  4  5  1  0  0  0
  5  6  1  0  0  0
  6  7  1  0  0  0
  6  8  1  0  0  0
  8  9  1  0  0  0
  9 10  2  0  0  0
 10 11  1  0  0  0
 11 12  2  0  0  0
 12 13  1  0  0  0
 13 14  2  0  0  0
 14 15  1  0  0  0
 15 16  2  0  0  0
 16 17  1  0  0  0
 17 18  1  0  0  0
 18 19  1  0  0  0
 19 20  2  0  0  0
 19 21  1  0  0  0
 21 22  2  0  0  0
 22 23  1  0  0  0
 23 24  2  0  0  0
 24 25  1  0  0  0
 25 26  2  0  0  0
 26 27  1  0  0  0
 27 28  2  0  0  0
 28 29  1  0  0  0
 29 30  1  0  0  0
 30 31  2  0  0  0
  2 35  1  0  0  0
 35 36  1  0  0  0
  6  1  1  0  0  0
 31  8  1  0  0  0
 29  4  1  0  0  0
 14  9  1  0  0  0
 31 15  1  0  0  0
 21 16  1  0  0  0
 30 22  1  0  0  0
 28 23  1  0  0  0
 18 32  1  0  0  0
M  END
> <minimizedAffinity>
10.22628

> <CNNscore>
0.2338572741

> <CNNaffinity>
6.2097930908

> <CNN_VS>
1.4522053003

> <CNNaffinity_variance>
0.1561186016

$$$$
[H]c1c([H])c([H])c2c(c1[H])c1c3c(c4c5c([H])c([H])c([H])c([H])c5n5c4c1n2[C@@]1(C([H])([H])[H])O[C@]5([H])C([H])([H])[C@@]([H])(OC([H])([H])[H])[C@@]1([H])OC([H])([H])[H])C(=O)N([H])C3([H])[H]


 36 43  0  0  0  0  0  0  0  0999 V2000
   43.4018   15.9381  -12.4525 C   0  0  0  0  0  0  0  0  0  0  0  0
   41.9671   15.5099  -12.1751 C   0  0  0  0  0  0  0  0  0  0  0  0
   41.6873   15.9592  -10.7548 C   0  0  0  0  0  0  0  0  0  0  0  0
   42.6366   15.2342   -9.8678 C   0  0  0  0  0  0  0  0  0  0  0  0
   43.6228   14.5386  -10.4759 O   0  0  0  0  0  0  0  0  0  0  0  0
   44.2959   15.1156  -11.5401 C   0  0  0  0  0  0  0  0  0  0  0  0
   44.6916   13.9317  -12.4035 C   0  0  0  0  0  0  0  0  0  0  0  0
   45.3544   15.9293  -11.0299 N   0  0  0  0  0  0  0  0  0  0  0  0
   46.5472   16.1766  -11.6566 C   0  0  0  0  0  0  0  0  0  0  0  0
   47.0665   15.7877  -12.8704 C   0  0  0  0  0  0  0  0  0  0  0  0
   48.3367   16.2181  -13.2497 C   0  0  0  0  0  0  0  0  0  0  0  0
   49.0895   17.0318  -12.4298 C   0  0  0  0  0  0  0  0  0  0  0  0
   48.5426   17.4062  -11.2204 C   0  0  0  0  0  0  0  0  0  0  0  0
   47.2838   16.9967  -10.8124 C   0  0  0  0  0  0  0  0  0  0  0  0
   46.5238   17.2317   -9.6975 C   0  0  0  0  0  0  0  0  0  0  0  0
   46.7400   17.9847   -8.5468 C   0  0  0  0  0  0  0  0  0  0  0  0
   47.9355   18.7706   -8.2013 C   0  0  0  0  0  0  0  0  0  0  0  0
   47.6493   19.3339   -6.9095 N   0  0  0  0  0  0  0  0  0  0  0  0
   46.3297   18.9342   -6.4877 C   0  0  0  0  0  0  0  0  0  0  0  0
   45.8507   19.3116   -5.3966 O   0  0  0  0  0  0  0  0  0  0  0  0
   45.8007   18.0905   -7.5453 C   0  0  0  0  0  0  0  0  0  0  0  0
   44.5851   17.4258   -7.6747 C   0  0  0  0  0  0  0  0  0  0  0  0
   43.4411   17.2951   -6.9385 C   0  0  0  0  0  0  0  0  0  0  0  0
   43.0720   17.8044   -5.7271 C   0  0  0  0  0  0  0  0  0  0  0  0
   41.7995   17.4767   -5.2320 C   0  0  0  0  0  0  0  0  0  0  0  0
   40.9721   16.6653   -5.9674 C   0  0  0  0  0  0  0  0  0  0  0  0
   41.3370   16.1475   -7.1904 C   0  0  0  0  0  0  0  0  0  0  0  0
   42.6093   16.4787   -7.6790 C   0  0  0  0  0  0  0  0  0  0  0  0
   43.1878   16.1119   -8.8159 N   0  0  0  0  0  0  0  0  0  0  0  0
   44.3932   16.6854   -8.8216 C   0  0  0  0  0  0  0  0  0  0  0  0
   45.3275   16.5690   -9.8355 C   0  0  0  0  0  0  0  0  0  0  0  0
   48.2647   19.9518   -6.3092 H   0  0  0  0  0  0  0  0  0  0  0  0
   44.0012   17.9305  -13.4474 C   0  0  0  0  0  0  0  0  0  0  0  0
   43.5719   17.2986  -12.2996 O   0  0  0  0  0  0  0  0  0  0  0  0
   41.0723   15.9959  -13.0889 O   0  0  0  0  0  0  0  0  0  0  0  0
   39.8163   15.4730  -12.8343 C   0  0  0  0  0  0  0  0  0  0  0  0
 33 34  1  0  0  0
 34  1  1  0  0  0
  1  2  1  0  0  0
  2  3  1  0  0  0
  3  4  1  0  0  0
  4  5  1  0  0  0
  5  6  1  0  0  0
  6  7  1  0  0  0
  6  8  1  0  0  0
  8  9  1  0  0  0
  9 10  2  0  0  0
 10 11  1  0  0  0
 11 12  2  0  0  0
 12 13  1  0  0  0
 13 14  2  0  0  0
 14 15  1  0  0  0
 15 16  2  0  0  0
 16 17  1  0  0  0
 17 18  1  0  0  0
 18 19  1  0  0  0
 19 20  2  0  0  0
 19 21  1  0  0  0
 21 22  2  0  0  0
 22 23  1  0  0  0
 23 24  2  0  0  0
 24 25  1  0  0  0
 25 26  2  0  0  0
 26 27  1  0  0  0
 27 28  2  0  0  0
 28 29  1  0  0  0
 29 30  1  0  0  0
 30 31  2  0  0  0
  2 35  1  0  0  0
 35 36  1  0  0  0
  6  1  1  0  0  0
 31  8  1  0  0  0
 29  4  1  0  0  0
 14  9  1  0  0  0
 31 15  1  0  0  0
 21 16  1  0  0  0
 30 22  1  0  0  0
 28 23  1  0  0  0
 18 32  1  0  0  0
M  END
> <minimizedAffinity>
-5.23030

> <CNNscore>
0.1515147686

> <CNNaffinity>
5.0110273361

> <CNN_VS>
0.7592446208

> <CNNaffinity_variance>
0.3007631898

$$$$
[H]c1c([H])c([H])c2c(c1[H])c1c3c(c4c5c([H])c([H])c([H])c([H])c5n5c4c1n2[C@@]1(C([H])([H])[H])O[C@]5([H])C([H])([H])[C@@]([H])(OC([H])([H])[H])[C@@]1([H])OC([H])([H])[H])C(=O)N([H])C3([H])[H]


 36 43  0  0  0  0  0  0  0  0999 V2000
   46.0641   15.5178  -14.1869 C   0  0  0  0  0  0  0  0  0  0  0  0
   45.6260   14.2535  -14.9139 C   0  0  0  0  0  0  0  0  0  0  0  0
   45.7741   13.1400  -13.8962 C   0  0  0  0  0  0  0  0  0  0  0  0
   47.2139   13.0668  -13.5290 C   0  0  0  0  0  0  0  0  0  0  0  0
   48.0048   14.0672  -13.9765 O   0  0  0  0  0  0  0  0  0  0  0  0
   47.5486   15.3727  -13.8973 C   0  0  0  0  0  0  0  0  0  0  0  0
   48.2097   16.0600  -15.0779 C   0  0  0  0  0  0  0  0  0  0  0  0
   47.8455   15.8870  -12.5973 N   0  0  0  0  0  0  0  0  0  0  0  0
   48.1110   17.1968  -12.2962 C   0  0  0  0  0  0  0  0  0  0  0  0
   48.1537   18.3432  -13.0565 C   0  0  0  0  0  0  0  0  0  0  0  0
   48.4486   19.5640  -12.4521 C   0  0  0  0  0  0  0  0  0  0  0  0
   48.6994   19.6489  -11.0990 C   0  0  0  0  0  0  0  0  0  0  0  0
   48.6484   18.4839  -10.3627 C   0  0  0  0  0  0  0  0  0  0  0  0
   48.3585   17.2545  -10.9311 C   0  0  0  0  0  0  0  0  0  0  0  0
   48.2347   15.9841  -10.4344 C   0  0  0  0  0  0  0  0  0  0  0  0
   48.3530   15.4540   -9.1527 C   0  0  0  0  0  0  0  0  0  0  0  0
   48.6783   16.1744   -7.9111 C   0  0  0  0  0  0  0  0  0  0  0  0
   48.6893   15.1645   -6.8875 N   0  0  0  0  0  0  0  0  0  0  0  0
   48.3629   13.8845   -7.4656 C   0  0  0  0  0  0  0  0  0  0  0  0
   48.2984   12.8500   -6.7671 O   0  0  0  0  0  0  0  0  0  0  0  0
   48.1613   14.1167   -8.8853 C   0  0  0  0  0  0  0  0  0  0  0  0
   47.8362   13.2511   -9.9251 C   0  0  0  0  0  0  0  0  0  0  0  0
   47.5681   11.9178  -10.0606 C   0  0  0  0  0  0  0  0  0  0  0  0
   47.5317   10.8973   -9.1549 C   0  0  0  0  0  0  0  0  0  0  0  0
   47.2162    9.6108   -9.6206 C   0  0  0  0  0  0  0  0  0  0  0  0
   46.9564    9.4152  -10.9541 C   0  0  0  0  0  0  0  0  0  0  0  0
   46.9911   10.4395  -11.8742 C   0  0  0  0  0  0  0  0  0  0  0  0
   47.3069   11.7219  -11.4024 C   0  0  0  0  0  0  0  0  0  0  0  0
   47.4031   12.8596  -12.0792 N   0  0  0  0  0  0  0  0  0  0  0  0
   47.7253   13.7976  -11.1858 C   0  0  0  0  0  0  0  0  0  0  0  0
   47.9159   15.1383  -11.4698 C   0  0  0  0  0  0  0  0  0  0  0  0
   48.8960   15.2751   -5.8550 H   0  0  0  0  0  0  0  0  0  0  0  0
   44.5427   16.8933  -13.1326 C   0  0  0  0  0  0  0  0  0  0  0  0
   45.3087   15.7495  -13.0560 O   0  0  0  0  0  0  0  0  0  0  0  0
   44.3687   14.3449  -15.4458 O   0  0  0  0  0  0  0  0  0  0  0  0
   43.5897   13.2991  -14.9816 C   0  0  0  0  0  0  0  0  0  0  0  0
 33 34  1  0  0  0
 34  1  1  0  0  0
  1  2  1  0  0  0
  2  3  1  0  0  0
  3  4  1  0  0  0
  4  5  1  0  0  0
  5  6  1  0  0  0
  6  7  1  0  0  0
  6  8  1  0  0  0
  8  9  1  0  0  0
  9 10  2  0  0  0
 10 11  1  0  0  0
 11 12  2  0  0  0
 12 13  1  0  0  0
 13 14  2  0  0  0
 14 15  1  0  0  0
 15 16  2  0  0  0
 16 17  1  0  0  0
 17 18  1  0  0  0
 18 19  1  0  0  0
 19 20  2  0  0  0
 19 21  1  0  0  0
 21 22  2  0  0  0
 22 23  1  0  0  0
 23 24  2  0  0  0
 24 25  1  0  0  0
 25 26  2  0  0  0
 26 27  1  0  0  0
 27 28  2  0  0  0
 28 29  1  0  0  0
 29 30  1  0  0  0
 30 31  2  0  0  0
  2 35  1  0  0  0
 35 36  1  0  0  0
  6  1  1  0  0  0
 31  8  1  0  0  0
 29  4  1  0  0  0
 14  9  1  0  0  0
 31 15  1  0  0  0
 21 16  1  0  0  0
 30 22  1  0  0  0
 28 23  1  0  0  0
 18 32  1  0  0  0
M  END
> <minimizedAffinity>
-4.81002

> <CNNscore>
0.1308018416

> <CNNaffinity>
4.9738912582

> <CNN_VS>
0.6505941153

> <CNNaffinity_variance>
0.0501422510

$$$$
[H]c1nc([H])c(Cl)c(N([H])C(=O)c2c([H])c([H])c(OC([H])([H])[H])n3nc(C(C([H])([H])[H])(C([H])([H])[H])C([H])([H])[H])c([H])c23)c1Cl


 27 29  0  0  0  0  0  0  0  0999 V2000
   39.0696   11.1980  -17.6843 C   0  0  0  0  0  0  0  0  0  0  0  0
   40.3974   11.3898  -17.9716 C   0  0  0  0  0  0  0  0  0  0  0  0
   41.1808   12.1658  -17.1545 C   0  0  0  0  0  0  0  0  0  0  0  0
   40.6741   12.7941  -15.9972 C   0  0  0  0  0  0  0  0  0  0  0  0
   39.3431   12.5722  -15.7545 C   0  0  0  0  0  0  0  0  0  0  0  0
   38.5010   13.0411  -14.7609 C   0  0  0  0  0  0  0  0  0  0  0  0
   37.2379   12.5381  -15.0012 C   0  0  0  0  0  0  0  0  0  0  0  0
   37.3325   11.7827  -16.1221 N   0  0  0  0  0  0  0  0  0  0  0  0
   38.5871   11.8092  -16.5659 N   0  0  0  0  0  0  0  0  0  0  0  0
   41.5794   13.5355  -15.1684 C   0  0  0  0  0  0  0  0  0  0  0  0
   42.4091   14.2845  -15.8298 O   0  0  0  0  0  0  0  0  0  0  0  0
   41.7054   13.5621  -13.7775 N   0  0  0  0  0  0  0  0  0  0  0  0
   41.0903   12.9684  -13.1881 H   0  0  0  0  0  0  0  0  0  0  0  0
   42.6816   14.3784  -13.1104 C   0  0  0  0  0  0  0  0  0  0  0  0
   42.2978   15.5555  -12.4978 C   0  0  0  0  0  0  0  0  0  0  0  0
   40.6284   16.0545  -12.5105 Cl  0  0  0  0  0  0  0  0  0  0  0  0
   43.2166   16.3800  -11.8402 C   0  0  0  0  0  0  0  0  0  0  0  0
   44.5087   16.0406  -11.7904 N   0  0  0  0  0  0  0  0  0  0  0  0
   44.9072   14.9103  -12.3778 C   0  0  0  0  0  0  0  0  0  0  0  0
   44.0202   14.0619  -13.0420 C   0  0  0  0  0  0  0  0  0  0  0  0
   44.5823   12.6012  -13.7975 Cl  0  0  0  0  0  0  0  0  0  0  0  0
   36.0162   12.7848  -14.2307 C   0  0  0  0  0  0  0  0  0  0  0  0
   36.0901   12.1632  -12.8434 C   0  0  0  0  0  0  0  0  0  0  0  0
   34.8252   12.1220  -14.9109 C   0  0  0  0  0  0  0  0  0  0  0  0
   35.7727   14.2503  -14.0631 C   0  0  0  0  0  0  0  0  0  0  0  0
   37.8507   10.6788  -19.7759 C   0  0  0  0  0  0  0  0  0  0  0  0
   38.2340   10.4309  -18.4712 O   0  0  0  0  0  0  0  0  0  0  0  0
 26 27  1  0  0  0
 27  1  1  0  0  0
  1  2  2  0  0  0
  2  3  1  0  0  0
  3  4  2  0  0  0
  4 10  1  0  0  0
 10 11  2  0  0  0
 10 12  1  0  0  0
 12 14  1  0  0  0
 14 15  2  0  0  0
 15 16  1  0  0  0
 15 17  1  0  0  0
 17 18  2  0  0  0
 18 19  1  0  0  0
 19 20  2  0  0  0
 20 21  1  0  0  0
  4  5  1  0  0  0
  5  6  2  0  0  0
  6  7  1  0  0  0
  7  8  2  0  0  0
  8  9  1  0  0  0
  7 22  1  0  0  0
 22 23  1  0  0  0
 22 24  1  0  0  0
 22 25  1  0  0  0
  9  1  1  0  0  0
 20 14  1  0  0  0
  9  5  1  0  0  0
 12 13  1  0  0  0
M  END
> <minimizedAffinity>
-7.47549

> <CNNscore>
0.2854345441

> <CNNaffinity>
6.9232187271

> <CNN_VS>
1.9761258364

> <CNNaffinity_variance>
0.0480418131

$$$$
[H]c1nc([H])c(Cl)c(N([H])C(=O)c2c([H])c([H])c(OC([H])([H])[H])n3nc(C(C([H])([H])[H])(C([H])([H])[H])C([H])([H])[H])c([H])c23)c1Cl


 27 29  0  0  0  0  0  0  0  0999 V2000
   39.0079   11.2541  -17.6173 C   0  0  0  0  0  0  0  0  0  0  0  0
   40.3326   11.4548  -17.9126 C   0  0  0  0  0  0  0  0  0  0  0  0
   41.1171   12.2317  -17.0973 C   0  0  0  0  0  0  0  0  0  0  0  0
   40.6146   12.8520  -15.9339 C   0  0  0  0  0  0  0  0  0  0  0  0
   39.2865   12.6213  -15.6834 C   0  0  0  0  0  0  0  0  0  0  0  0
   38.4484   13.0810  -14.6821 C   0  0  0  0  0  0  0  0  0  0  0  0
   37.1867   12.5718  -14.9161 C   0  0  0  0  0  0  0  0  0  0  0  0
   37.2781   11.8219  -16.0410 N   0  0  0  0  0  0  0  0  0  0  0  0
   38.5294   11.8576  -16.4931 N   0  0  0  0  0  0  0  0  0  0  0  0
   41.5211   13.5950  -15.1079 C   0  0  0  0  0  0  0  0  0  0  0  0
   42.3577   14.3335  -15.7724 O   0  0  0  0  0  0  0  0  0  0  0  0
   41.6421   13.6324  -13.7168 N   0  0  0  0  0  0  0  0  0  0  0  0
   41.0212   13.0473  -13.1248 H   0  0  0  0  0  0  0  0  0  0  0  0
   42.6205   14.4485  -13.0528 C   0  0  0  0  0  0  0  0  0  0  0  0
   43.9412   14.0464  -13.0062 C   0  0  0  0  0  0  0  0  0  0  0  0
   44.4390   12.5590  -13.7650 Cl  0  0  0  0  0  0  0  0  0  0  0  0
   44.9240   14.8099  -12.3680 C   0  0  0  0  0  0  0  0  0  0  0  0
   44.6002   15.9652  -11.7783 N   0  0  0  0  0  0  0  0  0  0  0  0
   43.3303   16.3751  -11.8049 C   0  0  0  0  0  0  0  0  0  0  0  0
   42.3225   15.6416  -12.4326 C   0  0  0  0  0  0  0  0  0  0  0  0
   40.6803   16.2100  -12.4397 Cl  0  0  0  0  0  0  0  0  0  0  0  0
   35.9687   12.8080  -14.1364 C   0  0  0  0  0  0  0  0  0  0  0  0
   36.0460   12.1606  -12.7611 C   0  0  0  0  0  0  0  0  0  0  0  0
   34.7730   12.1616  -14.8241 C   0  0  0  0  0  0  0  0  0  0  0  0
   35.7306   14.2709  -13.9408 C   0  0  0  0  0  0  0  0  0  0  0  0
   37.9222   10.6320  -19.7537 C   0  0  0  0  0  0  0  0  0  0  0  0
   38.1715   10.4856  -18.4020 O   0  0  0  0  0  0  0  0  0  0  0  0
 26 27  1  0  0  0
 27  1  1  0  0  0
  1  2  2  0  0  0
  2  3  1  0  0  0
  3  4  2  0  0  0
  4 10  1  0  0  0
 10 11  2  0  0  0
 10 12  1  0  0  0
 12 14  1  0  0  0
 14 15  2  0  0  0
 15 16  1  0  0  0
 15 17  1  0  0  0
 17 18  2  0  0  0
 18 19  1  0  0  0
 19 20  2  0  0  0
 20 21  1  0  0  0
  4  5  1  0  0  0
  5  6  2  0  0  0
  6  7  1  0  0  0
  7  8  2  0  0  0
  8  9  1  0  0  0
  7 22  1  0  0  0
 22 23  1  0  0  0
 22 24  1  0  0  0
 22 25  1  0  0  0
  9  1  1  0  0  0
 20 14  1  0  0  0
  9  5  1  0  0  0
 12 13  1  0  0  0
M  END
> <minimizedAffinity>
-7.35142

> <CNNscore>
0.2695018351

> <CNNaffinity>
6.9022626877

> <CNN_VS>
1.8601725101

> <CNNaffinity_variance>
0.0461749248

$$$$
[H]c1nc([H])c(Cl)c(N([H])C(=O)c2c([H])c([H])c(OC([H])([H])[H])n3nc(C(C([H])([H])[H])(C([H])([H])[H])C([H])([H])[H])c([H])c23)c1Cl


 27 29  0  0  0  0  0  0  0  0999 V2000
   44.6893   13.5358  -14.9981 C   0  0  0  0  0  0  0  0  0  0  0  0
   44.1428   12.9216  -16.0964 C   0  0  0  0  0  0  0  0  0  0  0  0
   42.7828   12.7729  -16.2054 C   0  0  0  0  0  0  0  0  0  0  0  0
   41.8908   13.2358  -15.2150 C   0  0  0  0  0  0  0  0  0  0  0  0
   42.4860   13.8411  -14.1383 C   0  0  0  0  0  0  0  0  0  0  0  0
   41.9551   14.3748  -12.9766 C   0  0  0  0  0  0  0  0  0  0  0  0
   43.0020   14.8307  -12.2006 C   0  0  0  0  0  0  0  0  0  0  0  0
   44.1362   14.5693  -12.8944 N   0  0  0  0  0  0  0  0  0  0  0  0
   43.8218   13.9788  -14.0450 N   0  0  0  0  0  0  0  0  0  0  0  0
   40.4821   13.0932  -15.4413 C   0  0  0  0  0  0  0  0  0  0  0  0
   39.9569   14.0599  -16.1315 O   0  0  0  0  0  0  0  0  0  0  0  0
   39.6039   12.0894  -15.0262 N   0  0  0  0  0  0  0  0  0  0  0  0
   39.9523   11.2990  -14.4498 H   0  0  0  0  0  0  0  0  0  0  0  0
   38.2048   12.1100  -15.3526 C   0  0  0  0  0  0  0  0  0  0  0  0
   37.2994   12.6875  -14.4837 C   0  0  0  0  0  0  0  0  0  0  0  0
   37.8424   13.4117  -12.9949 Cl  0  0  0  0  0  0  0  0  0  0  0  0
   35.9293   12.7261  -14.7623 C   0  0  0  0  0  0  0  0  0  0  0  0
   35.4585   12.1949  -15.8952 N   0  0  0  0  0  0  0  0  0  0  0  0
   36.3112   11.6268  -16.7504 C   0  0  0  0  0  0  0  0  0  0  0  0
   37.6844   11.5701  -16.5078 C   0  0  0  0  0  0  0  0  0  0  0  0
   38.7593   10.8166  -17.6468 Cl  0  0  0  0  0  0  0  0  0  0  0  0
   42.9283   15.4476  -10.8734 C   0  0  0  0  0  0  0  0  0  0  0  0
   41.6069   16.1728  -10.6620 C   0  0  0  0  0  0  0  0  0  0  0  0
   44.0058   16.5150  -10.7315 C   0  0  0  0  0  0  0  0  0  0  0  0
   43.0646   14.4212   -9.7950 C   0  0  0  0  0  0  0  0  0  0  0  0
   47.0648   13.0380  -15.4872 C   0  0  0  0  0  0  0  0  0  0  0  0
   46.0489   13.7101  -14.8338 O   0  0  0  0  0  0  0  0  0  0  0  0
 26 27  1  0  0  0
 27  1  1  0  0  0
  1  2  2  0  0  0
  2  3  1  0  0  0
  3  4  2  0  0  0
  4 10  1  0  0  0
 10 11  2  0  0  0
 10 12  1  0  0  0
 12 14  1  0  0  0
 14 15  2  0  0  0
 15 16  1  0  0  0
 15 17  1  0  0  0
 17 18  2  0  0  0
 18 19  1  0  0  0
 19 20  2  0  0  0
 20 21  1  0  0  0
  4  5  1  0  0  0
  5  6  2  0  0  0
  6  7  1  0  0  0
  7  8  2  0  0  0
  8  9  1  0  0  0
  7 22  1  0  0  0
 22 23  1  0  0  0
 22 24  1  0  0  0
 22 25  1  0  0  0
  9  1  1  0  0  0
 20 14  1  0  0  0
  9  5  1  0  0  0
 12 13  1  0  0  0
M  END
> <minimizedAffinity>
-6.79889

> <CNNscore>
0.2278797328

> <CNNaffinity>
6.5694570541

> <CNN_VS>
1.4970461130

> <CNNaffinity_variance>
0.1150597930

$$$$
[H]c1nc([H])c(Cl)c(N([H])C(=O)c2c([H])c([H])c(OC([H])([H])[H])n3nc(C(C([H])([H])[H])(C([H])([H])[H])C([H])([H])[H])c([H])c23)c1Cl


 27 29  0  0  0  0  0  0  0  0999 V2000
   41.5541   12.6055  -16.0404 C   0  0  0  0  0  0  0  0  0  0  0  0
   41.9156   13.5060  -15.0705 C   0  0  0  0  0  0  0  0  0  0  0  0
   40.9611   14.1065  -14.2883 C   0  0  0  0  0  0  0  0  0  0  0  0
   39.5843   13.8345  -14.4348 C   0  0  0  0  0  0  0  0  0  0  0  0
   39.2751   12.9292  -15.4169 C   0  0  0  0  0  0  0  0  0  0  0  0
   38.0592   12.4495  -15.8728 C   0  0  0  0  0  0  0  0  0  0  0  0
   38.3091   11.5756  -16.9119 C   0  0  0  0  0  0  0  0  0  0  0  0
   39.6546   11.5399  -17.0682 N   0  0  0  0  0  0  0  0  0  0  0  0
   40.2227   12.3491  -16.1770 N   0  0  0  0  0  0  0  0  0  0  0  0
   38.6626   14.4610  -13.5325 C   0  0  0  0  0  0  0  0  0  0  0  0
   37.9697   15.4209  -14.0665 O   0  0  0  0  0  0  0  0  0  0  0  0
   38.4122   14.2022  -12.1828 N   0  0  0  0  0  0  0  0  0  0  0  0
   38.9485   13.4644  -11.6864 H   0  0  0  0  0  0  0  0  0  0  0  0
   37.4369   14.9391  -11.4278 C   0  0  0  0  0  0  0  0  0  0  0  0
   36.1158   14.5355  -11.4226 C   0  0  0  0  0  0  0  0  0  0  0  0
   35.6204   13.1224  -12.3135 Cl  0  0  0  0  0  0  0  0  0  0  0  0
   35.1350   15.2261  -10.7033 C   0  0  0  0  0  0  0  0  0  0  0  0
   35.4610   16.3111   -9.9936 N   0  0  0  0  0  0  0  0  0  0  0  0
   36.7297   16.7253   -9.9848 C   0  0  0  0  0  0  0  0  0  0  0  0
   37.7359   16.0621  -10.6887 C   0  0  0  0  0  0  0  0  0  0  0  0
   39.3751   16.6383  -10.6535 Cl  0  0  0  0  0  0  0  0  0  0  0  0
   37.3295   10.8458  -17.7213 C   0  0  0  0  0  0  0  0  0  0  0  0
   37.2563    9.3772  -17.3280 C   0  0  0  0  0  0  0  0  0  0  0  0
   37.7492   10.8547  -19.1855 C   0  0  0  0  0  0  0  0  0  0  0  0
   35.9620   11.4296  -17.5663 C   0  0  0  0  0  0  0  0  0  0  0  0
   43.8453   11.9591  -16.7205 C   0  0  0  0  0  0  0  0  0  0  0  0
   42.4699   11.9738  -16.8578 O   0  0  0  0  0  0  0  0  0  0  0  0
 26 27  1  0  0  0
 27  1  1  0  0  0
  1  2  2  0  0  0
  2  3  1  0  0  0
  3  4  2  0  0  0
  4 10  1  0  0  0
 10 11  2  0  0  0
 10 12  1  0  0  0
 12 14  1  0  0  0
 14 15  2  0  0  0
 15 16  1  0  0  0
 15 17  1  0  0  0
 17 18  2  0  0  0
 18 19  1  0  0  0
 19 20  2  0  0  0
 20 21  1  0  0  0
  4  5  1  0  0  0
  5  6  2  0  0  0
  6  7  1  0  0  0
  7  8  2  0  0  0
  8  9  1  0  0  0
  7 22  1  0  0  0
 22 23  1  0  0  0
 22 24  1  0  0  0
 22 25  1  0  0  0
  9  1  1  0  0  0
 20 14  1  0  0  0
  9  5  1  0  0  0
 12 13  1  0  0  0
M  END
> <minimizedAffinity>
-7.22476

> <CNNscore>
0.2044033110

> <CNNaffinity>
6.5832681656

> <CNN_VS>
1.3456418514

> <CNNaffinity_variance>
0.1714341342

$$$$
[H]c1nc([H])c(Cl)c(N([H])C(=O)c2c([H])c([H])c(OC([H])([H])[H])n3nc(C(C([H])([H])[H])(C([H])([H])[H])C([H])([H])[H])c([H])c23)c1Cl


 27 29  0  0  0  0  0  0  0  0999 V2000
   42.3858   12.9186  -16.0732 C   0  0  0  0  0  0  0  0  0  0  0  0
   41.3642   12.2564  -16.7057 C   0  0  0  0  0  0  0  0  0  0  0  0
   40.0938   12.2798  -16.1870 C   0  0  0  0  0  0  0  0  0  0  0  0
   39.7754   12.9734  -15.0003 C   0  0  0  0  0  0  0  0  0  0  0  0
   40.8300   13.6178  -14.4066 C   0  0  0  0  0  0  0  0  0  0  0  0
   40.9150   14.3531  -13.2368 C   0  0  0  0  0  0  0  0  0  0  0  0
   42.2268   14.7538  -13.0804 C   0  0  0  0  0  0  0  0  0  0  0  0
   42.9078   14.2613  -14.1433 N   0  0  0  0  0  0  0  0  0  0  0  0
   42.0711   13.5849  -14.9269 N   0  0  0  0  0  0  0  0  0  0  0  0
   38.4092   12.9953  -14.5653 C   0  0  0  0  0  0  0  0  0  0  0  0
   38.1386   12.1366  -13.6292 O   0  0  0  0  0  0  0  0  0  0  0  0
   37.3416   13.7837  -15.0006 N   0  0  0  0  0  0  0  0  0  0  0  0
   37.4818   14.4739  -15.7637 H   0  0  0  0  0  0  0  0  0  0  0  0
   36.0235   13.6685  -14.4404 C   0  0  0  0  0  0  0  0  0  0  0  0
   35.1094   12.7939  -14.9949 C   0  0  0  0  0  0  0  0  0  0  0  0
   35.5471   11.8095  -16.3644 Cl  0  0  0  0  0  0  0  0  0  0  0  0
   33.8158   12.6536  -14.4818 C   0  0  0  0  0  0  0  0  0  0  0  0
   33.4296   13.3763  -13.4256 N   0  0  0  0  0  0  0  0  0  0  0  0
   34.2919   14.2322  -12.8731 C   0  0  0  0  0  0  0  0  0  0  0  0
   35.5906   14.3989  -13.3560 C   0  0  0  0  0  0  0  0  0  0  0  0
   36.6801   15.5282  -12.6090 Cl  0  0  0  0  0  0  0  0  0  0  0  0
   42.7990   15.5293  -11.9766 C   0  0  0  0  0  0  0  0  0  0  0  0
   43.5721   14.6450  -11.0086 C   0  0  0  0  0  0  0  0  0  0  0  0
   41.6873   16.1628  -11.1501 C   0  0  0  0  0  0  0  0  0  0  0  0
   43.7348   16.5786  -12.4848 C   0  0  0  0  0  0  0  0  0  0  0  0
   44.4569   11.8343  -16.8888 C   0  0  0  0  0  0  0  0  0  0  0  0
   43.6825   12.9271  -16.5471 O   0  0  0  0  0  0  0  0  0  0  0  0
 26 27  1  0  0  0
 27  1  1  0  0  0
  1  2  2  0  0  0
  2  3  1  0  0  0
  3  4  2  0  0  0
  4 10  1  0  0  0
 10 11  2  0  0  0
 10 12  1  0  0  0
 12 14  1  0  0  0
 14 15  2  0  0  0
 15 16  1  0  0  0
 15 17  1  0  0  0
 17 18  2  0  0  0
 18 19  1  0  0  0
 19 20  2  0  0  0
 20 21  1  0  0  0
  4  5  1  0  0  0
  5  6  2  0  0  0
  6  7  1  0  0  0
  7  8  2  0  0  0
  8  9  1  0  0  0
  7 22  1  0  0  0
 22 23  1  0  0  0
 22 24  1  0  0  0
 22 25  1  0  0  0
  9  1  1  0  0  0
 20 14  1  0  0  0
  9  5  1  0  0  0
 12 13  1  0  0  0
M  END
> <minimizedAffinity>
-7.39243

> <CNNscore>
0.1670941114

> <CNNaffinity>
6.6612234116

> <CNN_VS>
1.1130511761

> <CNNaffinity_variance>
0.0568620935

$$$$
[H]c1nc([H])c(Cl)c(N([H])C(=O)c2c([H])c([H])c(OC([H])([H])[H])n3nc(C(C([H])([H])[H])(C([H])([H])[H])C([H])([H])[H])c([H])c23)c1Cl


 27 29  0  0  0  0  0  0  0  0999 V2000
   41.0168   15.5334  -12.8586 C   0  0  0  0  0  0  0  0  0  0  0  0
   41.1589   14.6170  -13.8696 C   0  0  0  0  0  0  0  0  0  0  0  0
   40.1027   13.8244  -14.2437 C   0  0  0  0  0  0  0  0  0  0  0  0
   38.8385   13.9086  -13.6227 C   0  0  0  0  0  0  0  0  0  0  0  0
   38.7482   14.8382  -12.6189 C   0  0  0  0  0  0  0  0  0  0  0  0
   37.7066   15.1756  -11.7719 C   0  0  0  0  0  0  0  0  0  0  0  0
   38.1574   16.1586  -10.9137 C   0  0  0  0  0  0  0  0  0  0  0  0
   39.4482   16.3982  -11.2488 N   0  0  0  0  0  0  0  0  0  0  0  0
   39.7936   15.6078  -12.2626 N   0  0  0  0  0  0  0  0  0  0  0  0
   37.7750   13.0853  -14.1199 C   0  0  0  0  0  0  0  0  0  0  0  0
   37.6439   11.9553  -13.4930 O   0  0  0  0  0  0  0  0  0  0  0  0
   36.8810   13.3112  -15.1690 N   0  0  0  0  0  0  0  0  0  0  0  0
   36.9454   14.1835  -15.7286 H   0  0  0  0  0  0  0  0  0  0  0  0
   35.8642   12.3620  -15.5292 C   0  0  0  0  0  0  0  0  0  0  0  0
   36.1373   11.3715  -16.4523 C   0  0  0  0  0  0  0  0  0  0  0  0
   37.7178   11.2494  -17.1756 Cl  0  0  0  0  0  0  0  0  0  0  0  0
   35.1753   10.4299  -16.8324 C   0  0  0  0  0  0  0  0  0  0  0  0
   33.9491   10.4700  -16.3013 N   0  0  0  0  0  0  0  0  0  0  0  0
   33.6573   11.4196  -15.4100 C   0  0  0  0  0  0  0  0  0  0  0  0
   34.5905   12.3751  -15.0053 C   0  0  0  0  0  0  0  0  0  0  0  0
   34.1671   13.5975  -13.8448 Cl  0  0  0  0  0  0  0  0  0  0  0  0
   37.4164   16.8054   -9.8274 C   0  0  0  0  0  0  0  0  0  0  0  0
   37.7042   18.2985   -9.7605 C   0  0  0  0  0  0  0  0  0  0  0  0
   37.8617   16.2443   -8.4831 C   0  0  0  0  0  0  0  0  0  0  0  0
   35.9421   16.6310  -10.0037 C   0  0  0  0  0  0  0  0  0  0  0  0
   43.4011   16.0961  -12.5000 C   0  0  0  0  0  0  0  0  0  0  0  0
   42.0445   16.3541  -12.4388 O   0  0  0  0  0  0  0  0  0  0  0  0
 26 27  1  0  0  0
 27  1  1  0  0  0
  1  2  2  0  0  0
  2  3  1  0  0  0
  3  4  2  0  0  0
  4 10  1  0  0  0
 10 11  2  0  0  0
 10 12  1  0  0  0
 12 14  1  0  0  0
 14 15  2  0  0  0
 15 16  1  0  0  0
 15 17  1  0  0  0
 17 18  2  0  0  0
 18 19  1  0  0  0
 19 20  2  0  0  0
 20 21  1  0  0  0
  4  5  1  0  0  0
  5  6  2  0  0  0
  6  7  1  0  0  0
  7  8  2  0  0  0
  8  9  1  0  0  0
  7 22  1  0  0  0
 22 23  1  0  0  0
 22 24  1  0  0  0
 22 25  1  0  0  0
  9  1  1  0  0  0
 20 14  1  0  0  0
  9  5  1  0  0  0
 12 13  1  0  0  0
M  END
> <minimizedAffinity>
-8.04974

> <CNNscore>
0.1585962474

> <CNNaffinity>
6.4644880295

> <CNN_VS>
1.0252435207

> <CNNaffinity_variance>
0.1131545678

$$$$
[H]c1nc([H])c(Cl)c(N([H])C(=O)c2c([H])c([H])c(OC([H])([H])[H])n3nc(C(C([H])([H])[H])(C([H])([H])[H])C([H])([H])[H])c([H])c23)c1Cl


 27 29  0  0  0  0  0  0  0  0999 V2000
   41.1962   12.8964  -15.8312 C   0  0  0  0  0  0  0  0  0  0  0  0
   41.4296   13.7325  -14.7688 C   0  0  0  0  0  0  0  0  0  0  0  0
   40.3995   14.1187  -13.9482 C   0  0  0  0  0  0  0  0  0  0  0  0
   39.0720   13.6841  -14.1473 C   0  0  0  0  0  0  0  0  0  0  0  0
   38.8912   12.8515  -15.2215 C   0  0  0  0  0  0  0  0  0  0  0  0
   37.7523   12.2650  -15.7462 C   0  0  0  0  0  0  0  0  0  0  0  0
   38.1217   11.5428  -16.8633 C   0  0  0  0  0  0  0  0  0  0  0  0
   39.4608   11.7009  -16.9970 N   0  0  0  0  0  0  0  0  0  0  0  0
   39.9115   12.4822  -16.0181 N   0  0  0  0  0  0  0  0  0  0  0  0
   38.0704   14.0880  -13.2040 C   0  0  0  0  0  0  0  0  0  0  0  0
   37.6471   13.1278  -12.4387 O   0  0  0  0  0  0  0  0  0  0  0  0
   37.4847   15.3392  -12.9977 N   0  0  0  0  0  0  0  0  0  0  0  0
   37.7587   16.1460  -13.5913 H   0  0  0  0  0  0  0  0  0  0  0  0
   36.4845   15.5622  -11.9907 C   0  0  0  0  0  0  0  0  0  0  0  0
   36.8243   16.1771  -10.8013 C   0  0  0  0  0  0  0  0  0  0  0  0
   38.4601   16.7047  -10.5155 Cl  0  0  0  0  0  0  0  0  0  0  0  0
   35.8819   16.4104   -9.7945 C   0  0  0  0  0  0  0  0  0  0  0  0
   34.6099   16.0359   -9.9646 N   0  0  0  0  0  0  0  0  0  0  0  0
   34.2555   15.4358  -11.1028 C   0  0  0  0  0  0  0  0  0  0  0  0
   35.1666   15.1871  -12.1302 C   0  0  0  0  0  0  0  0  0  0  0  0
   34.6635   14.3986  -13.5949 Cl  0  0  0  0  0  0  0  0  0  0  0  0
   37.2522   10.7772  -17.7605 C   0  0  0  0  0  0  0  0  0  0  0  0
   37.6980   10.8931  -19.2112 C   0  0  0  0  0  0  0  0  0  0  0  0
   35.8368   11.3388  -17.7235 C   0  0  0  0  0  0  0  0  0  0  0  0
   37.2483    9.3269  -17.3975 C   0  0  0  0  0  0  0  0  0  0  0  0
   43.5193   12.2421  -16.3839 C   0  0  0  0  0  0  0  0  0  0  0  0
   42.1923   12.4780  -16.6907 O   0  0  0  0  0  0  0  0  0  0  0  0
 26 27  1  0  0  0
 27  1  1  0  0  0
  1  2  2  0  0  0
  2  3  1  0  0  0
  3  4  2  0  0  0
  4 10  1  0  0  0
 10 11  2  0  0  0
 10 12  1  0  0  0
 12 14  1  0  0  0
 14 15  2  0  0  0
 15 16  1  0  0  0
 15 17  1  0  0  0
 17 18  2  0  0  0
 18 19  1  0  0  0
 19 20  2  0  0  0
 20 21  1  0  0  0
  4  5  1  0  0  0
  5  6  2  0  0  0
  6  7  1  0  0  0
  7  8  2  0  0  0
  8  9  1  0  0  0
  7 22  1  0  0  0
 22 23  1  0  0  0
 22 24  1  0  0  0
 22 25  1  0  0  0
  9  1  1  0  0  0
 20 14  1  0  0  0
  9  5  1  0  0  0
 12 13  1  0  0  0
M  END
> <minimizedAffinity>
-7.04405

> <CNNscore>
0.1376933753

> <CNNaffinity>
6.6514334679

> <CNN_VS>
0.9158583283

> <CNNaffinity_variance>
0.3366575539

$$$$
[H]c1nc([H])c(Cl)c(N([H])C(=O)c2c([H])c([H])c(OC([H])([H])[H])n3nc(C(C([H])([H])[H])(C([H])([H])[H])C([H])([H])[H])c([H])c23)c1Cl


 27 29  0  0  0  0  0  0  0  0999 V2000
   39.4402   16.2569  -11.3965 C   0  0  0  0  0  0  0  0  0  0  0  0
   39.5201   16.7900  -10.1349 C   0  0  0  0  0  0  0  0  0  0  0  0
   38.6083   16.4372   -9.1716 C   0  0  0  0  0  0  0  0  0  0  0  0
   37.5617   15.5242   -9.4208 C   0  0  0  0  0  0  0  0  0  0  0  0
   37.5250   15.0208  -10.6956 C   0  0  0  0  0  0  0  0  0  0  0  0
   36.6434   14.1503  -11.3132 C   0  0  0  0  0  0  0  0  0  0  0  0
   37.0438   13.9994  -12.6258 C   0  0  0  0  0  0  0  0  0  0  0  0
   38.1467   14.7710  -12.7817 N   0  0  0  0  0  0  0  0  0  0  0  0
   38.4259   15.3772  -11.6301 N   0  0  0  0  0  0  0  0  0  0  0  0
   36.6926   15.1664   -8.3379 C   0  0  0  0  0  0  0  0  0  0  0  0
   36.6292   13.8892   -8.1106 O   0  0  0  0  0  0  0  0  0  0  0  0
   35.9086   15.9752   -7.5119 N   0  0  0  0  0  0  0  0  0  0  0  0
   35.8927   17.0037   -7.6545 H   0  0  0  0  0  0  0  0  0  0  0  0
   35.0904   15.4354   -6.4614 C   0  0  0  0  0  0  0  0  0  0  0  0
   35.6285   15.2146   -5.2086 C   0  0  0  0  0  0  0  0  0  0  0  0
   37.2953   15.6035   -4.8821 Cl  0  0  0  0  0  0  0  0  0  0  0  0
   34.8674   14.6884   -4.1597 C   0  0  0  0  0  0  0  0  0  0  0  0
   33.5804   14.3819   -4.3511 N   0  0  0  0  0  0  0  0  0  0  0  0
   33.0364   14.5813   -5.5534 C   0  0  0  0  0  0  0  0  0  0  0  0
   33.7631   15.1053   -6.6235 C   0  0  0  0  0  0  0  0  0  0  0  0
   33.0165   15.3449   -8.1744 Cl  0  0  0  0  0  0  0  0  0  0  0  0
   36.4010   13.1967  -13.6697 C   0  0  0  0  0  0  0  0  0  0  0  0
   35.2951   12.3176  -13.1032 C   0  0  0  0  0  0  0  0  0  0  0  0
   37.4091   12.2358  -14.2867 C   0  0  0  0  0  0  0  0  0  0  0  0
   35.7977   14.0686  -14.7237 C   0  0  0  0  0  0  0  0  0  0  0  0
   41.6612   16.2264  -12.4901 C   0  0  0  0  0  0  0  0  0  0  0  0
   40.3270   16.5773  -12.4048 O   0  0  0  0  0  0  0  0  0  0  0  0
 26 27  1  0  0  0
 27  1  1  0  0  0
  1  2  2  0  0  0
  2  3  1  0  0  0
  3  4  2  0  0  0
  4 10  1  0  0  0
 10 11  2  0  0  0
 10 12  1  0  0  0
 12 14  1  0  0  0
 14 15  2  0  0  0
 15 16  1  0  0  0
 15 17  1  0  0  0
 17 18  2  0  0  0
 18 19  1  0  0  0
 19 20  2  0  0  0
 20 21  1  0  0  0
  4  5  1  0  0  0
  5  6  2  0  0  0
  6  7  1  0  0  0
  7  8  2  0  0  0
  8  9  1  0  0  0
  7 22  1  0  0  0
 22 23  1  0  0  0
 22 24  1  0  0  0
 22 25  1  0  0  0
  9  1  1  0  0  0
 20 14  1  0  0  0
  9  5  1  0  0  0
 12 13  1  0  0  0
M  END
> <minimizedAffinity>
-7.05624

> <CNNscore>
0.1140477061

> <CNNaffinity>
5.5677857399

> <CNN_VS>
0.6349931955

> <CNNaffinity_variance>
0.1862261593

$$$$
[H]c1nc([H])c(Cl)c(N([H])C(=O)c2c([H])c([H])c(OC([H])([H])[H])n3nc(C(C([H])([H])[H])(C([H])([H])[H])C([H])([H])[H])c([H])c23)c1Cl


 27 29  0  0  0  0  0  0  0  0999 V2000
   38.8317   11.7642  -16.6950 C   0  0  0  0  0  0  0  0  0  0  0  0
   37.5807   12.0409  -16.2042 C   0  0  0  0  0  0  0  0  0  0  0  0
   37.4241   12.8910  -15.1382 C   0  0  0  0  0  0  0  0  0  0  0  0
   38.5185   13.5155  -14.5033 C   0  0  0  0  0  0  0  0  0  0  0  0
   39.7460   13.2063  -15.0302 C   0  0  0  0  0  0  0  0  0  0  0  0
   41.0250   13.5843  -14.6597 C   0  0  0  0  0  0  0  0  0  0  0  0
   41.9164   12.9575  -15.5073 C   0  0  0  0  0  0  0  0  0  0  0  0
   41.1738   12.2185  -16.3667 N   0  0  0  0  0  0  0  0  0  0  0  0
   39.8838   12.3697  -16.0757 N   0  0  0  0  0  0  0  0  0  0  0  0
   38.2567   14.4371  -13.4364 C   0  0  0  0  0  0  0  0  0  0  0  0
   37.6247   15.5094  -13.8072 O   0  0  0  0  0  0  0  0  0  0  0  0
   38.5855   14.3576  -12.0812 N   0  0  0  0  0  0  0  0  0  0  0  0
   39.1128   13.5387  -11.7210 H   0  0  0  0  0  0  0  0  0  0  0  0
   38.2353   15.3891  -11.1443 C   0  0  0  0  0  0  0  0  0  0  0  0
   39.1518   16.3702  -10.8198 C   0  0  0  0  0  0  0  0  0  0  0  0
   40.7322   16.3802  -11.5535 Cl  0  0  0  0  0  0  0  0  0  0  0  0
   38.8519   17.3902   -9.9109 C   0  0  0  0  0  0  0  0  0  0  0  0
   37.6507   17.4374   -9.3260 N   0  0  0  0  0  0  0  0  0  0  0  0
   36.7478   16.4991   -9.6185 C   0  0  0  0  0  0  0  0  0  0  0  0
   37.0098   15.4670  -10.5207 C   0  0  0  0  0  0  0  0  0  0  0  0
   35.8064   14.2626  -10.8696 Cl  0  0  0  0  0  0  0  0  0  0  0  0
   43.3795   13.0342  -15.4813 C   0  0  0  0  0  0  0  0  0  0  0  0
   44.0167   11.9124  -16.2889 C   0  0  0  0  0  0  0  0  0  0  0  0
   43.8884   12.8506  -14.0574 C   0  0  0  0  0  0  0  0  0  0  0  0
   43.8600   14.3332  -16.0443 C   0  0  0  0  0  0  0  0  0  0  0  0
   38.1892   10.6514  -18.8114 C   0  0  0  0  0  0  0  0  0  0  0  0
   39.0492   10.9155  -17.7619 O   0  0  0  0  0  0  0  0  0  0  0  0
 26 27  1  0  0  0
 27  1  1  0  0  0
  1  2  2  0  0  0
  2  3  1  0  0  0
  3  4  2  0  0  0
  4 10  1  0  0  0
 10 11  2  0  0  0
 10 12  1  0  0  0
 12 14  1  0  0  0
 14 15  2  0  0  0
 15 16  1  0  0  0
 15 17  1  0  0  0
 17 18  2  0  0  0
 18 19  1  0  0  0
 19 20  2  0  0  0
 20 21  1  0  0  0
  4  5  1  0  0  0
  5  6  2  0  0  0
  6  7  1  0  0  0
  7  8  2  0  0  0
  8  9  1  0  0  0
  7 22  1  0  0  0
 22 23  1  0  0  0
 22 24  1  0  0  0
 22 25  1  0  0  0
  9  1  1  0  0  0
 20 14  1  0  0  0
  9  5  1  0  0  0
 12 13  1  0  0  0
M  END
> <minimizedAffinity>
-6.53821

> <CNNscore>
0.0886964649

> <CNNaffinity>
6.2777423859

> <CNN_VS>
0.5568135381

> <CNNaffinity_variance>
0.0995657817

$$$$
[H]c1nc([H])c2sc(C(=O)N([H])[H])c([H])c2c1Oc1c([H])c([H])c(N([H])C(=O)C2(C(=O)N([H])c3c([H])c([H])c(Cl)c([H])c3[H])C([H])([H])C2([H])[H])c([H])c1[H]


 39 43  0  0  0  0  0  0  0  0999 V2000
   36.4571   14.1659  -13.1875 C   0  0  0  0  0  0  0  0  0  0  0  0
   37.2514   14.0931  -12.0720 C   0  0  0  0  0  0  0  0  0  0  0  0
   36.7987   14.4468  -10.7870 C   0  0  0  0  0  0  0  0  0  0  0  0
   35.5213   14.8850  -10.6050 C   0  0  0  0  0  0  0  0  0  0  0  0
   34.7119   14.9590  -11.7436 C   0  0  0  0  0  0  0  0  0  0  0  0
   35.1690   14.6095  -12.9942 C   0  0  0  0  0  0  0  0  0  0  0  0
   34.9632   15.2670   -9.3609 N   0  0  0  0  0  0  0  0  0  0  0  0
   35.2859   14.8025   -8.0939 C   0  0  0  0  0  0  0  0  0  0  0  0
   36.1640   13.8864   -7.8938 O   0  0  0  0  0  0  0  0  0  0  0  0
   34.1357   15.9585   -9.3901 H   0  0  0  0  0  0  0  0  0  0  0  0
   34.6557   15.2962   -6.8522 C   0  0  0  0  0  0  0  0  0  0  0  0
   33.5259   14.3915   -6.3109 C   0  0  0  0  0  0  0  0  0  0  0  0
   34.8346   14.4631   -5.6085 C   0  0  0  0  0  0  0  0  0  0  0  0
   34.4390   16.7280   -6.6284 C   0  0  0  0  0  0  0  0  0  0  0  0
   34.9290   17.5156   -7.5367 O   0  0  0  0  0  0  0  0  0  0  0  0
   33.7758   17.3602   -5.5913 N   0  0  0  0  0  0  0  0  0  0  0  0
   33.2896   16.7475   -4.8623 H   0  0  0  0  0  0  0  0  0  0  0  0
   33.5829   18.7535   -5.3916 C   0  0  0  0  0  0  0  0  0  0  0  0
   34.3289   19.5206   -4.5495 C   0  0  0  0  0  0  0  0  0  0  0  0
   34.0783   20.8633   -4.3720 C   0  0  0  0  0  0  0  0  0  0  0  0
   33.0483   21.4482   -5.0625 C   0  0  0  0  0  0  0  0  0  0  0  0
   32.6645   23.1499   -4.8923 Cl  0  0  0  0  0  0  0  0  0  0  0  0
   32.2713   20.7005   -5.9256 C   0  0  0  0  0  0  0  0  0  0  0  0
   32.5372   19.3783   -6.0840 C   0  0  0  0  0  0  0  0  0  0  0  0
   36.9476   13.8071  -14.4307 O   0  0  0  0  0  0  0  0  0  0  0  0
   38.8552   11.4954  -17.5408 C   0  0  0  0  0  0  0  0  0  0  0  0
   38.3637   12.2892  -16.5398 C   0  0  0  0  0  0  0  0  0  0  0  0
   37.0752   12.1131  -16.1855 C   0  0  0  0  0  0  0  0  0  0  0  0
   36.3514   12.7997  -15.1978 C   0  0  0  0  0  0  0  0  0  0  0  0
   35.0427   12.4925  -14.9682 C   0  0  0  0  0  0  0  0  0  0  0  0
   34.3417   11.5461  -15.6308 N   0  0  0  0  0  0  0  0  0  0  0  0
   35.0260   10.8707  -16.5910 C   0  0  0  0  0  0  0  0  0  0  0  0
   36.3700   11.1561  -16.8570 C   0  0  0  0  0  0  0  0  0  0  0  0
   37.5116   10.5304  -17.9571 S   0  0  0  0  0  0  0  0  0  0  0  0
   41.2178   12.2416  -17.4413 N   0  0  0  0  0  0  0  0  0  0  0  0
   40.2249   11.4953  -18.1069 C   0  0  0  0  0  0  0  0  0  0  0  0
   40.4973   10.8561  -19.1407 O   0  0  0  0  0  0  0  0  0  0  0  0
   42.1759   11.8636  -17.3411 H   0  0  0  0  0  0  0  0  0  0  0  0
   40.9945   13.1728  -17.0483 H   0  0  0  0  0  0  0  0  0  0  0  0
 35 36  1  0  0  0
 36 37  2  0  0  0
 36 26  1  0  0  0
 26 27  2  0  0  0
 27 28  1  0  0  0
 28 29  2  0  0  0
 29 25  1  0  0  0
 25  1  1  0  0  0
  1  2  2  0  0  0
  2  3  1  0  0  0
  3  4  2  0  0  0
  4  7  1  0  0  0
  7  8  1  0  0  0
  8  9  2  0  0  0
  8 11  1  0  0  0
 11 12  1  0  0  0
 12 13  1  0  0  0
 11 14  1  0  0  0
 14 15  2  0  0  0
 14 16  1  0  0  0
 16 18  1  0  0  0
 18 19  2  0  0  0
 19 20  1  0  0  0
 20 21  2  0  0  0
 21 22  1  0  0  0
 21 23  1  0  0  0
 23 24  2  0  0  0
  4  5  1  0  0  0
  5  6  2  0  0  0
 29 30  1  0  0  0
 30 31  2  0  0  0
 31 32  1  0  0  0
 32 33  2  0  0  0
 33 34  1  0  0  0
 34 26  1  0  0  0
 33 28  1  0  0  0
  6  1  1  0  0  0
 13 11  1  0  0  0
 24 18  1  0  0  0
 35 38  1  0  0  0
 35 39  1  0  0  0
  7 10  1  0  0  0
 16 17  1  0  0  0
M  END
> <minimizedAffinity>
-8.55252

> <CNNscore>
0.5808603764

> <CNNaffinity>
6.9262161255

> <CNN_VS>
4.0231642723

> <CNNaffinity_variance>
0.4119794965

$$$$
[H]c1nc([H])c2sc(C(=O)N([H])[H])c([H])c2c1Oc1c([H])c([H])c(N([H])C(=O)C2(C(=O)N([H])c3c([H])c([H])c(Cl)c([H])c3[H])C([H])([H])C2([H])[H])c([H])c1[H]


 39 43  0  0  0  0  0  0  0  0999 V2000
   40.8181   13.3102  -15.2873 C   0  0  0  0  0  0  0  0  0  0  0  0
   41.7542   12.9469  -16.2212 C   0  0  0  0  0  0  0  0  0  0  0  0
   43.1376   12.9607  -15.9620 C   0  0  0  0  0  0  0  0  0  0  0  0
   43.6041   13.3459  -14.7409 C   0  0  0  0  0  0  0  0  0  0  0  0
   42.6483   13.7164  -13.7890 C   0  0  0  0  0  0  0  0  0  0  0  0
   41.2982   13.6977  -14.0574 C   0  0  0  0  0  0  0  0  0  0  0  0
   44.9705   13.3983  -14.3731 N   0  0  0  0  0  0  0  0  0  0  0  0
   45.8026   14.5068  -14.3088 C   0  0  0  0  0  0  0  0  0  0  0  0
   45.4111   15.6875  -14.6296 O   0  0  0  0  0  0  0  0  0  0  0  0
   45.4589   12.4563  -14.1781 H   0  0  0  0  0  0  0  0  0  0  0  0
   47.2154   14.4503  -13.8802 C   0  0  0  0  0  0  0  0  0  0  0  0
   48.1881   13.9385  -14.9664 C   0  0  0  0  0  0  0  0  0  0  0  0
   48.1849   15.3729  -14.5743 C   0  0  0  0  0  0  0  0  0  0  0  0
   47.5795   14.0613  -12.5153 C   0  0  0  0  0  0  0  0  0  0  0  0
   48.1205   14.9953  -11.7939 O   0  0  0  0  0  0  0  0  0  0  0  0
   47.4183   12.8418  -11.8814 N   0  0  0  0  0  0  0  0  0  0  0  0
   46.9065   12.0671  -12.4116 H   0  0  0  0  0  0  0  0  0  0  0  0
   47.7852   12.4851  -10.5560 C   0  0  0  0  0  0  0  0  0  0  0  0
   49.0118   12.0152  -10.1974 C   0  0  0  0  0  0  0  0  0  0  0  0
   49.3040   11.6560   -8.9001 C   0  0  0  0  0  0  0  0  0  0  0  0
   48.3336   11.7744   -7.9389 C   0  0  0  0  0  0  0  0  0  0  0  0
   48.6252   11.3386   -6.2664 Cl  0  0  0  0  0  0  0  0  0  0  0  0
   47.0782   12.2480   -8.2668 C   0  0  0  0  0  0  0  0  0  0  0  0
   46.8135   12.5956   -9.5526 C   0  0  0  0  0  0  0  0  0  0  0  0
   39.4679   13.2804  -15.5893 O   0  0  0  0  0  0  0  0  0  0  0  0
   35.3733   11.9111  -15.7134 C   0  0  0  0  0  0  0  0  0  0  0  0
   36.6366   12.4197  -15.5740 C   0  0  0  0  0  0  0  0  0  0  0  0
   37.5788   11.9824  -16.4329 C   0  0  0  0  0  0  0  0  0  0  0  0
   38.9320   12.3519  -16.4889 C   0  0  0  0  0  0  0  0  0  0  0  0
   39.7538   11.8063  -17.4306 C   0  0  0  0  0  0  0  0  0  0  0  0
   39.3736   10.9012  -18.3593 N   0  0  0  0  0  0  0  0  0  0  0  0
   38.0666   10.5312  -18.3206 C   0  0  0  0  0  0  0  0  0  0  0  0
   37.1912   11.0681  -17.3698 C   0  0  0  0  0  0  0  0  0  0  0  0
   35.5358   10.8423  -17.0328 S   0  0  0  0  0  0  0  0  0  0  0  0
   33.2389   11.2000  -14.6708 N   0  0  0  0  0  0  0  0  0  0  0  0
   34.1746   12.2281  -14.9015 C   0  0  0  0  0  0  0  0  0  0  0  0
   33.9933   13.3682  -14.4337 O   0  0  0  0  0  0  0  0  0  0  0  0
   32.7934   11.0981  -13.7424 H   0  0  0  0  0  0  0  0  0  0  0  0
   32.9917   10.5400  -15.4290 H   0  0  0  0  0  0  0  0  0  0  0  0
 35 36  1  0  0  0
 36 37  2  0  0  0
 36 26  1  0  0  0
 26 27  2  0  0  0
 27 28  1  0  0  0
 28 29  2  0  0  0
 29 25  1  0  0  0
 25  1  1  0  0  0
  1  2  2  0  0  0
  2  3  1  0  0  0
  3  4  2  0  0  0
  4  7  1  0  0  0
  7  8  1  0  0  0
  8  9  2  0  0  0
  8 11  1  0  0  0
 11 12  1  0  0  0
 12 13  1  0  0  0
 11 14  1  0  0  0
 14 15  2  0  0  0
 14 16  1  0  0  0
 16 18  1  0  0  0
 18 19  2  0  0  0
 19 20  1  0  0  0
 20 21  2  0  0  0
 21 22  1  0  0  0
 21 23  1  0  0  0
 23 24  2  0  0  0
  4  5  1  0  0  0
  5  6  2  0  0  0
 29 30  1  0  0  0
 30 31  2  0  0  0
 31 32  1  0  0  0
 32 33  2  0  0  0
 33 34  1  0  0  0
 34 26  1  0  0  0
 33 28  1  0  0  0
  6  1  1  0  0  0
 13 11  1  0  0  0
 24 18  1  0  0  0
 35 38  1  0  0  0
 35 39  1  0  0  0
  7 10  1  0  0  0
 16 17  1  0  0  0
M  END
> <minimizedAffinity>
-7.88973

> <CNNscore>
0.3495119214

> <CNNaffinity>
6.9009132385

> <CNN_VS>
2.4119515419

> <CNNaffinity_variance>
0.3559087217

$$$$
[H]c1nc([H])c2sc(C(=O)N([H])[H])c([H])c2c1Oc1c([H])c([H])c(N([H])C(=O)C2(C(=O)N([H])c3c([H])c([H])c(Cl)c([H])c3[H])C([H])([H])C2([H])[H])c([H])c1[H]


 39 43  0  0  0  0  0  0  0  0999 V2000
   37.4735   14.2601  -12.9101 C   0  0  0  0  0  0  0  0  0  0  0  0
   38.2027   15.2303  -12.2716 C   0  0  0  0  0  0  0  0  0  0  0  0
   37.8963   15.6885  -10.9765 C   0  0  0  0  0  0  0  0  0  0  0  0
   36.8362   15.1681  -10.2964 C   0  0  0  0  0  0  0  0  0  0  0  0
   36.0931   14.1785  -10.9487 C   0  0  0  0  0  0  0  0  0  0  0  0
   36.4050   13.7406  -12.2159 C   0  0  0  0  0  0  0  0  0  0  0  0
   36.4383   15.5546   -8.9936 N   0  0  0  0  0  0  0  0  0  0  0  0
   37.1599   15.4668   -7.8117 C   0  0  0  0  0  0  0  0  0  0  0  0
   38.3387   14.9595   -7.7548 O   0  0  0  0  0  0  0  0  0  0  0  0
   35.4240   15.9032   -8.8774 H   0  0  0  0  0  0  0  0  0  0  0  0
   36.6542   15.9311   -6.5034 C   0  0  0  0  0  0  0  0  0  0  0  0
   37.0256   15.0129   -5.3173 C   0  0  0  0  0  0  0  0  0  0  0  0
   37.6765   16.3407   -5.4739 C   0  0  0  0  0  0  0  0  0  0  0  0
   35.3417   16.5709   -6.3807 C   0  0  0  0  0  0  0  0  0  0  0  0
   35.3622   17.8533   -6.1798 O   0  0  0  0  0  0  0  0  0  0  0  0
   34.0819   16.0038   -6.4597 N   0  0  0  0  0  0  0  0  0  0  0  0
   34.0163   14.9644   -6.7016 H   0  0  0  0  0  0  0  0  0  0  0  0
   32.8203   16.6444   -6.3314 C   0  0  0  0  0  0  0  0  0  0  0  0
   32.2357   16.9614   -5.1432 C   0  0  0  0  0  0  0  0  0  0  0  0
   30.9952   17.5564   -5.0769 C   0  0  0  0  0  0  0  0  0  0  0  0
   30.3267   17.8397   -6.2398 C   0  0  0  0  0  0  0  0  0  0  0  0
   28.7451   18.5953   -6.2413 Cl  0  0  0  0  0  0  0  0  0  0  0  0
   30.8898   17.5325   -7.4631 C   0  0  0  0  0  0  0  0  0  0  0  0
   32.1139   16.9458   -7.5032 C   0  0  0  0  0  0  0  0  0  0  0  0
   37.8137   13.8422  -14.1847 O   0  0  0  0  0  0  0  0  0  0  0  0
   39.0276   11.5049  -17.6080 C   0  0  0  0  0  0  0  0  0  0  0  0
   38.7637   12.2918  -16.5195 C   0  0  0  0  0  0  0  0  0  0  0  0
   37.5153   12.2507  -16.0131 C   0  0  0  0  0  0  0  0  0  0  0  0
   37.0077   12.9600  -14.9131 C   0  0  0  0  0  0  0  0  0  0  0  0
   35.7079   12.7986  -14.5332 C   0  0  0  0  0  0  0  0  0  0  0  0
   34.8188   11.9831  -15.1421 N   0  0  0  0  0  0  0  0  0  0  0  0
   35.2922   11.2880  -16.2095 C   0  0  0  0  0  0  0  0  0  0  0  0
   36.6197   11.4258  -16.6307 C   0  0  0  0  0  0  0  0  0  0  0  0
   37.5329   10.7335  -17.8924 S   0  0  0  0  0  0  0  0  0  0  0  0
   41.4644   11.9356  -17.7645 N   0  0  0  0  0  0  0  0  0  0  0  0
   40.3083   11.3742  -18.3423 C   0  0  0  0  0  0  0  0  0  0  0  0
   40.3680   10.7863  -19.4387 O   0  0  0  0  0  0  0  0  0  0  0  0
   42.3677   11.4325  -17.8094 H   0  0  0  0  0  0  0  0  0  0  0  0
   41.4171   12.8549  -17.2911 H   0  0  0  0  0  0  0  0  0  0  0  0
 35 36  1  0  0  0
 36 37  2  0  0  0
 36 26  1  0  0  0
 26 27  2  0  0  0
 27 28  1  0  0  0
 28 29  2  0  0  0
 29 25  1  0  0  0
 25  1  1  0  0  0
  1  2  2  0  0  0
  2  3  1  0  0  0
  3  4  2  0  0  0
  4  7  1  0  0  0
  7  8  1  0  0  0
  8  9  2  0  0  0
  8 11  1  0  0  0
 11 12  1  0  0  0
 12 13  1  0  0  0
 11 14  1  0  0  0
 14 15  2  0  0  0
 14 16  1  0  0  0
 16 18  1  0  0  0
 18 19  2  0  0  0
 19 20  1  0  0  0
 20 21  2  0  0  0
 21 22  1  0  0  0
 21 23  1  0  0  0
 23 24  2  0  0  0
  4  5  1  0  0  0
  5  6  2  0  0  0
 29 30  1  0  0  0
 30 31  2  0  0  0
 31 32  1  0  0  0
 32 33  2  0  0  0
 33 34  1  0  0  0
 34 26  1  0  0  0
 33 28  1  0  0  0
  6  1  1  0  0  0
 13 11  1  0  0  0
 24 18  1  0  0  0
 35 38  1  0  0  0
 35 39  1  0  0  0
  7 10  1  0  0  0
 16 17  1  0  0  0
M  END
> <minimizedAffinity>
-8.25810

> <CNNscore>
0.3350507319

> <CNNaffinity>
6.7529716492

> <CNN_VS>
2.2625880241

> <CNNaffinity_variance>
0.2681121826

$$$$
[H]c1nc([H])c2sc(C(=O)N([H])[H])c([H])c2c1Oc1c([H])c([H])c(N([H])C(=O)C2(C(=O)N([H])c3c([H])c([H])c(Cl)c([H])c3[H])C([H])([H])C2([H])[H])c([H])c1[H]


 39 43  0  0  0  0  0  0  0  0999 V2000
   42.1528   13.5684  -15.4772 C   0  0  0  0  0  0  0  0  0  0  0  0
   43.4181   13.2229  -15.8775 C   0  0  0  0  0  0  0  0  0  0  0  0
   44.4678   12.9836  -14.9710 C   0  0  0  0  0  0  0  0  0  0  0  0
   44.2547   13.0901  -13.6292 C   0  0  0  0  0  0  0  0  0  0  0  0
   42.9637   13.4427  -13.2219 C   0  0  0  0  0  0  0  0  0  0  0  0
   41.9469   13.6738  -14.1207 C   0  0  0  0  0  0  0  0  0  0  0  0
   45.2357   12.8733  -12.6313 N   0  0  0  0  0  0  0  0  0  0  0  0
   46.0384   13.8098  -11.9957 C   0  0  0  0  0  0  0  0  0  0  0  0
   46.0047   15.0614  -12.2830 O   0  0  0  0  0  0  0  0  0  0  0  0
   45.4437   11.8482  -12.3672 H   0  0  0  0  0  0  0  0  0  0  0  0
   47.0153   13.4735  -10.9395 C   0  0  0  0  0  0  0  0  0  0  0  0
   48.2114   12.6259  -11.4281 C   0  0  0  0  0  0  0  0  0  0  0  0
   48.3996   14.0565  -11.0685 C   0  0  0  0  0  0  0  0  0  0  0  0
   46.5816   13.1703   -9.5732 C   0  0  0  0  0  0  0  0  0  0  0  0
   47.1243   13.8936   -8.6416 O   0  0  0  0  0  0  0  0  0  0  0  0
   45.6665   12.2293   -9.1350 N   0  0  0  0  0  0  0  0  0  0  0  0
   45.1379   11.6650   -9.8734 H   0  0  0  0  0  0  0  0  0  0  0  0
   45.2653   11.9484   -7.8014 C   0  0  0  0  0  0  0  0  0  0  0  0
   45.8849   11.0529   -6.9839 C   0  0  0  0  0  0  0  0  0  0  0  0
   45.4342   10.7979   -5.7075 C   0  0  0  0  0  0  0  0  0  0  0  0
   44.3298   11.4641   -5.2429 C   0  0  0  0  0  0  0  0  0  0  0  0
   43.6934   11.1965   -3.6318 Cl  0  0  0  0  0  0  0  0  0  0  0  0
   43.6767   12.3799   -6.0445 C   0  0  0  0  0  0  0  0  0  0  0  0
   44.1393   12.6143   -7.2995 C   0  0  0  0  0  0  0  0  0  0  0  0
   41.1528   13.7941  -16.4067 O   0  0  0  0  0  0  0  0  0  0  0  0
   37.2852   13.1042  -14.6117 C   0  0  0  0  0  0  0  0  0  0  0  0
   38.5250   13.4211  -15.0976 C   0  0  0  0  0  0  0  0  0  0  0  0
   39.0056   12.6692  -16.1078 C   0  0  0  0  0  0  0  0  0  0  0  0
   40.2389   12.7970  -16.7660 C   0  0  0  0  0  0  0  0  0  0  0  0
   40.5691   11.9426  -17.7764 C   0  0  0  0  0  0  0  0  0  0  0  0
   39.7867   10.9369  -18.2268 N   0  0  0  0  0  0  0  0  0  0  0  0
   38.5884   10.7977  -17.6013 C   0  0  0  0  0  0  0  0  0  0  0  0
   38.2125   11.6542  -16.5602 C   0  0  0  0  0  0  0  0  0  0  0  0
   36.8275   11.7721  -15.5740 S   0  0  0  0  0  0  0  0  0  0  0  0
   36.2633   15.1461  -13.6450 N   0  0  0  0  0  0  0  0  0  0  0  0
   36.5442   13.7714  -13.5153 C   0  0  0  0  0  0  0  0  0  0  0  0
   36.1773   13.1410  -12.5056 O   0  0  0  0  0  0  0  0  0  0  0  0
   35.3458   15.5219  -13.3487 H   0  0  0  0  0  0  0  0  0  0  0  0
   36.9734   15.7887  -14.0379 H   0  0  0  0  0  0  0  0  0  0  0  0
 35 36  1  0  0  0
 36 37  2  0  0  0
 36 26  1  0  0  0
 26 27  2  0  0  0
 27 28  1  0  0  0
 28 29  2  0  0  0
 29 25  1  0  0  0
 25  1  1  0  0  0
  1  2  2  0  0  0
  2  3  1  0  0  0
  3  4  2  0  0  0
  4  7  1  0  0  0
  7  8  1  0  0  0
  8  9  2  0  0  0
  8 11  1  0  0  0
 11 12  1  0  0  0
 12 13  1  0  0  0
 11 14  1  0  0  0
 14 15  2  0  0  0
 14 16  1  0  0  0
 16 18  1  0  0  0
 18 19  2  0  0  0
 19 20  1  0  0  0
 20 21  2  0  0  0
 21 22  1  0  0  0
 21 23  1  0  0  0
 23 24  2  0  0  0
  4  5  1  0  0  0
  5  6  2  0  0  0
 29 30  1  0  0  0
 30 31  2  0  0  0
 31 32  1  0  0  0
 32 33  2  0  0  0
 33 34  1  0  0  0
 34 26  1  0  0  0
 33 28  1  0  0  0
  6  1  1  0  0  0
 13 11  1  0  0  0
 24 18  1  0  0  0
 35 38  1  0  0  0
 35 39  1  0  0  0
  7 10  1  0  0  0
 16 17  1  0  0  0
M  END
> <minimizedAffinity>
-7.41647

> <CNNscore>
0.2589397430

> <CNNaffinity>
6.8250961304

> <CNN_VS>
1.7672886848

> <CNNaffinity_variance>
0.4961872101

$$$$
[H]c1nc([H])c2sc(C(=O)N([H])[H])c([H])c2c1Oc1c([H])c([H])c(N([H])C(=O)C2(C(=O)N([H])c3c([H])c([H])c(Cl)c([H])c3[H])C([H])([H])C2([H])[H])c([H])c1[H]


 39 43  0  0  0  0  0  0  0  0999 V2000
   36.7564   12.4489  -14.9752 C   0  0  0  0  0  0  0  0  0  0  0  0
   37.2471   12.0044  -13.7742 C   0  0  0  0  0  0  0  0  0  0  0  0
   37.4855   12.8599  -12.6823 C   0  0  0  0  0  0  0  0  0  0  0  0
   37.2291   14.1943  -12.7860 C   0  0  0  0  0  0  0  0  0  0  0  0
   36.7287   14.6467  -14.0116 C   0  0  0  0  0  0  0  0  0  0  0  0
   36.5007   13.7976  -15.0708 C   0  0  0  0  0  0  0  0  0  0  0  0
   37.4323   15.1430  -11.7546 N   0  0  0  0  0  0  0  0  0  0  0  0
   36.8806   15.1618  -10.4816 C   0  0  0  0  0  0  0  0  0  0  0  0
   36.0394   14.2792  -10.0772 O   0  0  0  0  0  0  0  0  0  0  0  0
   38.0395   16.0016  -11.9953 H   0  0  0  0  0  0  0  0  0  0  0  0
   37.1877   16.1917   -9.4678 C   0  0  0  0  0  0  0  0  0  0  0  0
   36.8581   17.6353   -9.9098 C   0  0  0  0  0  0  0  0  0  0  0  0
   36.0254   16.9537   -8.8836 C   0  0  0  0  0  0  0  0  0  0  0  0
   38.3681   16.0810   -8.6068 C   0  0  0  0  0  0  0  0  0  0  0  0
   39.4884   15.8529   -9.2217 O   0  0  0  0  0  0  0  0  0  0  0  0
   38.4604   16.1963   -7.2308 N   0  0  0  0  0  0  0  0  0  0  0  0
   37.5761   16.4612   -6.6914 H   0  0  0  0  0  0  0  0  0  0  0  0
   39.6175   16.0791   -6.4149 C   0  0  0  0  0  0  0  0  0  0  0  0
   40.1495   14.8964   -5.9997 C   0  0  0  0  0  0  0  0  0  0  0  0
   41.2577   14.8422   -5.1834 C   0  0  0  0  0  0  0  0  0  0  0  0
   41.8454   16.0118   -4.7756 C   0  0  0  0  0  0  0  0  0  0  0  0
   43.2573   16.0287   -3.7371 Cl  0  0  0  0  0  0  0  0  0  0  0  0
   41.3329   17.2297   -5.1780 C   0  0  0  0  0  0  0  0  0  0  0  0
   40.2392   17.2579   -5.9825 C   0  0  0  0  0  0  0  0  0  0  0  0
   36.5385   11.5688  -16.0205 O   0  0  0  0  0  0  0  0  0  0  0  0
   40.6954   12.7354  -15.8971 C   0  0  0  0  0  0  0  0  0  0  0  0
   39.3671   12.4144  -15.8169 C   0  0  0  0  0  0  0  0  0  0  0  0
   38.8121   11.8020  -16.8816 C   0  0  0  0  0  0  0  0  0  0  0  0
   37.4824   11.3793  -17.0363 C   0  0  0  0  0  0  0  0  0  0  0  0
   37.0857   10.7712  -18.1907 C   0  0  0  0  0  0  0  0  0  0  0  0
   37.8868   10.5242  -19.2506 N   0  0  0  0  0  0  0  0  0  0  0  0
   39.1781   10.9266  -19.1192 C   0  0  0  0  0  0  0  0  0  0  0  0
   39.6244   11.5542  -17.9506 C   0  0  0  0  0  0  0  0  0  0  0  0
   41.1299   12.1760  -17.4490 S   0  0  0  0  0  0  0  0  0  0  0  0
   40.8878   13.9126  -13.7234 N   0  0  0  0  0  0  0  0  0  0  0  0
   41.5288   13.4062  -14.8715 C   0  0  0  0  0  0  0  0  0  0  0  0
   42.7607   13.5223  -15.0141 O   0  0  0  0  0  0  0  0  0  0  0  0
   41.3287   13.8132  -12.7924 H   0  0  0  0  0  0  0  0  0  0  0  0
   39.9714   14.3872  -13.8042 H   0  0  0  0  0  0  0  0  0  0  0  0
 35 36  1  0  0  0
 36 37  2  0  0  0
 36 26  1  0  0  0
 26 27  2  0  0  0
 27 28  1  0  0  0
 28 29  2  0  0  0
 29 25  1  0  0  0
 25  1  1  0  0  0
  1  2  2  0  0  0
  2  3  1  0  0  0
  3  4  2  0  0  0
  4  7  1  0  0  0
  7  8  1  0  0  0
  8  9  2  0  0  0
  8 11  1  0  0  0
 11 12  1  0  0  0
 12 13  1  0  0  0
 11 14  1  0  0  0
 14 15  2  0  0  0
 14 16  1  0  0  0
 16 18  1  0  0  0
 18 19  2  0  0  0
 19 20  1  0  0  0
 20 21  2  0  0  0
 21 22  1  0  0  0
 21 23  1  0  0  0
 23 24  2  0  0  0
  4  5  1  0  0  0
  5  6  2  0  0  0
 29 30  1  0  0  0
 30 31  2  0  0  0
 31 32  1  0  0  0
 32 33  2  0  0  0
 33 34  1  0  0  0
 34 26  1  0  0  0
 33 28  1  0  0  0
  6  1  1  0  0  0
 13 11  1  0  0  0
 24 18  1  0  0  0
 35 38  1  0  0  0
 35 39  1  0  0  0
  7 10  1  0  0  0
 16 17  1  0  0  0
M  END
> <minimizedAffinity>
-7.99378

> <CNNscore>
0.2394677252

> <CNNaffinity>
6.5809936523

> <CNN_VS>
1.5759356022

> <CNNaffinity_variance>
0.1413421929

$$$$
[H]c1nc([H])c2sc(C(=O)N([H])[H])c([H])c2c1Oc1c([H])c([H])c(N([H])C(=O)C2(C(=O)N([H])c3c([H])c([H])c(Cl)c([H])c3[H])C([H])([H])C2([H])[H])c([H])c1[H]


 39 43  0  0  0  0  0  0  0  0999 V2000
   41.1152   13.7724  -15.6901 C   0  0  0  0  0  0  0  0  0  0  0  0
   42.3844   13.2546  -15.6482 C   0  0  0  0  0  0  0  0  0  0  0  0
   43.1489   13.2001  -14.4676 C   0  0  0  0  0  0  0  0  0  0  0  0
   42.6384   13.6728  -13.2959 C   0  0  0  0  0  0  0  0  0  0  0  0
   41.3437   14.2008  -13.3398 C   0  0  0  0  0  0  0  0  0  0  0  0
   40.6080   14.2474  -14.5024 C   0  0  0  0  0  0  0  0  0  0  0  0
   43.3179   13.6686  -12.0536 N   0  0  0  0  0  0  0  0  0  0  0  0
   43.7340   14.7544  -11.2965 C   0  0  0  0  0  0  0  0  0  0  0  0
   43.5690   15.9699  -11.6779 O   0  0  0  0  0  0  0  0  0  0  0  0
   43.6150   12.7074  -11.6642 H   0  0  0  0  0  0  0  0  0  0  0  0
   44.4137   14.6336   -9.9903 C   0  0  0  0  0  0  0  0  0  0  0  0
   45.9534   14.7426  -10.0635 C   0  0  0  0  0  0  0  0  0  0  0  0
   45.1475   15.8471   -9.4788 C   0  0  0  0  0  0  0  0  0  0  0  0
   43.9243   13.7109   -8.9626 C   0  0  0  0  0  0  0  0  0  0  0  0
   43.5113   12.5593   -9.3970 O   0  0  0  0  0  0  0  0  0  0  0  0
   43.8502   13.8883   -7.5922 N   0  0  0  0  0  0  0  0  0  0  0  0
   44.2515   14.7909   -7.1829 H   0  0  0  0  0  0  0  0  0  0  0  0
   43.3654   12.9796   -6.6135 C   0  0  0  0  0  0  0  0  0  0  0  0
   44.1359   12.0617   -5.9672 C   0  0  0  0  0  0  0  0  0  0  0  0
   43.6065   11.1838   -5.0472 C   0  0  0  0  0  0  0  0  0  0  0  0
   42.2646   11.2334   -4.7712 C   0  0  0  0  0  0  0  0  0  0  0  0
   41.5139   10.1515   -3.6143 Cl  0  0  0  0  0  0  0  0  0  0  0  0
   41.4529   12.1521   -5.4076 C   0  0  0  0  0  0  0  0  0  0  0  0
   41.9975   13.0072   -6.3111 C   0  0  0  0  0  0  0  0  0  0  0  0
   40.4023   13.8045  -16.8757 O   0  0  0  0  0  0  0  0  0  0  0  0
   36.6543   11.9652  -15.7686 C   0  0  0  0  0  0  0  0  0  0  0  0
   37.8177   12.6378  -16.0294 C   0  0  0  0  0  0  0  0  0  0  0  0
   38.6176   12.1414  -16.9941 C   0  0  0  0  0  0  0  0  0  0  0  0
   39.8494   12.6480  -17.4374 C   0  0  0  0  0  0  0  0  0  0  0  0
   40.5337   12.0146  -18.4326 C   0  0  0  0  0  0  0  0  0  0  0  0
   40.1210   10.8930  -19.0634 N   0  0  0  0  0  0  0  0  0  0  0  0
   38.9301   10.3877  -18.6475 C   0  0  0  0  0  0  0  0  0  0  0  0
   38.1975   11.0082  -17.6292 C   0  0  0  0  0  0  0  0  0  0  0  0
   36.7097   10.6653  -16.8719 S   0  0  0  0  0  0  0  0  0  0  0  0
   35.9851   13.1282  -13.6835 N   0  0  0  0  0  0  0  0  0  0  0  0
   35.6171   12.3044  -14.7658 C   0  0  0  0  0  0  0  0  0  0  0  0
   34.4519   11.8770  -14.8708 O   0  0  0  0  0  0  0  0  0  0  0  0
   35.3420   13.8654  -13.3460 H   0  0  0  0  0  0  0  0  0  0  0  0
   36.9016   13.0011  -13.2194 H   0  0  0  0  0  0  0  0  0  0  0  0
 35 36  1  0  0  0
 36 37  2  0  0  0
 36 26  1  0  0  0
 26 27  2  0  0  0
 27 28  1  0  0  0
 28 29  2  0  0  0
 29 25  1  0  0  0
 25  1  1  0  0  0
  1  2  2  0  0  0
  2  3  1  0  0  0
  3  4  2  0  0  0
  4  7  1  0  0  0
  7  8  1  0  0  0
  8  9  2  0  0  0
  8 11  1  0  0  0
 11 12  1  0  0  0
 12 13  1  0  0  0
 11 14  1  0  0  0
 14 15  2  0  0  0
 14 16  1  0  0  0
 16 18  1  0  0  0
 18 19  2  0  0  0
 19 20  1  0  0  0
 20 21  2  0  0  0
 21 22  1  0  0  0
 21 23  1  0  0  0
 23 24  2  0  0  0
  4  5  1  0  0  0
  5  6  2  0  0  0
 29 30  1  0  0  0
 30 31  2  0  0  0
 31 32  1  0  0  0
 32 33  2  0  0  0
 33 34  1  0  0  0
 34 26  1  0  0  0
 33 28  1  0  0  0
  6  1  1  0  0  0
 13 11  1  0  0  0
 24 18  1  0  0  0
 35 38  1  0  0  0
 35 39  1  0  0  0
  7 10  1  0  0  0
 16 17  1  0  0  0
M  END
> <minimizedAffinity>
-7.27209

> <CNNscore>
0.2131695896

> <CNNaffinity>
6.6852393150

> <CNN_VS>
1.4250897169

> <CNNaffinity_variance>
0.3403726518

$$$$
[H]c1nc([H])c2sc(C(=O)N([H])[H])c([H])c2c1Oc1c([H])c([H])c(N([H])C(=O)C2(C(=O)N([H])c3c([H])c([H])c(Cl)c([H])c3[H])C([H])([H])C2([H])[H])c([H])c1[H]


 39 43  0  0  0  0  0  0  0  0999 V2000
   36.5836   15.1597  -12.5520 C   0  0  0  0  0  0  0  0  0  0  0  0
   37.5369   14.4526  -11.8650 C   0  0  0  0  0  0  0  0  0  0  0  0
   37.7393   14.5899  -10.4789 C   0  0  0  0  0  0  0  0  0  0  0  0
   36.9731   15.4535   -9.7548 C   0  0  0  0  0  0  0  0  0  0  0  0
   36.0010   16.1744  -10.4566 C   0  0  0  0  0  0  0  0  0  0  0  0
   35.8149   16.0293  -11.8128 C   0  0  0  0  0  0  0  0  0  0  0  0
   37.0912   15.6708   -8.3606 N   0  0  0  0  0  0  0  0  0  0  0  0
   36.6019   14.8897   -7.3233 C   0  0  0  0  0  0  0  0  0  0  0  0
   35.9103   13.8258   -7.5229 O   0  0  0  0  0  0  0  0  0  0  0  0
   37.5621   16.5900   -8.0490 H   0  0  0  0  0  0  0  0  0  0  0  0
   36.8107   15.1976   -5.8935 C   0  0  0  0  0  0  0  0  0  0  0  0
   35.8953   16.3151   -5.3447 C   0  0  0  0  0  0  0  0  0  0  0  0
   35.6737   14.8988   -4.9497 C   0  0  0  0  0  0  0  0  0  0  0  0
   38.1497   15.1709   -5.2989 C   0  0  0  0  0  0  0  0  0  0  0  0
   38.3387   14.2642   -4.3891 O   0  0  0  0  0  0  0  0  0  0  0  0
   39.2460   15.9681   -5.5776 N   0  0  0  0  0  0  0  0  0  0  0  0
   39.1593   16.6759   -6.3742 H   0  0  0  0  0  0  0  0  0  0  0  0
   40.5356   15.9277   -4.9828 C   0  0  0  0  0  0  0  0  0  0  0  0
   40.9199   16.6960   -3.9264 C   0  0  0  0  0  0  0  0  0  0  0  0
   42.1947   16.6371   -3.4078 C   0  0  0  0  0  0  0  0  0  0  0  0
   43.1058   15.7802   -3.9691 C   0  0  0  0  0  0  0  0  0  0  0  0
   44.7470   15.6462   -3.3686 Cl  0  0  0  0  0  0  0  0  0  0  0  0
   42.7504   14.9856   -5.0415 C   0  0  0  0  0  0  0  0  0  0  0  0
   41.4878   15.0613   -5.5358 C   0  0  0  0  0  0  0  0  0  0  0  0
   36.4222   14.9906  -13.9159 O   0  0  0  0  0  0  0  0  0  0  0  0
   37.9603   11.8894  -16.4991 C   0  0  0  0  0  0  0  0  0  0  0  0
   37.5921   12.9223  -15.6797 C   0  0  0  0  0  0  0  0  0  0  0  0
   36.3060   12.9672  -15.2789 C   0  0  0  0  0  0  0  0  0  0  0  0
   35.6954   13.9189  -14.4469 C   0  0  0  0  0  0  0  0  0  0  0  0
   34.3708   13.8129  -14.1402 C   0  0  0  0  0  0  0  0  0  0  0  0
   33.5501   12.8338  -14.5804 N   0  0  0  0  0  0  0  0  0  0  0  0
   34.1237   11.9029  -15.3873 C   0  0  0  0  0  0  0  0  0  0  0  0
   35.4797   11.9764  -15.7255 C   0  0  0  0  0  0  0  0  0  0  0  0
   36.5079   11.0143  -16.6858 S   0  0  0  0  0  0  0  0  0  0  0  0
   40.3410   12.5243  -16.7771 N   0  0  0  0  0  0  0  0  0  0  0  0
   39.3007   11.6205  -17.0713 C   0  0  0  0  0  0  0  0  0  0  0  0
   39.5085   10.6262  -17.7922 O   0  0  0  0  0  0  0  0  0  0  0  0
   41.2941   12.1756  -16.5748 H   0  0  0  0  0  0  0  0  0  0  0  0
   40.1579   13.5430  -16.7612 H   0  0  0  0  0  0  0  0  0  0  0  0
 35 36  1  0  0  0
 36 37  2  0  0  0
 36 26  1  0  0  0
 26 27  2  0  0  0
 27 28  1  0  0  0
 28 29  2  0  0  0
 29 25  1  0  0  0
 25  1  1  0  0  0
  1  2  2  0  0  0
  2  3  1  0  0  0
  3  4  2  0  0  0
  4  7  1  0  0  0
  7  8  1  0  0  0
  8  9  2  0  0  0
  8 11  1  0  0  0
 11 12  1  0  0  0
 12 13  1  0  0  0
 11 14  1  0  0  0
 14 15  2  0  0  0
 14 16  1  0  0  0
 16 18  1  0  0  0
 18 19  2  0  0  0
 19 20  1  0  0  0
 20 21  2  0  0  0
 21 22  1  0  0  0
 21 23  1  0  0  0
 23 24  2  0  0  0
  4  5  1  0  0  0
  5  6  2  0  0  0
 29 30  1  0  0  0
 30 31  2  0  0  0
 31 32  1  0  0  0
 32 33  2  0  0  0
 33 34  1  0  0  0
 34 26  1  0  0  0
 33 28  1  0  0  0
  6  1  1  0  0  0
 13 11  1  0  0  0
 24 18  1  0  0  0
 35 38  1  0  0  0
 35 39  1  0  0  0
  7 10  1  0  0  0
 16 17  1  0  0  0
M  END
> <minimizedAffinity>
-7.52016

> <CNNscore>
0.1915002465

> <CNNaffinity>
6.2862749100

> <CNN_VS>
1.2038232088

> <CNNaffinity_variance>
0.1426789016

$$$$
[H]c1nc([H])c2sc(C(=O)N([H])[H])c([H])c2c1Oc1c([H])c([H])c(N([H])C(=O)C2(C(=O)N([H])c3c([H])c([H])c(Cl)c([H])c3[H])C([H])([H])C2([H])[H])c([H])c1[H]


 39 43  0  0  0  0  0  0  0  0999 V2000
   37.4643   14.9536  -12.5547 C   0  0  0  0  0  0  0  0  0  0  0  0
   36.4652   14.5816  -11.6921 C   0  0  0  0  0  0  0  0  0  0  0  0
   36.6075   14.6270  -10.2925 C   0  0  0  0  0  0  0  0  0  0  0  0
   37.7749   15.0542   -9.7341 C   0  0  0  0  0  0  0  0  0  0  0  0
   38.7935   15.4334  -10.6149 C   0  0  0  0  0  0  0  0  0  0  0  0
   38.6393   15.3834  -11.9819 C   0  0  0  0  0  0  0  0  0  0  0  0
   38.0267   15.1387   -8.3432 N   0  0  0  0  0  0  0  0  0  0  0  0
   37.4170   14.4358   -7.3140 C   0  0  0  0  0  0  0  0  0  0  0  0
   36.4668   13.5953   -7.5158 O   0  0  0  0  0  0  0  0  0  0  0  0
   38.7337   15.8871   -8.0208 H   0  0  0  0  0  0  0  0  0  0  0  0
   37.7815   14.5826   -5.8897 C   0  0  0  0  0  0  0  0  0  0  0  0
   37.3644   15.9325   -5.2638 C   0  0  0  0  0  0  0  0  0  0  0  0
   36.6531   14.6799   -4.8947 C   0  0  0  0  0  0  0  0  0  0  0  0
   39.0393   14.0411   -5.3685 C   0  0  0  0  0  0  0  0  0  0  0  0
   39.0138   13.6674   -4.1254 O   0  0  0  0  0  0  0  0  0  0  0  0
   40.2487   13.8609   -6.0165 N   0  0  0  0  0  0  0  0  0  0  0  0
   40.2932   14.0822   -7.0616 H   0  0  0  0  0  0  0  0  0  0  0  0
   41.4595   13.3383   -5.4880 C   0  0  0  0  0  0  0  0  0  0  0  0
   42.5405   14.0937   -5.1492 C   0  0  0  0  0  0  0  0  0  0  0  0
   43.7016   13.5303   -4.6681 C   0  0  0  0  0  0  0  0  0  0  0  0
   43.7744   12.1688   -4.5242 C   0  0  0  0  0  0  0  0  0  0  0  0
   45.2152   11.3746   -3.9195 Cl  0  0  0  0  0  0  0  0  0  0  0  0
   42.6968   11.3716   -4.8575 C   0  0  0  0  0  0  0  0  0  0  0  0
   41.5627   11.9499   -5.3302 C   0  0  0  0  0  0  0  0  0  0  0  0
   37.2770   14.8914  -13.9243 O   0  0  0  0  0  0  0  0  0  0  0  0
   35.4268   11.6487  -16.0963 C   0  0  0  0  0  0  0  0  0  0  0  0
   35.8945   12.7092  -15.3681 C   0  0  0  0  0  0  0  0  0  0  0  0
   37.2240   12.9309  -15.3800 C   0  0  0  0  0  0  0  0  0  0  0  0
   37.9346   13.9446  -14.7180 C   0  0  0  0  0  0  0  0  0  0  0  0
   39.2907   14.0232  -14.8392 C   0  0  0  0  0  0  0  0  0  0  0  0
   40.0530   13.1797  -15.5696 N   0  0  0  0  0  0  0  0  0  0  0  0
   39.3823   12.1915  -16.2179 C   0  0  0  0  0  0  0  0  0  0  0  0
   37.9910   12.0768  -16.1190 C   0  0  0  0  0  0  0  0  0  0  0  0
   36.8490   10.9942  -16.7738 S   0  0  0  0  0  0  0  0  0  0  0  0
   33.2070   11.1849  -15.0934 N   0  0  0  0  0  0  0  0  0  0  0  0
   34.0220   11.1996  -16.2428 C   0  0  0  0  0  0  0  0  0  0  0  0
   33.5686   10.8442  -17.3472 O   0  0  0  0  0  0  0  0  0  0  0  0
   32.2206   11.4928  -15.1487 H   0  0  0  0  0  0  0  0  0  0  0  0
   33.5904   10.8662  -14.1863 H   0  0  0  0  0  0  0  0  0  0  0  0
 35 36  1  0  0  0
 36 37  2  0  0  0
 36 26  1  0  0  0
 26 27  2  0  0  0
 27 28  1  0  0  0
 28 29  2  0  0  0
 29 25  1  0  0  0
 25  1  1  0  0  0
  1  2  2  0  0  0
  2  3  1  0  0  0
  3  4  2  0  0  0
  4  7  1  0  0  0
  7  8  1  0  0  0
  8  9  2  0  0  0
  8 11  1  0  0  0
 11 12  1  0  0  0
 12 13  1  0  0  0
 11 14  1  0  0  0
 14 15  2  0  0  0
 14 16  1  0  0  0
 16 18  1  0  0  0
 18 19  2  0  0  0
 19 20  1  0  0  0
 20 21  2  0  0  0
 21 22  1  0  0  0
 21 23  1  0  0  0
 23 24  2  0  0  0
  4  5  1  0  0  0
  5  6  2  0  0  0
 29 30  1  0  0  0
 30 31  2  0  0  0
 31 32  1  0  0  0
 32 33  2  0  0  0
 33 34  1  0  0  0
 34 26  1  0  0  0
 33 28  1  0  0  0
  6  1  1  0  0  0
 13 11  1  0  0  0
 24 18  1  0  0  0
 35 38  1  0  0  0
 35 39  1  0  0  0
  7 10  1  0  0  0
 16 17  1  0  0  0
M  END
> <minimizedAffinity>
-8.15820

> <CNNscore>
0.1290832013

> <CNNaffinity>
6.3806338310

> <CNN_VS>
0.8236326575

> <CNNaffinity_variance>
0.1390640289

$$$$
[H]c1nc([H])c2sc(C(=O)N([H])[H])c([H])c2c1Oc1c([H])c([H])c(N([H])C(=O)C2(C(=O)N([H])c3c([H])c([H])c(Cl)c([H])c3[H])C([H])([H])C2([H])[H])c([H])c1[H]


 39 43  0  0  0  0  0  0  0  0999 V2000
   36.1420   13.8455  -14.3406 C   0  0  0  0  0  0  0  0  0  0  0  0
   35.9730   12.7544  -13.5273 C   0  0  0  0  0  0  0  0  0  0  0  0
   35.8931   12.8512  -12.1253 C   0  0  0  0  0  0  0  0  0  0  0  0
   35.9835   14.0658  -11.5142 C   0  0  0  0  0  0  0  0  0  0  0  0
   36.1561   15.1782  -12.3448 C   0  0  0  0  0  0  0  0  0  0  0  0
   36.2324   15.0677  -13.7148 C   0  0  0  0  0  0  0  0  0  0  0  0
   35.9175   14.2783  -10.1158 N   0  0  0  0  0  0  0  0  0  0  0  0
   36.9130   14.7421   -9.2677 C   0  0  0  0  0  0  0  0  0  0  0  0
   38.0990   15.0187   -9.6764 O   0  0  0  0  0  0  0  0  0  0  0  0
   35.0045   13.9855   -9.6212 H   0  0  0  0  0  0  0  0  0  0  0  0
   36.7242   14.9558   -7.8181 C   0  0  0  0  0  0  0  0  0  0  0  0
   37.5227   13.9810   -6.9236 C   0  0  0  0  0  0  0  0  0  0  0  0
   37.9234   15.4094   -7.0250 C   0  0  0  0  0  0  0  0  0  0  0  0
   35.4212   15.3433   -7.2714 C   0  0  0  0  0  0  0  0  0  0  0  0
   34.4883   14.4449   -7.3610 O   0  0  0  0  0  0  0  0  0  0  0  0
   35.0460   16.5280   -6.6623 N   0  0  0  0  0  0  0  0  0  0  0  0
   35.8019   17.2659   -6.4972 H   0  0  0  0  0  0  0  0  0  0  0  0
   33.7721   16.8845   -6.1440 C   0  0  0  0  0  0  0  0  0  0  0  0
   33.4040   16.7407   -4.8410 C   0  0  0  0  0  0  0  0  0  0  0  0
   32.1434   17.0758   -4.3984 C   0  0  0  0  0  0  0  0  0  0  0  0
   31.2299   17.5695   -5.2936 C   0  0  0  0  0  0  0  0  0  0  0  0
   29.6060   18.0188   -4.8108 Cl  0  0  0  0  0  0  0  0  0  0  0  0
   31.5691   17.7292   -6.6230 C   0  0  0  0  0  0  0  0  0  0  0  0
   32.8179   17.3916   -7.0359 C   0  0  0  0  0  0  0  0  0  0  0  0
   36.2150   13.7000  -15.7148 O   0  0  0  0  0  0  0  0  0  0  0  0
   40.2459   12.2966  -16.3769 C   0  0  0  0  0  0  0  0  0  0  0  0
   39.0205   12.8472  -16.1139 C   0  0  0  0  0  0  0  0  0  0  0  0
   37.9323   12.1378  -16.4734 C   0  0  0  0  0  0  0  0  0  0  0  0
   36.5827   12.4885  -16.3113 C   0  0  0  0  0  0  0  0  0  0  0  0
   35.5989   11.6455  -16.7369 C   0  0  0  0  0  0  0  0  0  0  0  0
   35.8072   10.4481  -17.3278 N   0  0  0  0  0  0  0  0  0  0  0  0
   37.1080   10.0915  -17.4933 C   0  0  0  0  0  0  0  0  0  0  0  0
   38.1466   10.9286  -17.0701 C   0  0  0  0  0  0  0  0  0  0  0  0
   39.8463   10.8115  -17.1149 S   0  0  0  0  0  0  0  0  0  0  0  0
   42.6519   12.5284  -16.9299 N   0  0  0  0  0  0  0  0  0  0  0  0
   41.5796   12.8721  -16.0827 C   0  0  0  0  0  0  0  0  0  0  0  0
   41.7545   13.6381  -15.1162 O   0  0  0  0  0  0  0  0  0  0  0  0
   43.3466   13.2428  -17.2091 H   0  0  0  0  0  0  0  0  0  0  0  0
   42.7510   11.5588  -17.2786 H   0  0  0  0  0  0  0  0  0  0  0  0
 35 36  1  0  0  0
 36 37  2  0  0  0
 36 26  1  0  0  0
 26 27  2  0  0  0
 27 28  1  0  0  0
 28 29  2  0  0  0
 29 25  1  0  0  0
 25  1  1  0  0  0
  1  2  2  0  0  0
  2  3  1  0  0  0
  3  4  2  0  0  0
  4  7  1  0  0  0
  7  8  1  0  0  0
  8  9  2  0  0  0
  8 11  1  0  0  0
 11 12  1  0  0  0
 12 13  1  0  0  0
 11 14  1  0  0  0
 14 15  2  0  0  0
 14 16  1  0  0  0
 16 18  1  0  0  0
 18 19  2  0  0  0
 19 20  1  0  0  0
 20 21  2  0  0  0
 21 22  1  0  0  0
 21 23  1  0  0  0
 23 24  2  0  0  0
  4  5  1  0  0  0
  5  6  2  0  0  0
 29 30  1  0  0  0
 30 31  2  0  0  0
 31 32  1  0  0  0
 32 33  2  0  0  0
 33 34  1  0  0  0
 34 26  1  0  0  0
 33 28  1  0  0  0
  6  1  1  0  0  0
 13 11  1  0  0  0
 24 18  1  0  0  0
 35 38  1  0  0  0
 35 39  1  0  0  0
  7 10  1  0  0  0
 16 17  1  0  0  0
M  END
> <minimizedAffinity>
-7.13419

> <CNNscore>
0.1282480359

> <CNNaffinity>
6.4001936913

> <CNN_VS>
0.8208122849

> <CNNaffinity_variance>
0.1952050328

$$$$
[H]c1nc(N([H])c2c([H])c([H])c(N3C([H])([H])C([H])([H])C([H])(N4C(=O)C([H])([H])N(C([H])([H])[H])C([H])([H])C4([H])[H])C([H])([H])C3([H])[H])c([H])c2OC([H])([H])[H])nc(N([H])c2c([H])c([H])c([H])c([H])c2S(=O)(=O)C([H])(C([H])([H])[H])C([H])([H])[H])c1Cl


 45 49  0  0  0  0  0  0  0  0999 V2000
   41.4884   13.5272  -16.7698 N   0  0  0  0  0  0  0  0  0  0  0  0
   41.8335   14.1500  -17.5560 H   0  0  0  0  0  0  0  0  0  0  0  0
   40.4551   12.6541  -17.0815 C   0  0  0  0  0  0  0  0  0  0  0  0
   40.1993   12.0596  -18.2453 N   0  0  0  0  0  0  0  0  0  0  0  0
   39.1449   11.2758  -18.4690 C   0  0  0  0  0  0  0  0  0  0  0  0
   38.2503   11.0515  -17.4550 C   0  0  0  0  0  0  0  0  0  0  0  0
   36.8653   10.0413  -17.7414 Cl  0  0  0  0  0  0  0  0  0  0  0  0
   38.4636   11.6559  -16.1903 C   0  0  0  0  0  0  0  0  0  0  0  0
   39.5413   12.4051  -16.0954 N   0  0  0  0  0  0  0  0  0  0  0  0
   37.4884   11.4641  -15.1923 N   0  0  0  0  0  0  0  0  0  0  0  0
   37.8009   10.8315  -14.3928 H   0  0  0  0  0  0  0  0  0  0  0  0
   36.1934   12.0174  -15.1500 C   0  0  0  0  0  0  0  0  0  0  0  0
   35.1275   11.5529  -15.8873 C   0  0  0  0  0  0  0  0  0  0  0  0
   33.8725   12.1558  -15.7969 C   0  0  0  0  0  0  0  0  0  0  0  0
   33.6594   13.2132  -14.9860 C   0  0  0  0  0  0  0  0  0  0  0  0
   34.7310   13.6898  -14.2384 C   0  0  0  0  0  0  0  0  0  0  0  0
   35.9790   13.1253  -14.2993 C   0  0  0  0  0  0  0  0  0  0  0  0
   37.3050   13.7423  -13.3649 S   0  0  0  0  0  0  0  0  0  0  0  0
   38.2089   12.6271  -12.9060 O   0  0  0  0  0  0  0  0  0  0  0  0
   38.1420   14.6841  -14.2042 O   0  0  0  0  0  0  0  0  0  0  0  0
   36.8135   14.6670  -11.9306 C   0  0  0  0  0  0  0  0  0  0  0  0
   37.8870   14.8637  -10.9244 C   0  0  0  0  0  0  0  0  0  0  0  0
   36.1542   15.9813  -12.2701 C   0  0  0  0  0  0  0  0  0  0  0  0
   43.4920   13.3395  -15.5041 C   0  0  0  0  0  0  0  0  0  0  0  0
   44.2084   13.3360  -14.3322 C   0  0  0  0  0  0  0  0  0  0  0  0
   43.5686   13.6619  -13.1302 C   0  0  0  0  0  0  0  0  0  0  0  0
   42.2242   13.9816  -13.1405 C   0  0  0  0  0  0  0  0  0  0  0  0
   41.4996   13.9828  -14.3329 C   0  0  0  0  0  0  0  0  0  0  0  0
   42.1216   13.6622  -15.5232 C   0  0  0  0  0  0  0  0  0  0  0  0
   44.3226   13.6750  -11.9332 N   0  0  0  0  0  0  0  0  0  0  0  0
   44.4502   14.8338  -11.0723 C   0  0  0  0  0  0  0  0  0  0  0  0
   43.5034   14.5376   -9.9047 C   0  0  0  0  0  0  0  0  0  0  0  0
   43.7539   13.1764   -9.3488 C   0  0  0  0  0  0  0  0  0  0  0  0
   44.9954   12.5122   -9.8995 C   0  0  0  0  0  0  0  0  0  0  0  0
   45.0317   12.4900  -11.4172 C   0  0  0  0  0  0  0  0  0  0  0  0
   43.7881   13.0797   -7.9232 N   0  0  0  0  0  0  0  0  0  0  0  0
   45.0383   13.0354   -7.1659 C   0  0  0  0  0  0  0  0  0  0  0  0
   44.9977   13.9482   -5.9916 C   0  0  0  0  0  0  0  0  0  0  0  0
   43.6949   14.5155   -5.7437 N   0  0  0  0  0  0  0  0  0  0  0  0
   43.6268   15.1870   -4.4662 C   0  0  0  0  0  0  0  0  0  0  0  0
   42.6475   13.5167   -5.7753 C   0  0  0  0  0  0  0  0  0  0  0  0
   42.5859   13.0236   -7.1740 C   0  0  0  0  0  0  0  0  0  0  0  0
   41.4965   12.5755   -7.6683 O   0  0  0  0  0  0  0  0  0  0  0  0
   44.5476   11.6933  -16.9193 C   0  0  0  0  0  0  0  0  0  0  0  0
   44.1608   13.0251  -16.6966 O   0  0  0  0  0  0  0  0  0  0  0  0
 44 45  1  0  0  0
 45 24  1  0  0  0
 24 25  2  0  0  0
 25 26  1  0  0  0
 26 27  2  0  0  0
 27 28  1  0  0  0
 28 29  2  0  0  0
 29  1  1  0  0  0
  1  3  1  0  0  0
  3  4  2  0  0  0
  4  5  1  0  0  0
  5  6  2  0  0  0
  6  7  1  0  0  0
  6  8  1  0  0  0
  8 10  1  0  0  0
 10 12  1  0  0  0
 12 13  2  0  0  0
 13 14  1  0  0  0
 14 15  2  0  0  0
 15 16  1  0  0  0
 16 17  2  0  0  0
 17 18  1  0  0  0
 18 19  2  0  0  0
 18 20  2  0  0  0
 18 21  1  0  0  0
 21 22  1  0  0  0
 21 23  1  0  0  0
  8  9  2  0  0  0
 26 30  1  0  0  0
 30 31  1  0  0  0
 31 32  1  0  0  0
 32 33  1  0  0  0
 33 34  1  0  0  0
 34 35  1  0  0  0
 33 36  1  0  0  0
 36 37  1  0  0  0
 37 38  1  0  0  0
 38 39  1  0  0  0
 39 40  1  0  0  0
 39 41  1  0  0  0
 41 42  1  0  0  0
 42 43  2  0  0  0
 29 24  1  0  0  0
  9  3  1  0  0  0
 35 30  1  0  0  0
 42 36  1  0  0  0
 17 12  1  0  0  0
  1  2  1  0  0  0
 10 11  1  0  0  0
M  END
> <minimizedAffinity>
-8.26763

> <CNNscore>
0.9344877005

> <CNNaffinity>
8.5223703384

> <CNN_VS>
7.9640502930

> <CNNaffinity_variance>
0.0506770797

$$$$
[H]c1nc(N([H])c2c([H])c([H])c(N3C([H])([H])C([H])([H])C([H])(N4C(=O)C([H])([H])N(C([H])([H])[H])C([H])([H])C4([H])[H])C([H])([H])C3([H])[H])c([H])c2OC([H])([H])[H])nc(N([H])c2c([H])c([H])c([H])c([H])c2S(=O)(=O)C([H])(C([H])([H])[H])C([H])([H])[H])c1Cl


 45 49  0  0  0  0  0  0  0  0999 V2000
   41.0283   12.7953  -16.7031 N   0  0  0  0  0  0  0  0  0  0  0  0
   40.8575   12.7324  -17.7481 H   0  0  0  0  0  0  0  0  0  0  0  0
   42.3540   12.7771  -16.2917 C   0  0  0  0  0  0  0  0  0  0  0  0
   43.3462   12.0089  -16.7371 N   0  0  0  0  0  0  0  0  0  0  0  0
   44.5829   12.0215  -16.2403 C   0  0  0  0  0  0  0  0  0  0  0  0
   44.8794   12.8682  -15.2040 C   0  0  0  0  0  0  0  0  0  0  0  0
   46.4859   12.8821  -14.5410 Cl  0  0  0  0  0  0  0  0  0  0  0  0
   43.8672   13.7127  -14.6818 C   0  0  0  0  0  0  0  0  0  0  0  0
   42.6893   13.6083  -15.2591 N   0  0  0  0  0  0  0  0  0  0  0  0
   44.1852   14.5176  -13.5706 N   0  0  0  0  0  0  0  0  0  0  0  0
   45.2181   14.7721  -13.4974 H   0  0  0  0  0  0  0  0  0  0  0  0
   43.2975   15.0064  -12.5917 C   0  0  0  0  0  0  0  0  0  0  0  0
   42.2282   15.8318  -12.8579 C   0  0  0  0  0  0  0  0  0  0  0  0
   41.3933   16.2808  -11.8342 C   0  0  0  0  0  0  0  0  0  0  0  0
   41.6038   15.9233  -10.5501 C   0  0  0  0  0  0  0  0  0  0  0  0
   42.6825   15.0905  -10.2720 C   0  0  0  0  0  0  0  0  0  0  0  0
   43.5258   14.6283  -11.2494 C   0  0  0  0  0  0  0  0  0  0  0  0
   44.8721   13.5977  -10.8789 S   0  0  0  0  0  0  0  0  0  0  0  0
   44.7242   12.2538  -11.5448 O   0  0  0  0  0  0  0  0  0  0  0  0
   46.1576   14.2139  -11.3887 O   0  0  0  0  0  0  0  0  0  0  0  0
   45.1157   13.3185   -9.1420 C   0  0  0  0  0  0  0  0  0  0  0  0
   45.7002   11.9964   -8.8046 C   0  0  0  0  0  0  0  0  0  0  0  0
   45.8823   14.4284   -8.4652 C   0  0  0  0  0  0  0  0  0  0  0  0
   38.7625   12.1873  -16.3184 C   0  0  0  0  0  0  0  0  0  0  0  0
   37.5630   12.2756  -15.6550 C   0  0  0  0  0  0  0  0  0  0  0  0
   37.4621   13.0804  -14.5138 C   0  0  0  0  0  0  0  0  0  0  0  0
   38.5717   13.7755  -14.0718 C   0  0  0  0  0  0  0  0  0  0  0  0
   39.7881   13.6841  -14.7491 C   0  0  0  0  0  0  0  0  0  0  0  0
   39.8974   12.8935  -15.8758 C   0  0  0  0  0  0  0  0  0  0  0  0
   36.2266   13.1464  -13.8278 N   0  0  0  0  0  0  0  0  0  0  0  0
   36.0171   12.6277  -12.4908 C   0  0  0  0  0  0  0  0  0  0  0  0
   36.0277   13.8746  -11.6007 C   0  0  0  0  0  0  0  0  0  0  0  0
   35.1083   14.9192  -12.1374 C   0  0  0  0  0  0  0  0  0  0  0  0
   34.2348   14.4369  -13.2733 C   0  0  0  0  0  0  0  0  0  0  0  0
   35.0261   13.7872  -14.3944 C   0  0  0  0  0  0  0  0  0  0  0  0
   34.2755   15.5725  -11.1770 N   0  0  0  0  0  0  0  0  0  0  0  0
   32.8206   15.6372  -11.3095 C   0  0  0  0  0  0  0  0  0  0  0  0
   32.1406   15.3103  -10.0271 C   0  0  0  0  0  0  0  0  0  0  0  0
   33.0413   15.1991   -8.9060 N   0  0  0  0  0  0  0  0  0  0  0  0
   32.3375   15.1341   -7.6458 C   0  0  0  0  0  0  0  0  0  0  0  0
   33.9703   16.3071   -8.8376 C   0  0  0  0  0  0  0  0  0  0  0  0
   34.8404   16.1941  -10.0350 C   0  0  0  0  0  0  0  0  0  0  0  0
   36.0388   16.6362  -10.0239 O   0  0  0  0  0  0  0  0  0  0  0  0
   37.6939   10.6537  -17.8459 C   0  0  0  0  0  0  0  0  0  0  0  0
   38.8408   11.3611  -17.4496 O   0  0  0  0  0  0  0  0  0  0  0  0
 44 45  1  0  0  0
 45 24  1  0  0  0
 24 25  2  0  0  0
 25 26  1  0  0  0
 26 27  2  0  0  0
 27 28  1  0  0  0
 28 29  2  0  0  0
 29  1  1  0  0  0
  1  3  1  0  0  0
  3  4  2  0  0  0
  4  5  1  0  0  0
  5  6  2  0  0  0
  6  7  1  0  0  0
  6  8  1  0  0  0
  8 10  1  0  0  0
 10 12  1  0  0  0
 12 13  2  0  0  0
 13 14  1  0  0  0
 14 15  2  0  0  0
 15 16  1  0  0  0
 16 17  2  0  0  0
 17 18  1  0  0  0
 18 19  2  0  0  0
 18 20  2  0  0  0
 18 21  1  0  0  0
 21 22  1  0  0  0
 21 23  1  0  0  0
  8  9  2  0  0  0
 26 30  1  0  0  0
 30 31  1  0  0  0
 31 32  1  0  0  0
 32 33  1  0  0  0
 33 34  1  0  0  0
 34 35  1  0  0  0
 33 36  1  0  0  0
 36 37  1  0  0  0
 37 38  1  0  0  0
 38 39  1  0  0  0
 39 40  1  0  0  0
 39 41  1  0  0  0
 41 42  1  0  0  0
 42 43  2  0  0  0
 29 24  1  0  0  0
  9  3  1  0  0  0
 35 30  1  0  0  0
 42 36  1  0  0  0
 17 12  1  0  0  0
  1  2  1  0  0  0
 10 11  1  0  0  0
M  END
> <minimizedAffinity>
-8.16508

> <CNNscore>
0.2110928297

> <CNNaffinity>
7.6606583595

> <CNN_VS>
1.6171100140

> <CNNaffinity_variance>
0.0741470605

$$$$
[H]c1nc(N([H])c2c([H])c([H])c(N3C([H])([H])C([H])([H])C([H])(N4C(=O)C([H])([H])N(C([H])([H])[H])C([H])([H])C4([H])[H])C([H])([H])C3([H])[H])c([H])c2OC([H])([H])[H])nc(N([H])c2c([H])c([H])c([H])c([H])c2S(=O)(=O)C([H])(C([H])([H])[H])C([H])([H])[H])c1Cl


 45 49  0  0  0  0  0  0  0  0999 V2000
   43.9747   14.0196  -14.1098 N   0  0  0  0  0  0  0  0  0  0  0  0
   44.7223   14.5124  -14.6784 H   0  0  0  0  0  0  0  0  0  0  0  0
   42.8965   13.5077  -14.8188 C   0  0  0  0  0  0  0  0  0  0  0  0
   42.9120   12.7848  -15.9370 N   0  0  0  0  0  0  0  0  0  0  0  0
   41.8177   12.3819  -16.5825 C   0  0  0  0  0  0  0  0  0  0  0  0
   40.5854   12.7203  -16.0868 C   0  0  0  0  0  0  0  0  0  0  0  0
   39.1531   12.2104  -16.9289 Cl  0  0  0  0  0  0  0  0  0  0  0  0
   40.4986   13.4903  -14.8994 C   0  0  0  0  0  0  0  0  0  0  0  0
   41.6496   13.8237  -14.3555 N   0  0  0  0  0  0  0  0  0  0  0  0
   39.2202   13.8821  -14.4568 N   0  0  0  0  0  0  0  0  0  0  0  0
   38.4342   13.6602  -15.1424 H   0  0  0  0  0  0  0  0  0  0  0  0
   38.8962   14.5061  -13.2359 C   0  0  0  0  0  0  0  0  0  0  0  0
   39.6268   15.5260  -12.6688 C   0  0  0  0  0  0  0  0  0  0  0  0
   39.2469   16.0933  -11.4520 C   0  0  0  0  0  0  0  0  0  0  0  0
   38.1529   15.6633  -10.7892 C   0  0  0  0  0  0  0  0  0  0  0  0
   37.4095   14.6325  -11.3543 C   0  0  0  0  0  0  0  0  0  0  0  0
   37.7498   14.0490  -12.5476 C   0  0  0  0  0  0  0  0  0  0  0  0
   36.8134   12.7569  -13.2301 S   0  0  0  0  0  0  0  0  0  0  0  0
   37.6933   11.5952  -13.6141 O   0  0  0  0  0  0  0  0  0  0  0  0
   35.8106   12.2469  -12.2170 O   0  0  0  0  0  0  0  0  0  0  0  0
   35.8722   13.2213  -14.6627 C   0  0  0  0  0  0  0  0  0  0  0  0
   35.7083   12.1437  -15.6703 C   0  0  0  0  0  0  0  0  0  0  0  0
   34.5381   13.8385  -14.3209 C   0  0  0  0  0  0  0  0  0  0  0  0
   44.1532   15.1771  -12.0410 C   0  0  0  0  0  0  0  0  0  0  0  0
   44.4293   15.2558  -10.6978 C   0  0  0  0  0  0  0  0  0  0  0  0
   44.7355   14.0899   -9.9857 C   0  0  0  0  0  0  0  0  0  0  0  0
   44.7562   12.8759  -10.6456 C   0  0  0  0  0  0  0  0  0  0  0  0
   44.4763   12.8001  -12.0104 C   0  0  0  0  0  0  0  0  0  0  0  0
   44.1739   13.9445  -12.7214 C   0  0  0  0  0  0  0  0  0  0  0  0
   44.9976   14.1820   -8.5985 N   0  0  0  0  0  0  0  0  0  0  0  0
   44.0263   14.6324   -7.6218 C   0  0  0  0  0  0  0  0  0  0  0  0
   43.5416   13.3413   -6.9544 C   0  0  0  0  0  0  0  0  0  0  0  0
   44.6951   12.5048   -6.5137 C   0  0  0  0  0  0  0  0  0  0  0  0
   46.0310   13.2048   -6.6192 C   0  0  0  0  0  0  0  0  0  0  0  0
   46.2852   13.7915   -7.9963 C   0  0  0  0  0  0  0  0  0  0  0  0
   44.5901   11.9329   -5.2081 N   0  0  0  0  0  0  0  0  0  0  0  0
   44.3915   10.5008   -4.9884 C   0  0  0  0  0  0  0  0  0  0  0  0
   45.2984    9.9800   -3.9301 C   0  0  0  0  0  0  0  0  0  0  0  0
   46.0190   11.0120   -3.2255 N   0  0  0  0  0  0  0  0  0  0  0  0
   46.6893   10.5039   -2.0508 C   0  0  0  0  0  0  0  0  0  0  0  0
   45.1551   12.0960   -2.8081 C   0  0  0  0  0  0  0  0  0  0  0  0
   44.6779   12.7495   -4.0526 C   0  0  0  0  0  0  0  0  0  0  0  0
   44.3673   13.9885   -4.0700 O   0  0  0  0  0  0  0  0  0  0  0  0
   44.6189   17.5004  -12.5015 C   0  0  0  0  0  0  0  0  0  0  0  0
   43.8335   16.3581  -12.7275 O   0  0  0  0  0  0  0  0  0  0  0  0
 44 45  1  0  0  0
 45 24  1  0  0  0
 24 25  2  0  0  0
 25 26  1  0  0  0
 26 27  2  0  0  0
 27 28  1  0  0  0
 28 29  2  0  0  0
 29  1  1  0  0  0
  1  3  1  0  0  0
  3  4  2  0  0  0
  4  5  1  0  0  0
  5  6  2  0  0  0
  6  7  1  0  0  0
  6  8  1  0  0  0
  8 10  1  0  0  0
 10 12  1  0  0  0
 12 13  2  0  0  0
 13 14  1  0  0  0
 14 15  2  0  0  0
 15 16  1  0  0  0
 16 17  2  0  0  0
 17 18  1  0  0  0
 18 19  2  0  0  0
 18 20  2  0  0  0
 18 21  1  0  0  0
 21 22  1  0  0  0
 21 23  1  0  0  0
  8  9  2  0  0  0
 26 30  1  0  0  0
 30 31  1  0  0  0
 31 32  1  0  0  0
 32 33  1  0  0  0
 33 34  1  0  0  0
 34 35  1  0  0  0
 33 36  1  0  0  0
 36 37  1  0  0  0
 37 38  1  0  0  0
 38 39  1  0  0  0
 39 40  1  0  0  0
 39 41  1  0  0  0
 41 42  1  0  0  0
 42 43  2  0  0  0
 29 24  1  0  0  0
  9  3  1  0  0  0
 35 30  1  0  0  0
 42 36  1  0  0  0
 17 12  1  0  0  0
  1  2  1  0  0  0
 10 11  1  0  0  0
M  END
> <minimizedAffinity>
-7.92174

> <CNNscore>
0.0974834040

> <CNNaffinity>
6.9864678383

> <CNN_VS>
0.6810646653

> <CNNaffinity_variance>
0.0801593959

$$$$
[H]c1nc(N([H])c2c([H])c([H])c(N3C([H])([H])C([H])([H])C([H])(N4C(=O)C([H])([H])N(C([H])([H])[H])C([H])([H])C4([H])[H])C([H])([H])C3([H])[H])c([H])c2OC([H])([H])[H])nc(N([H])c2c([H])c([H])c([H])c([H])c2S(=O)(=O)C([H])(C([H])([H])[H])C([H])([H])[H])c1Cl


 45 49  0  0  0  0  0  0  0  0999 V2000
   43.9203   13.9612  -13.1620 N   0  0  0  0  0  0  0  0  0  0  0  0
   44.9104   14.1097  -13.5125 H   0  0  0  0  0  0  0  0  0  0  0  0
   42.9792   13.5847  -14.1106 C   0  0  0  0  0  0  0  0  0  0  0  0
   43.1876   13.1052  -15.3352 N   0  0  0  0  0  0  0  0  0  0  0  0
   42.2163   12.8221  -16.2029 C   0  0  0  0  0  0  0  0  0  0  0  0
   40.9114   13.0294  -15.8383 C   0  0  0  0  0  0  0  0  0  0  0  0
   39.6390   12.6754  -16.9679 Cl  0  0  0  0  0  0  0  0  0  0  0  0
   40.6205   13.5396  -14.5477 C   0  0  0  0  0  0  0  0  0  0  0  0
   41.6655   13.7765  -13.7838 N   0  0  0  0  0  0  0  0  0  0  0  0
   39.2749   13.8093  -14.2307 N   0  0  0  0  0  0  0  0  0  0  0  0
   38.5780   13.4733  -14.9646 H   0  0  0  0  0  0  0  0  0  0  0  0
   38.7842   14.4475  -13.0745 C   0  0  0  0  0  0  0  0  0  0  0  0
   39.4090   15.5014  -12.4465 C   0  0  0  0  0  0  0  0  0  0  0  0
   38.8649   16.0810  -11.2999 C   0  0  0  0  0  0  0  0  0  0  0  0
   37.7101   15.6301  -10.7668 C   0  0  0  0  0  0  0  0  0  0  0  0
   37.0727   14.5649  -11.3942 C   0  0  0  0  0  0  0  0  0  0  0  0
   37.5750   13.9684  -12.5219 C   0  0  0  0  0  0  0  0  0  0  0  0
   36.7683   12.6336  -13.2832 S   0  0  0  0  0  0  0  0  0  0  0  0
   37.7408   11.5308  -13.6139 O   0  0  0  0  0  0  0  0  0  0  0  0
   35.7273   12.0516  -12.3506 O   0  0  0  0  0  0  0  0  0  0  0  0
   35.9065   13.0623  -14.7757 C   0  0  0  0  0  0  0  0  0  0  0  0
   36.2129   12.1915  -15.9381 C   0  0  0  0  0  0  0  0  0  0  0  0
   34.4150   13.1890  -14.5833 C   0  0  0  0  0  0  0  0  0  0  0  0
   43.4191   15.4864  -11.4086 C   0  0  0  0  0  0  0  0  0  0  0  0
   43.2720   15.8338  -10.0879 C   0  0  0  0  0  0  0  0  0  0  0  0
   43.3920   14.8514   -9.0975 C   0  0  0  0  0  0  0  0  0  0  0  0
   43.6579   13.5457   -9.4637 C   0  0  0  0  0  0  0  0  0  0  0  0
   43.8080   13.1970  -10.8063 C   0  0  0  0  0  0  0  0  0  0  0  0
   43.6920   14.1588  -11.7902 C   0  0  0  0  0  0  0  0  0  0  0  0
   43.2176   15.2185   -7.7424 N   0  0  0  0  0  0  0  0  0  0  0  0
   42.7558   16.5233   -7.3126 C   0  0  0  0  0  0  0  0  0  0  0  0
   41.2878   16.2950   -6.9381 C   0  0  0  0  0  0  0  0  0  0  0  0
   41.1480   15.1263   -6.0222 C   0  0  0  0  0  0  0  0  0  0  0  0
   42.4664   14.5923   -5.5099 C   0  0  0  0  0  0  0  0  0  0  0  0
   43.4556   14.2910   -6.6216 C   0  0  0  0  0  0  0  0  0  0  0  0
   40.2732   15.3073   -4.9065 N   0  0  0  0  0  0  0  0  0  0  0  0
   40.4354   16.3984   -3.9465 C   0  0  0  0  0  0  0  0  0  0  0  0
   39.1376   17.0638   -3.6519 C   0  0  0  0  0  0  0  0  0  0  0  0
   37.9964   16.3789   -4.2079 N   0  0  0  0  0  0  0  0  0  0  0  0
   36.7478   16.8983   -3.6990 C   0  0  0  0  0  0  0  0  0  0  0  0
   38.0265   14.9568   -3.9394 C   0  0  0  0  0  0  0  0  0  0  0  0
   39.1917   14.4180   -4.6848 C   0  0  0  0  0  0  0  0  0  0  0  0
   39.2063   13.2112   -5.1037 O   0  0  0  0  0  0  0  0  0  0  0  0
   44.3546   17.3595  -12.6100 C   0  0  0  0  0  0  0  0  0  0  0  0
   43.2779   16.4868  -12.3821 O   0  0  0  0  0  0  0  0  0  0  0  0
 44 45  1  0  0  0
 45 24  1  0  0  0
 24 25  2  0  0  0
 25 26  1  0  0  0
 26 27  2  0  0  0
 27 28  1  0  0  0
 28 29  2  0  0  0
 29  1  1  0  0  0
  1  3  1  0  0  0
  3  4  2  0  0  0
  4  5  1  0  0  0
  5  6  2  0  0  0
  6  7  1  0  0  0
  6  8  1  0  0  0
  8 10  1  0  0  0
 10 12  1  0  0  0
 12 13  2  0  0  0
 13 14  1  0  0  0
 14 15  2  0  0  0
 15 16  1  0  0  0
 16 17  2  0  0  0
 17 18  1  0  0  0
 18 19  2  0  0  0
 18 20  2  0  0  0
 18 21  1  0  0  0
 21 22  1  0  0  0
 21 23  1  0  0  0
  8  9  2  0  0  0
 26 30  1  0  0  0
 30 31  1  0  0  0
 31 32  1  0  0  0
 32 33  1  0  0  0
 33 34  1  0  0  0
 34 35  1  0  0  0
 33 36  1  0  0  0
 36 37  1  0  0  0
 37 38  1  0  0  0
 38 39  1  0  0  0
 39 40  1  0  0  0
 39 41  1  0  0  0
 41 42  1  0  0  0
 42 43  2  0  0  0
 29 24  1  0  0  0
  9  3  1  0  0  0
 35 30  1  0  0  0
 42 36  1  0  0  0
 17 12  1  0  0  0
  1  2  1  0  0  0
 10 11  1  0  0  0
M  END
> <minimizedAffinity>
-8.45071

> <CNNscore>
0.0899337381

> <CNNaffinity>
6.7266998291

> <CNN_VS>
0.6049572825

> <CNNaffinity_variance>
0.6194569468

$$$$
[H]c1nc(N([H])c2c([H])c([H])c(N3C([H])([H])C([H])([H])C([H])(N4C(=O)C([H])([H])N(C([H])([H])[H])C([H])([H])C4([H])[H])C([H])([H])C3([H])[H])c([H])c2OC([H])([H])[H])nc(N([H])c2c([H])c([H])c([H])c([H])c2S(=O)(=O)C([H])(C([H])([H])[H])C([H])([H])[H])c1Cl


 45 49  0  0  0  0  0  0  0  0999 V2000
   41.0348   12.9240  -15.9792 N   0  0  0  0  0  0  0  0  0  0  0  0
   40.5793   12.5764  -16.8719 H   0  0  0  0  0  0  0  0  0  0  0  0
   42.4209   12.8659  -15.9297 C   0  0  0  0  0  0  0  0  0  0  0  0
   43.2454   12.1562  -16.6977 N   0  0  0  0  0  0  0  0  0  0  0  0
   44.5683   12.1189  -16.5399 C   0  0  0  0  0  0  0  0  0  0  0  0
   45.1429   12.8464  -15.5303 C   0  0  0  0  0  0  0  0  0  0  0  0
   46.8659   12.7935  -15.3088 Cl  0  0  0  0  0  0  0  0  0  0  0  0
   44.3208   13.6233  -14.6753 C   0  0  0  0  0  0  0  0  0  0  0  0
   43.0316   13.5786  -14.9355 N   0  0  0  0  0  0  0  0  0  0  0  0
   44.9344   14.3010  -13.6038 N   0  0  0  0  0  0  0  0  0  0  0  0
   45.9885   14.4217  -13.7103 H   0  0  0  0  0  0  0  0  0  0  0  0
   44.3068   14.8224  -12.4552 C   0  0  0  0  0  0  0  0  0  0  0  0
   43.3439   14.1582  -11.7290 C   0  0  0  0  0  0  0  0  0  0  0  0
   42.7623   14.7409  -10.6026 C   0  0  0  0  0  0  0  0  0  0  0  0
   43.1216   15.9732  -10.1861 C   0  0  0  0  0  0  0  0  0  0  0  0
   44.0929   16.6518  -10.9145 C   0  0  0  0  0  0  0  0  0  0  0  0
   44.6879   16.1139  -12.0266 C   0  0  0  0  0  0  0  0  0  0  0  0
   45.8909   16.9824  -12.9267 S   0  0  0  0  0  0  0  0  0  0  0  0
   47.2576   16.3801  -12.7247 O   0  0  0  0  0  0  0  0  0  0  0  0
   45.5840   16.9164  -14.4078 O   0  0  0  0  0  0  0  0  0  0  0  0
   45.9938   18.7087  -12.5224 C   0  0  0  0  0  0  0  0  0  0  0  0
   47.3245   19.3212  -12.7622 C   0  0  0  0  0  0  0  0  0  0  0  0
   44.9044   19.5334  -13.1630 C   0  0  0  0  0  0  0  0  0  0  0  0
   38.9175   12.7826  -14.9073 C   0  0  0  0  0  0  0  0  0  0  0  0
   37.9532   13.2175  -14.0312 C   0  0  0  0  0  0  0  0  0  0  0  0
   38.2283   14.2943  -13.1796 C   0  0  0  0  0  0  0  0  0  0  0  0
   39.4669   14.9048  -13.2338 C   0  0  0  0  0  0  0  0  0  0  0  0
   40.4434   14.4609  -14.1260 C   0  0  0  0  0  0  0  0  0  0  0  0
   40.1814   13.4002  -14.9702 C   0  0  0  0  0  0  0  0  0  0  0  0
   37.2338   14.7191  -12.2674 N   0  0  0  0  0  0  0  0  0  0  0  0
   37.0644   14.1613  -10.9406 C   0  0  0  0  0  0  0  0  0  0  0  0
   37.6813   15.2124  -10.0121 C   0  0  0  0  0  0  0  0  0  0  0  0
   37.1432   16.5703  -10.3140 C   0  0  0  0  0  0  0  0  0  0  0  0
   35.9824   16.5644  -11.2828 C   0  0  0  0  0  0  0  0  0  0  0  0
   36.2836   15.8066  -12.5635 C   0  0  0  0  0  0  0  0  0  0  0  0
   36.7795   17.3645   -9.1827 N   0  0  0  0  0  0  0  0  0  0  0  0
   35.6951   16.9931   -8.2747 C   0  0  0  0  0  0  0  0  0  0  0  0
   36.0993   17.1450   -6.8508 C   0  0  0  0  0  0  0  0  0  0  0  0
   37.3725   17.8003   -6.6770 N   0  0  0  0  0  0  0  0  0  0  0  0
   37.6178   18.1580   -5.2988 C   0  0  0  0  0  0  0  0  0  0  0  0
   37.4822   19.0044   -7.4731 C   0  0  0  0  0  0  0  0  0  0  0  0
   37.4720   18.5668   -8.8915 C   0  0  0  0  0  0  0  0  0  0  0  0
   38.0644   19.2469   -9.7962 O   0  0  0  0  0  0  0  0  0  0  0  0
   37.3213   11.5737  -16.2554 C   0  0  0  0  0  0  0  0  0  0  0  0
   38.6218   11.6915  -15.7381 O   0  0  0  0  0  0  0  0  0  0  0  0
 44 45  1  0  0  0
 45 24  1  0  0  0
 24 25  2  0  0  0
 25 26  1  0  0  0
 26 27  2  0  0  0
 27 28  1  0  0  0
 28 29  2  0  0  0
 29  1  1  0  0  0
  1  3  1  0  0  0
  3  4  2  0  0  0
  4  5  1  0  0  0
  5  6  2  0  0  0
  6  7  1  0  0  0
  6  8  1  0  0  0
  8 10  1  0  0  0
 10 12  1  0  0  0
 12 13  2  0  0  0
 13 14  1  0  0  0
 14 15  2  0  0  0
 15 16  1  0  0  0
 16 17  2  0  0  0
 17 18  1  0  0  0
 18 19  2  0  0  0
 18 20  2  0  0  0
 18 21  1  0  0  0
 21 22  1  0  0  0
 21 23  1  0  0  0
  8  9  2  0  0  0
 26 30  1  0  0  0
 30 31  1  0  0  0
 31 32  1  0  0  0
 32 33  1  0  0  0
 33 34  1  0  0  0
 34 35  1  0  0  0
 33 36  1  0  0  0
 36 37  1  0  0  0
 37 38  1  0  0  0
 38 39  1  0  0  0
 39 40  1  0  0  0
 39 41  1  0  0  0
 41 42  1  0  0  0
 42 43  2  0  0  0
 29 24  1  0  0  0
  9  3  1  0  0  0
 35 30  1  0  0  0
 42 36  1  0  0  0
 17 12  1  0  0  0
  1  2  1  0  0  0
 10 11  1  0  0  0
M  END
> <minimizedAffinity>
-8.23850

> <CNNscore>
0.0656222478

> <CNNaffinity>
6.8970475197

> <CNN_VS>
0.4525997639

> <CNNaffinity_variance>
0.4236918390

$$$$
[H]c1nc(N([H])c2c([H])c([H])c(N3C([H])([H])C([H])([H])C([H])(N4C(=O)C([H])([H])N(C([H])([H])[H])C([H])([H])C4([H])[H])C([H])([H])C3([H])[H])c([H])c2OC([H])([H])[H])nc(N([H])c2c([H])c([H])c([H])c([H])c2S(=O)(=O)C([H])(C([H])([H])[H])C([H])([H])[H])c1Cl


 45 49  0  0  0  0  0  0  0  0999 V2000
   43.7130   14.3576  -13.0014 N   0  0  0  0  0  0  0  0  0  0  0  0
   44.7051   14.4844  -13.3547 H   0  0  0  0  0  0  0  0  0  0  0  0
   42.7878   13.8759  -13.9174 C   0  0  0  0  0  0  0  0  0  0  0  0
   43.0164   13.2835  -15.0879 N   0  0  0  0  0  0  0  0  0  0  0  0
   42.0589   12.9020  -15.9328 C   0  0  0  0  0  0  0  0  0  0  0  0
   40.7472   13.1227  -15.6019 C   0  0  0  0  0  0  0  0  0  0  0  0
   39.4923   12.6405  -16.7035 Cl  0  0  0  0  0  0  0  0  0  0  0  0
   40.4348   13.7507  -14.3697 C   0  0  0  0  0  0  0  0  0  0  0  0
   41.4680   14.0772  -13.6228 N   0  0  0  0  0  0  0  0  0  0  0  0
   39.0820   14.0281  -14.0926 N   0  0  0  0  0  0  0  0  0  0  0  0
   38.4173   13.8034  -14.8955 H   0  0  0  0  0  0  0  0  0  0  0  0
   38.5468   14.5450  -12.8962 C   0  0  0  0  0  0  0  0  0  0  0  0
   39.0957   15.5916  -12.1899 C   0  0  0  0  0  0  0  0  0  0  0  0
   38.5114   16.0472  -11.0077 C   0  0  0  0  0  0  0  0  0  0  0  0
   37.3904   15.4794  -10.5155 C   0  0  0  0  0  0  0  0  0  0  0  0
   36.8297   14.4206  -11.2221 C   0  0  0  0  0  0  0  0  0  0  0  0
   37.3736   13.9439  -12.3870 C   0  0  0  0  0  0  0  0  0  0  0  0
   36.6630   12.6148  -13.2476 S   0  0  0  0  0  0  0  0  0  0  0  0
   37.7011   11.5800  -13.5980 O   0  0  0  0  0  0  0  0  0  0  0  0
   35.6201   11.9333  -12.3874 O   0  0  0  0  0  0  0  0  0  0  0  0
   35.8345   13.0816  -14.7475 C   0  0  0  0  0  0  0  0  0  0  0  0
   36.0431   12.1502  -15.8843 C   0  0  0  0  0  0  0  0  0  0  0  0
   34.3646   13.3609  -14.5503 C   0  0  0  0  0  0  0  0  0  0  0  0
   43.7148   13.6585  -10.7291 C   0  0  0  0  0  0  0  0  0  0  0  0
   43.4246   13.8155   -9.3958 C   0  0  0  0  0  0  0  0  0  0  0  0
   42.8731   15.0212   -8.9460 C   0  0  0  0  0  0  0  0  0  0  0  0
   42.6277   16.0362   -9.8511 C   0  0  0  0  0  0  0  0  0  0  0  0
   42.9227   15.8724  -11.2050 C   0  0  0  0  0  0  0  0  0  0  0  0
   43.4663   14.6869  -11.6583 C   0  0  0  0  0  0  0  0  0  0  0  0
   42.5982   15.1777   -7.5670 N   0  0  0  0  0  0  0  0  0  0  0  0
   42.2418   16.4414   -6.9534 C   0  0  0  0  0  0  0  0  0  0  0  0
   40.7262   16.3441   -6.7515 C   0  0  0  0  0  0  0  0  0  0  0  0
   40.3607   15.0673   -6.0728 C   0  0  0  0  0  0  0  0  0  0  0  0
   41.5498   14.2913   -5.5532 C   0  0  0  0  0  0  0  0  0  0  0  0
   42.6113   14.0544   -6.6125 C   0  0  0  0  0  0  0  0  0  0  0  0
   39.3984   15.1713   -5.0212 N   0  0  0  0  0  0  0  0  0  0  0  0
   39.5727   16.0676   -3.8790 C   0  0  0  0  0  0  0  0  0  0  0  0
   38.3277   16.8280   -3.5869 C   0  0  0  0  0  0  0  0  0  0  0  0
   37.1853   16.3826   -4.3466 N   0  0  0  0  0  0  0  0  0  0  0  0
   35.9515   16.9599   -3.8648 C   0  0  0  0  0  0  0  0  0  0  0  0
   37.0393   14.9426   -4.3229 C   0  0  0  0  0  0  0  0  0  0  0  0
   38.2131   14.3941   -5.0473 C   0  0  0  0  0  0  0  0  0  0  0  0
   38.1455   13.2768   -5.6630 O   0  0  0  0  0  0  0  0  0  0  0  0
   45.3074   11.8790  -10.3770 C   0  0  0  0  0  0  0  0  0  0  0  0
   44.2820   12.4466  -11.1510 O   0  0  0  0  0  0  0  0  0  0  0  0
 44 45  1  0  0  0
 45 24  1  0  0  0
 24 25  2  0  0  0
 25 26  1  0  0  0
 26 27  2  0  0  0
 27 28  1  0  0  0
 28 29  2  0  0  0
 29  1  1  0  0  0
  1  3  1  0  0  0
  3  4  2  0  0  0
  4  5  1  0  0  0
  5  6  2  0  0  0
  6  7  1  0  0  0
  6  8  1  0  0  0
  8 10  1  0  0  0
 10 12  1  0  0  0
 12 13  2  0  0  0
 13 14  1  0  0  0
 14 15  2  0  0  0
 15 16  1  0  0  0
 16 17  2  0  0  0
 17 18  1  0  0  0
 18 19  2  0  0  0
 18 20  2  0  0  0
 18 21  1  0  0  0
 21 22  1  0  0  0
 21 23  1  0  0  0
  8  9  2  0  0  0
 26 30  1  0  0  0
 30 31  1  0  0  0
 31 32  1  0  0  0
 32 33  1  0  0  0
 33 34  1  0  0  0
 34 35  1  0  0  0
 33 36  1  0  0  0
 36 37  1  0  0  0
 37 38  1  0  0  0
 38 39  1  0  0  0
 39 40  1  0  0  0
 39 41  1  0  0  0
 41 42  1  0  0  0
 42 43  2  0  0  0
 29 24  1  0  0  0
  9  3  1  0  0  0
 35 30  1  0  0  0
 42 36  1  0  0  0
 17 12  1  0  0  0
  1  2  1  0  0  0
 10 11  1  0  0  0
M  END
> <minimizedAffinity>
-8.59405

> <CNNscore>
0.0637165755

> <CNNaffinity>
6.8151626587

> <CNN_VS>
0.4342388213

> <CNNaffinity_variance>
0.4569856524

$$$$
[H]c1nc(N([H])c2c([H])c([H])c(N3C([H])([H])C([H])([H])C([H])(N4C(=O)C([H])([H])N(C([H])([H])[H])C([H])([H])C4([H])[H])C([H])([H])C3([H])[H])c([H])c2OC([H])([H])[H])nc(N([H])c2c([H])c([H])c([H])c([H])c2S(=O)(=O)C([H])(C([H])([H])[H])C([H])([H])[H])c1Cl


 45 49  0  0  0  0  0  0  0  0999 V2000
   40.2439   13.3862  -15.4016 N   0  0  0  0  0  0  0  0  0  0  0  0
   39.6217   13.1374  -16.2238 H   0  0  0  0  0  0  0  0  0  0  0  0
   41.6081   13.2023  -15.5815 C   0  0  0  0  0  0  0  0  0  0  0  0
   42.2273   12.4566  -16.4945 N   0  0  0  0  0  0  0  0  0  0  0  0
   43.5487   12.2942  -16.5566 C   0  0  0  0  0  0  0  0  0  0  0  0
   44.3444   12.9217  -15.6337 C   0  0  0  0  0  0  0  0  0  0  0  0
   46.0676   12.7050  -15.6988 Cl  0  0  0  0  0  0  0  0  0  0  0  0
   43.7480   13.7300  -14.6331 C   0  0  0  0  0  0  0  0  0  0  0  0
   42.4354   13.8124  -14.6800 N   0  0  0  0  0  0  0  0  0  0  0  0
   44.5871   14.3018  -13.6571 N   0  0  0  0  0  0  0  0  0  0  0  0
   45.3840   14.8876  -14.0557 H   0  0  0  0  0  0  0  0  0  0  0  0
   44.4690   14.1839  -12.2581 C   0  0  0  0  0  0  0  0  0  0  0  0
   44.0187   13.0555  -11.6105 C   0  0  0  0  0  0  0  0  0  0  0  0
   43.9238   13.0135  -10.2192 C   0  0  0  0  0  0  0  0  0  0  0  0
   44.2687   14.0750   -9.4606 C   0  0  0  0  0  0  0  0  0  0  0  0
   44.7236   15.2197  -10.1066 C   0  0  0  0  0  0  0  0  0  0  0  0
   44.8310   15.3004  -11.4712 C   0  0  0  0  0  0  0  0  0  0  0  0
   45.3919   16.7424  -12.2574 S   0  0  0  0  0  0  0  0  0  0  0  0
   44.5114   17.0981  -13.4277 O   0  0  0  0  0  0  0  0  0  0  0  0
   45.3552   17.9104  -11.2948 O   0  0  0  0  0  0  0  0  0  0  0  0
   47.0641   16.6437  -12.8471 C   0  0  0  0  0  0  0  0  0  0  0  0
   47.8473   15.5090  -12.2972 C   0  0  0  0  0  0  0  0  0  0  0  0
   47.1648   16.6807  -14.3525 C   0  0  0  0  0  0  0  0  0  0  0  0
   38.4629   13.1630  -13.8427 C   0  0  0  0  0  0  0  0  0  0  0  0
   37.6954   13.5884  -12.7861 C   0  0  0  0  0  0  0  0  0  0  0  0
   38.0589   14.7478  -12.0904 C   0  0  0  0  0  0  0  0  0  0  0  0
   39.1852   15.4483  -12.4782 C   0  0  0  0  0  0  0  0  0  0  0  0
   39.9617   15.0137  -13.5529 C   0  0  0  0  0  0  0  0  0  0  0  0
   39.6110   13.8719  -14.2455 C   0  0  0  0  0  0  0  0  0  0  0  0
   37.2716   15.1635  -10.9909 N   0  0  0  0  0  0  0  0  0  0  0  0
   37.5925   14.8645   -9.6096 C   0  0  0  0  0  0  0  0  0  0  0  0
   38.1749   16.1747   -9.0696 C   0  0  0  0  0  0  0  0  0  0  0  0
   37.2793   17.3249   -9.3850 C   0  0  0  0  0  0  0  0  0  0  0  0
   35.9369   16.9157   -9.9475 C   0  0  0  0  0  0  0  0  0  0  0  0
   36.0537   15.9808  -11.1381 C   0  0  0  0  0  0  0  0  0  0  0  0
   37.0560   18.2534   -8.3216 N   0  0  0  0  0  0  0  0  0  0  0  0
   37.6544   19.5876   -8.3013 C   0  0  0  0  0  0  0  0  0  0  0  0
   36.6576   20.6273   -7.9286 C   0  0  0  0  0  0  0  0  0  0  0  0
   35.3965   20.0873   -7.4830 N   0  0  0  0  0  0  0  0  0  0  0  0
   34.5483   21.0979   -6.8942 C   0  0  0  0  0  0  0  0  0  0  0  0
   35.5668   19.0299   -6.5092 C   0  0  0  0  0  0  0  0  0  0  0  0
   36.2272   17.9092   -7.2242 C   0  0  0  0  0  0  0  0  0  0  0  0
   36.0475   16.6976   -6.8611 O   0  0  0  0  0  0  0  0  0  0  0  0
   36.8686   11.9771  -15.2133 C   0  0  0  0  0  0  0  0  0  0  0  0
   38.0857   11.9894  -14.5125 O   0  0  0  0  0  0  0  0  0  0  0  0
 44 45  1  0  0  0
 45 24  1  0  0  0
 24 25  2  0  0  0
 25 26  1  0  0  0
 26 27  2  0  0  0
 27 28  1  0  0  0
 28 29  2  0  0  0
 29  1  1  0  0  0
  1  3  1  0  0  0
  3  4  2  0  0  0
  4  5  1  0  0  0
  5  6  2  0  0  0
  6  7  1  0  0  0
  6  8  1  0  0  0
  8 10  1  0  0  0
 10 12  1  0  0  0
 12 13  2  0  0  0
 13 14  1  0  0  0
 14 15  2  0  0  0
 15 16  1  0  0  0
 16 17  2  0  0  0
 17 18  1  0  0  0
 18 19  2  0  0  0
 18 20  2  0  0  0
 18 21  1  0  0  0
 21 22  1  0  0  0
 21 23  1  0  0  0
  8  9  2  0  0  0
 26 30  1  0  0  0
 30 31  1  0  0  0
 31 32  1  0  0  0
 32 33  1  0  0  0
 33 34  1  0  0  0
 34 35  1  0  0  0
 33 36  1  0  0  0
 36 37  1  0  0  0
 37 38  1  0  0  0
 38 39  1  0  0  0
 39 40  1  0  0  0
 39 41  1  0  0  0
 41 42  1  0  0  0
 42 43  2  0  0  0
 29 24  1  0  0  0
  9  3  1  0  0  0
 35 30  1  0  0  0
 42 36  1  0  0  0
 17 12  1  0  0  0
  1  2  1  0  0  0
 10 11  1  0  0  0
M  END
> <minimizedAffinity>
-7.47843

> <CNNscore>
0.0568813644

> <CNNaffinity>
6.7909150124

> <CNN_VS>
0.3862765133

> <CNNaffinity_variance>
0.3926395476

$$$$
[H]c1nc(N([H])c2c([H])c([H])c(N3C([H])([H])C([H])([H])C([H])(N4C(=O)C([H])([H])N(C([H])([H])[H])C([H])([H])C4([H])[H])C([H])([H])C3([H])[H])c([H])c2OC([H])([H])[H])nc(N([H])c2c([H])c([H])c([H])c([H])c2S(=O)(=O)C([H])(C([H])([H])[H])C([H])([H])[H])c1Cl


 45 49  0  0  0  0  0  0  0  0999 V2000
   39.5699   14.6134  -14.5874 N   0  0  0  0  0  0  0  0  0  0  0  0
   38.7413   14.8273  -15.2141 H   0  0  0  0  0  0  0  0  0  0  0  0
   40.6319   13.9403  -15.1757 C   0  0  0  0  0  0  0  0  0  0  0  0
   40.6326   13.2142  -16.2919 N   0  0  0  0  0  0  0  0  0  0  0  0
   41.6938   12.5531  -16.7536 C   0  0  0  0  0  0  0  0  0  0  0  0
   42.8715   12.6056  -16.0543 C   0  0  0  0  0  0  0  0  0  0  0  0
   44.2569   11.7361  -16.6419 Cl  0  0  0  0  0  0  0  0  0  0  0  0
   42.9382   13.3607  -14.8561 C   0  0  0  0  0  0  0  0  0  0  0  0
   41.8245   13.9691  -14.5077 N   0  0  0  0  0  0  0  0  0  0  0  0
   44.1411   13.3352  -14.1240 N   0  0  0  0  0  0  0  0  0  0  0  0
   44.6807   12.4189  -14.2032 H   0  0  0  0  0  0  0  0  0  0  0  0
   44.6805   14.3714  -13.3364 C   0  0  0  0  0  0  0  0  0  0  0  0
   44.0482   15.5702  -13.0940 C   0  0  0  0  0  0  0  0  0  0  0  0
   44.6473   16.5535  -12.3061 C   0  0  0  0  0  0  0  0  0  0  0  0
   45.8648   16.3652  -11.7553 C   0  0  0  0  0  0  0  0  0  0  0  0
   46.5112   15.1574  -11.9959 C   0  0  0  0  0  0  0  0  0  0  0  0
   45.9563   14.1667  -12.7643 C   0  0  0  0  0  0  0  0  0  0  0  0
   46.7849   12.6706  -13.0599 S   0  0  0  0  0  0  0  0  0  0  0  0
   46.7043   12.2856  -14.5147 O   0  0  0  0  0  0  0  0  0  0  0  0
   48.2517   12.8080  -12.7109 O   0  0  0  0  0  0  0  0  0  0  0  0
   46.1777   11.3035  -12.1026 C   0  0  0  0  0  0  0  0  0  0  0  0
   47.2165   10.3245  -11.6955 C   0  0  0  0  0  0  0  0  0  0  0  0
   45.3543   11.7324  -10.9129 C   0  0  0  0  0  0  0  0  0  0  0  0
   38.3027   14.6907  -12.5774 C   0  0  0  0  0  0  0  0  0  0  0  0
   38.0526   15.1277  -11.2995 C   0  0  0  0  0  0  0  0  0  0  0  0
   38.9928   15.9359  -10.6491 C   0  0  0  0  0  0  0  0  0  0  0  0
   40.1594   16.2830  -11.3034 C   0  0  0  0  0  0  0  0  0  0  0  0
   40.4093   15.8381  -12.6020 C   0  0  0  0  0  0  0  0  0  0  0  0
   39.4879   15.0413  -13.2520 C   0  0  0  0  0  0  0  0  0  0  0  0
   38.7325   16.3621   -9.3254 N   0  0  0  0  0  0  0  0  0  0  0  0
   37.4525   16.8752   -8.8797 C   0  0  0  0  0  0  0  0  0  0  0  0
   36.8281   15.7053   -8.1122 C   0  0  0  0  0  0  0  0  0  0  0  0
   37.7875   15.1518   -7.1134 C   0  0  0  0  0  0  0  0  0  0  0  0
   39.0333   15.9898   -6.9355 C   0  0  0  0  0  0  0  0  0  0  0  0
   39.7354   16.2931   -8.2472 C   0  0  0  0  0  0  0  0  0  0  0  0
   37.2493   14.8678   -5.8201 N   0  0  0  0  0  0  0  0  0  0  0  0
   37.4320   15.7611   -4.6768 C   0  0  0  0  0  0  0  0  0  0  0  0
   36.1580   15.9677   -3.9365 C   0  0  0  0  0  0  0  0  0  0  0  0
   35.0873   15.1063   -4.3748 N   0  0  0  0  0  0  0  0  0  0  0  0
   33.9526   15.1492   -3.4813 C   0  0  0  0  0  0  0  0  0  0  0  0
   35.5073   13.7258   -4.4909 C   0  0  0  0  0  0  0  0  0  0  0  0
   36.5011   13.6854   -5.5928 C   0  0  0  0  0  0  0  0  0  0  0  0
   36.6631   12.6318   -6.2969 O   0  0  0  0  0  0  0  0  0  0  0  0
   36.0842   14.4035  -13.4845 C   0  0  0  0  0  0  0  0  0  0  0  0
   37.3515   13.8687  -13.2003 O   0  0  0  0  0  0  0  0  0  0  0  0
 44 45  1  0  0  0
 45 24  1  0  0  0
 24 25  2  0  0  0
 25 26  1  0  0  0
 26 27  2  0  0  0
 27 28  1  0  0  0
 28 29  2  0  0  0
 29  1  1  0  0  0
  1  3  1  0  0  0
  3  4  2  0  0  0
  4  5  1  0  0  0
  5  6  2  0  0  0
  6  7  1  0  0  0
  6  8  1  0  0  0
  8 10  1  0  0  0
 10 12  1  0  0  0
 12 13  2  0  0  0
 13 14  1  0  0  0
 14 15  2  0  0  0
 15 16  1  0  0  0
 16 17  2  0  0  0
 17 18  1  0  0  0
 18 19  2  0  0  0
 18 20  2  0  0  0
 18 21  1  0  0  0
 21 22  1  0  0  0
 21 23  1  0  0  0
  8  9  2  0  0  0
 26 30  1  0  0  0
 30 31  1  0  0  0
 31 32  1  0  0  0
 32 33  1  0  0  0
 33 34  1  0  0  0
 34 35  1  0  0  0
 33 36  1  0  0  0
 36 37  1  0  0  0
 37 38  1  0  0  0
 38 39  1  0  0  0
 39 40  1  0  0  0
 39 41  1  0  0  0
 41 42  1  0  0  0
 42 43  2  0  0  0
 29 24  1  0  0  0
  9  3  1  0  0  0
 35 30  1  0  0  0
 42 36  1  0  0  0
 17 12  1  0  0  0
  1  2  1  0  0  0
 10 11  1  0  0  0
M  END
> <minimizedAffinity>
-8.31321

> <CNNscore>
0.0535458140

> <CNNaffinity>
6.4126677513

> <CNN_VS>
0.3433715105

> <CNNaffinity_variance>
0.4946168959

$$$$
[H]c1nc(N([H])c2c([H])c([H])c(N3C([H])([H])C([H])([H])C([H])(N4C(=O)C([H])([H])N(C([H])([H])[H])C([H])([H])C4([H])[H])C([H])([H])C3([H])[H])c([H])c2OC([H])([H])[H])nc(N([H])c2c([H])c([H])c([H])c([H])c2S(=O)(=O)C([H])(C([H])([H])[H])C([H])([H])[H])c1Cl


 45 49  0  0  0  0  0  0  0  0999 V2000
   41.0014   12.7879  -15.9018 N   0  0  0  0  0  0  0  0  0  0  0  0
   41.2233   12.4322  -16.8762 H   0  0  0  0  0  0  0  0  0  0  0  0
   39.6580   12.8479  -15.5571 C   0  0  0  0  0  0  0  0  0  0  0  0
   38.6393   12.1719  -16.0849 N   0  0  0  0  0  0  0  0  0  0  0  0
   37.3663   12.3368  -15.7262 C   0  0  0  0  0  0  0  0  0  0  0  0
   37.0576   13.2547  -14.7562 C   0  0  0  0  0  0  0  0  0  0  0  0
   35.3990   13.4859  -14.2913 Cl  0  0  0  0  0  0  0  0  0  0  0  0
   38.0961   14.0092  -14.1540 C   0  0  0  0  0  0  0  0  0  0  0  0
   39.3099   13.7524  -14.5927 N   0  0  0  0  0  0  0  0  0  0  0  0
   37.7383   14.9945  -13.2132 N   0  0  0  0  0  0  0  0  0  0  0  0
   36.7653   15.4052  -13.3604 H   0  0  0  0  0  0  0  0  0  0  0  0
   38.5129   15.4610  -12.1328 C   0  0  0  0  0  0  0  0  0  0  0  0
   39.8473   15.7882  -12.2200 C   0  0  0  0  0  0  0  0  0  0  0  0
   40.5521   16.2401  -11.1038 C   0  0  0  0  0  0  0  0  0  0  0  0
   39.9524   16.3718   -9.9021 C   0  0  0  0  0  0  0  0  0  0  0  0
   38.6046   16.0424   -9.8047 C   0  0  0  0  0  0  0  0  0  0  0  0
   37.8776   15.5949  -10.8776 C   0  0  0  0  0  0  0  0  0  0  0  0
   36.1987   15.1799  -10.7316 S   0  0  0  0  0  0  0  0  0  0  0  0
   35.3607   15.9628  -11.7093 O   0  0  0  0  0  0  0  0  0  0  0  0
   35.9949   13.7114  -11.0386 O   0  0  0  0  0  0  0  0  0  0  0  0
   35.5253   15.4410   -9.1092 C   0  0  0  0  0  0  0  0  0  0  0  0
   36.1105   14.5798   -8.0512 C   0  0  0  0  0  0  0  0  0  0  0  0
   35.5419   16.8897   -8.6867 C   0  0  0  0  0  0  0  0  0  0  0  0
   43.3601   12.8281  -15.6074 C   0  0  0  0  0  0  0  0  0  0  0  0
   44.5026   13.0356  -14.8738 C   0  0  0  0  0  0  0  0  0  0  0  0
   44.4081   13.5757  -13.5855 C   0  0  0  0  0  0  0  0  0  0  0  0
   43.1654   13.8914  -13.0701 C   0  0  0  0  0  0  0  0  0  0  0  0
   42.0070   13.6779  -13.8179 C   0  0  0  0  0  0  0  0  0  0  0  0
   42.0899   13.1453  -15.0891 C   0  0  0  0  0  0  0  0  0  0  0  0
   45.5941   13.8038  -12.8485 N   0  0  0  0  0  0  0  0  0  0  0  0
   45.8373   14.9947  -12.0593 C   0  0  0  0  0  0  0  0  0  0  0  0
   45.6006   14.5405  -10.6153 C   0  0  0  0  0  0  0  0  0  0  0  0
   46.3618   13.2926  -10.3187 C   0  0  0  0  0  0  0  0  0  0  0  0
   47.3382   12.9016  -11.4048 C   0  0  0  0  0  0  0  0  0  0  0  0
   46.6972   12.8285  -12.7792 C   0  0  0  0  0  0  0  0  0  0  0  0
   47.0486   13.2620   -9.0656 N   0  0  0  0  0  0  0  0  0  0  0  0
   48.4590   13.6238   -8.9307 C   0  0  0  0  0  0  0  0  0  0  0  0
   48.6828   14.5236   -7.7670 C   0  0  0  0  0  0  0  0  0  0  0  0
   47.5225   14.6803   -6.9245 N   0  0  0  0  0  0  0  0  0  0  0  0
   47.8375   15.3455   -5.6812 C   0  0  0  0  0  0  0  0  0  0  0  0
   46.9033   13.4118   -6.6035 C   0  0  0  0  0  0  0  0  0  0  0  0
   46.3736   12.8731   -7.8812 C   0  0  0  0  0  0  0  0  0  0  0  0
   45.3567   12.1001   -7.9003 O   0  0  0  0  0  0  0  0  0  0  0  0
   44.7584   11.9215  -17.3537 C   0  0  0  0  0  0  0  0  0  0  0  0
   43.4839   12.3010  -16.9016 O   0  0  0  0  0  0  0  0  0  0  0  0
 44 45  1  0  0  0
 45 24  1  0  0  0
 24 25  2  0  0  0
 25 26  1  0  0  0
 26 27  2  0  0  0
 27 28  1  0  0  0
 28 29  2  0  0  0
 29  1  1  0  0  0
  1  3  1  0  0  0
  3  4  2  0  0  0
  4  5  1  0  0  0
  5  6  2  0  0  0
  6  7  1  0  0  0
  6  8  1  0  0  0
  8 10  1  0  0  0
 10 12  1  0  0  0
 12 13  2  0  0  0
 13 14  1  0  0  0
 14 15  2  0  0  0
 15 16  1  0  0  0
 16 17  2  0  0  0
 17 18  1  0  0  0
 18 19  2  0  0  0
 18 20  2  0  0  0
 18 21  1  0  0  0
 21 22  1  0  0  0
 21 23  1  0  0  0
  8  9  2  0  0  0
 26 30  1  0  0  0
 30 31  1  0  0  0
 31 32  1  0  0  0
 32 33  1  0  0  0
 33 34  1  0  0  0
 34 35  1  0  0  0
 33 36  1  0  0  0
 36 37  1  0  0  0
 37 38  1  0  0  0
 38 39  1  0  0  0
 39 40  1  0  0  0
 39 41  1  0  0  0
 41 42  1  0  0  0
 42 43  2  0  0  0
 29 24  1  0  0  0
  9  3  1  0  0  0
 35 30  1  0  0  0
 42 36  1  0  0  0
 17 12  1  0  0  0
  1  2  1  0  0  0
 10 11  1  0  0  0
M  END
> <minimizedAffinity>
-7.61555

> <CNNscore>
0.0466781035

> <CNNaffinity>
6.8416533470

> <CNN_VS>
0.3193553984

> <CNNaffinity_variance>
0.1949872375

$$$$
[H]c1nn(C([H])([H])[H])c([H])c1-c1c([H])c([H])n2c(-c3c([H])c(N([H])C(=O)c4c([H])c([H])c(C([H])([H])N5C([H])([H])C([H])([H])N(C([H])([H])[H])C([H])([H])C5([H])[H])c([H])c4[H])c([H])c([H])c3C([H])([H])[H])c([H])nc2c1[H]


 40 45  0  0  0  0  0  0  0  0999 V2000
   43.3117   13.7507  -13.1106 C   0  0  0  0  0  0  0  0  0  0  0  0
   44.6573   13.6332  -13.5194 C   0  0  0  0  0  0  0  0  0  0  0  0
   44.9519   13.2031  -14.7771 C   0  0  0  0  0  0  0  0  0  0  0  0
   43.9596   12.8674  -15.6998 C   0  0  0  0  0  0  0  0  0  0  0  0
   44.4037   12.4468  -17.0609 C   0  0  0  0  0  0  0  0  0  0  0  0
   42.6250   12.9681  -15.3387 C   0  0  0  0  0  0  0  0  0  0  0  0
   42.3621   13.4144  -14.0289 C   0  0  0  0  0  0  0  0  0  0  0  0
   41.5437   12.5204  -16.2073 C   0  0  0  0  0  0  0  0  0  0  0  0
   41.5941   12.2382  -17.5520 C   0  0  0  0  0  0  0  0  0  0  0  0
   40.3598   11.9440  -18.0028 N   0  0  0  0  0  0  0  0  0  0  0  0
   39.5137   12.0320  -16.9756 C   0  0  0  0  0  0  0  0  0  0  0  0
   38.1560   11.8378  -16.9776 C   0  0  0  0  0  0  0  0  0  0  0  0
   37.4536   12.0113  -15.7936 C   0  0  0  0  0  0  0  0  0  0  0  0
   38.1317   12.3720  -14.6546 C   0  0  0  0  0  0  0  0  0  0  0  0
   39.5092   12.5472  -14.7427 C   0  0  0  0  0  0  0  0  0  0  0  0
   40.2259   12.3866  -15.8658 N   0  0  0  0  0  0  0  0  0  0  0  0
   36.0138   11.7952  -15.8381 C   0  0  0  0  0  0  0  0  0  0  0  0
   35.0346   12.2090  -14.9602 C   0  0  0  0  0  0  0  0  0  0  0  0
   33.8683   11.7692  -15.4236 N   0  0  0  0  0  0  0  0  0  0  0  0
   34.0200   11.0897  -16.5551 N   0  0  0  0  0  0  0  0  0  0  0  0
   32.9970   10.4592  -17.3574 C   0  0  0  0  0  0  0  0  0  0  0  0
   35.3528   11.0957  -16.8288 C   0  0  0  0  0  0  0  0  0  0  0  0
   42.5266   15.4358  -11.4747 C   0  0  0  0  0  0  0  0  0  0  0  0
   42.2248   16.3172  -12.3030 O   0  0  0  0  0  0  0  0  0  0  0  0
   43.0587   14.1801  -11.7792 N   0  0  0  0  0  0  0  0  0  0  0  0
   43.2840   13.5264  -10.9703 H   0  0  0  0  0  0  0  0  0  0  0  0
   41.9075   16.5166   -7.3927 C   0  0  0  0  0  0  0  0  0  0  0  0
   40.8531   16.2040   -8.1841 C   0  0  0  0  0  0  0  0  0  0  0  0
   41.0294   15.8545   -9.5060 C   0  0  0  0  0  0  0  0  0  0  0  0
   42.2765   15.8124  -10.0620 C   0  0  0  0  0  0  0  0  0  0  0  0
   43.3517   16.1341   -9.2452 C   0  0  0  0  0  0  0  0  0  0  0  0
   43.1739   16.4795   -7.9372 C   0  0  0  0  0  0  0  0  0  0  0  0
   41.7225   16.8925   -5.9739 C   0  0  0  0  0  0  0  0  0  0  0  0
   37.2975   16.4867   -5.6800 C   0  0  0  0  0  0  0  0  0  0  0  0
   37.9192   16.8973   -4.4593 N   0  0  0  0  0  0  0  0  0  0  0  0
   38.5627   18.1771   -4.5390 C   0  0  0  0  0  0  0  0  0  0  0  0
   39.8915   18.1517   -5.2507 C   0  0  0  0  0  0  0  0  0  0  0  0
   40.3176   16.8481   -5.6265 N   0  0  0  0  0  0  0  0  0  0  0  0
   40.1140   15.8201   -4.6645 C   0  0  0  0  0  0  0  0  0  0  0  0
   38.8208   15.9402   -3.9014 C   0  0  0  0  0  0  0  0  0  0  0  0
 34 35  1  0  0  0
 35 36  1  0  0  0
 36 37  1  0  0  0
 37 38  1  0  0  0
 38 33  1  0  0  0
 33 27  1  0  0  0
 27 28  2  0  0  0
 28 29  1  0  0  0
 29 30  2  0  0  0
 30 31  1  0  0  0
 31 32  2  0  0  0
 30 23  1  0  0  0
 23 24  2  0  0  0
 23 25  1  0  0  0
 25  1  1  0  0  0
  1  2  2  0  0  0
  2  3  1  0  0  0
  3  4  2  0  0  0
  4  5  1  0  0  0
  4  6  1  0  0  0
  6  7  2  0  0  0
  6  8  1  0  0  0
  8  9  2  0  0  0
  9 10  1  0  0  0
 10 11  2  0  0  0
 11 12  1  0  0  0
 12 13  2  0  0  0
 13 14  1  0  0  0
 14 15  2  0  0  0
 15 16  1  0  0  0
 13 17  1  0  0  0
 17 18  1  0  0  0
 18 19  2  0  0  0
 19 20  1  0  0  0
 20 21  1  0  0  0
 20 22  1  0  0  0
 38 39  1  0  0  0
 39 40  1  0  0  0
 40 35  1  0  0  0
 32 27  1  0  0  0
  7  1  1  0  0  0
 16  8  1  0  0  0
 22 17  2  0  0  0
 16 11  1  0  0  0
 25 26  1  0  0  0
M  END
> <minimizedAffinity>
-9.31262

> <CNNscore>
0.6503443718

> <CNNaffinity>
7.3853826523

> <CNN_VS>
4.8030419350

> <CNNaffinity_variance>
0.2636952996

$$$$
[H]c1nn(C([H])([H])[H])c([H])c1-c1c([H])c([H])n2c(-c3c([H])c(N([H])C(=O)c4c([H])c([H])c(C([H])([H])N5C([H])([H])C([H])([H])N(C([H])([H])[H])C([H])([H])C5([H])[H])c([H])c4[H])c([H])c([H])c3C([H])([H])[H])c([H])nc2c1[H]


 40 45  0  0  0  0  0  0  0  0999 V2000
   44.1639   13.9618  -13.6739 C   0  0  0  0  0  0  0  0  0  0  0  0
   45.4108   13.5727  -14.2082 C   0  0  0  0  0  0  0  0  0  0  0  0
   45.4651   12.9016  -15.3915 C   0  0  0  0  0  0  0  0  0  0  0  0
   44.3167   12.5759  -16.1151 C   0  0  0  0  0  0  0  0  0  0  0  0
   44.5042   11.8740  -17.4186 C   0  0  0  0  0  0  0  0  0  0  0  0
   43.0716   12.9391  -15.6256 C   0  0  0  0  0  0  0  0  0  0  0  0
   43.0579   13.6297  -14.3981 C   0  0  0  0  0  0  0  0  0  0  0  0
   41.8288   12.5269  -16.2656 C   0  0  0  0  0  0  0  0  0  0  0  0
   41.6453   12.0594  -17.5455 C   0  0  0  0  0  0  0  0  0  0  0  0
   40.3321   11.8756  -17.7800 N   0  0  0  0  0  0  0  0  0  0  0  0
   39.6644   12.2163  -16.6768 C   0  0  0  0  0  0  0  0  0  0  0  0
   38.3085   12.2086  -16.4710 C   0  0  0  0  0  0  0  0  0  0  0  0
   37.8151   12.6354  -15.2464 C   0  0  0  0  0  0  0  0  0  0  0  0
   38.6924   13.0535  -14.2754 C   0  0  0  0  0  0  0  0  0  0  0  0
   40.0522   13.0276  -14.5691 C   0  0  0  0  0  0  0  0  0  0  0  0
   40.5701   12.6199  -15.7380 N   0  0  0  0  0  0  0  0  0  0  0  0
   36.3697   12.6115  -15.0681 C   0  0  0  0  0  0  0  0  0  0  0  0
   35.4165   11.8512  -15.7115 C   0  0  0  0  0  0  0  0  0  0  0  0
   34.2314   12.1828  -15.2074 N   0  0  0  0  0  0  0  0  0  0  0  0
   34.3464   13.1168  -14.2696 N   0  0  0  0  0  0  0  0  0  0  0  0
   33.2939   13.7322  -13.4942 C   0  0  0  0  0  0  0  0  0  0  0  0
   35.6741   13.3965  -14.1694 C   0  0  0  0  0  0  0  0  0  0  0  0
   44.0475   13.9717  -11.2004 C   0  0  0  0  0  0  0  0  0  0  0  0
   43.9273   12.7398  -11.0526 O   0  0  0  0  0  0  0  0  0  0  0  0
   44.1608   14.6380  -12.4234 N   0  0  0  0  0  0  0  0  0  0  0  0
   44.2443   15.6988  -12.4056 H   0  0  0  0  0  0  0  0  0  0  0  0
   44.1302   16.1026   -7.5034 C   0  0  0  0  0  0  0  0  0  0  0  0
   43.5623   16.6595   -8.6005 C   0  0  0  0  0  0  0  0  0  0  0  0
   43.5267   15.9905   -9.8054 C   0  0  0  0  0  0  0  0  0  0  0  0
   44.0644   14.7412   -9.9324 C   0  0  0  0  0  0  0  0  0  0  0  0
   44.6445   14.1773   -8.8044 C   0  0  0  0  0  0  0  0  0  0  0  0
   44.6781   14.8420   -7.6133 C   0  0  0  0  0  0  0  0  0  0  0  0
   44.1708   16.8173   -6.2089 C   0  0  0  0  0  0  0  0  0  0  0  0
   39.8517   17.7635   -5.6776 C   0  0  0  0  0  0  0  0  0  0  0  0
   40.5741   17.6657   -4.4472 N   0  0  0  0  0  0  0  0  0  0  0  0
   41.5959   18.6611   -4.2947 C   0  0  0  0  0  0  0  0  0  0  0  0
   42.8447   18.3849   -5.0929 C   0  0  0  0  0  0  0  0  0  0  0  0
   42.8271   17.1370   -5.7746 N   0  0  0  0  0  0  0  0  0  0  0  0
   42.3039   16.0322   -5.0468 C   0  0  0  0  0  0  0  0  0  0  0  0
   41.1195   16.3727   -4.1806 C   0  0  0  0  0  0  0  0  0  0  0  0
 34 35  1  0  0  0
 35 36  1  0  0  0
 36 37  1  0  0  0
 37 38  1  0  0  0
 38 33  1  0  0  0
 33 27  1  0  0  0
 27 28  2  0  0  0
 28 29  1  0  0  0
 29 30  2  0  0  0
 30 31  1  0  0  0
 31 32  2  0  0  0
 30 23  1  0  0  0
 23 24  2  0  0  0
 23 25  1  0  0  0
 25  1  1  0  0  0
  1  2  2  0  0  0
  2  3  1  0  0  0
  3  4  2  0  0  0
  4  5  1  0  0  0
  4  6  1  0  0  0
  6  7  2  0  0  0
  6  8  1  0  0  0
  8  9  2  0  0  0
  9 10  1  0  0  0
 10 11  2  0  0  0
 11 12  1  0  0  0
 12 13  2  0  0  0
 13 14  1  0  0  0
 14 15  2  0  0  0
 15 16  1  0  0  0
 13 17  1  0  0  0
 17 18  1  0  0  0
 18 19  2  0  0  0
 19 20  1  0  0  0
 20 21  1  0  0  0
 20 22  1  0  0  0
 38 39  1  0  0  0
 39 40  1  0  0  0
 40 35  1  0  0  0
 32 27  1  0  0  0
  7  1  1  0  0  0
 16  8  1  0  0  0
 22 17  2  0  0  0
 16 11  1  0  0  0
 25 26  1  0  0  0
M  END
> <minimizedAffinity>
-8.50987

> <CNNscore>
0.6351056099

> <CNNaffinity>
7.3242239952

> <CNN_VS>
4.6516556740

> <CNNaffinity_variance>
0.3413537145

$$$$
[H]c1nn(C([H])([H])[H])c([H])c1-c1c([H])c([H])n2c(-c3c([H])c(N([H])C(=O)c4c([H])c([H])c(C([H])([H])N5C([H])([H])C([H])([H])N(C([H])([H])[H])C([H])([H])C5([H])[H])c([H])c4[H])c([H])c([H])c3C([H])([H])[H])c([H])nc2c1[H]


 40 45  0  0  0  0  0  0  0  0999 V2000
   36.4840   12.6009  -14.1476 C   0  0  0  0  0  0  0  0  0  0  0  0
   35.3533   12.1226  -14.8437 C   0  0  0  0  0  0  0  0  0  0  0  0
   35.4979   11.5708  -16.0799 C   0  0  0  0  0  0  0  0  0  0  0  0
   36.7423   11.4540  -16.7013 C   0  0  0  0  0  0  0  0  0  0  0  0
   36.7806   10.7955  -18.0399 C   0  0  0  0  0  0  0  0  0  0  0  0
   37.8786   11.9118  -16.0524 C   0  0  0  0  0  0  0  0  0  0  0  0
   37.6868   12.4777  -14.7769 C   0  0  0  0  0  0  0  0  0  0  0  0
   39.1890   11.9321  -16.6901 C   0  0  0  0  0  0  0  0  0  0  0  0
   39.5501   11.4083  -17.9090 C   0  0  0  0  0  0  0  0  0  0  0  0
   40.8759   11.5546  -18.0934 N   0  0  0  0  0  0  0  0  0  0  0  0
   41.3777   12.1616  -17.0170 C   0  0  0  0  0  0  0  0  0  0  0  0
   42.6843   12.4915  -16.7625 C   0  0  0  0  0  0  0  0  0  0  0  0
   42.9985   13.0973  -15.5544 C   0  0  0  0  0  0  0  0  0  0  0  0
   41.9982   13.3501  -14.6474 C   0  0  0  0  0  0  0  0  0  0  0  0
   40.7000   12.9831  -14.9879 C   0  0  0  0  0  0  0  0  0  0  0  0
   40.3537   12.3987  -16.1452 N   0  0  0  0  0  0  0  0  0  0  0  0
   44.3971   13.4319  -15.3233 C   0  0  0  0  0  0  0  0  0  0  0  0
   45.5377   12.7638  -15.7148 C   0  0  0  0  0  0  0  0  0  0  0  0
   46.5816   13.4564  -15.2685 N   0  0  0  0  0  0  0  0  0  0  0  0
   46.1972   14.5417  -14.6056 N   0  0  0  0  0  0  0  0  0  0  0  0
   47.0302   15.5395  -13.9747 C   0  0  0  0  0  0  0  0  0  0  0  0
   44.8368   14.5425  -14.6297 C   0  0  0  0  0  0  0  0  0  0  0  0
   36.3812   14.5653  -12.6435 C   0  0  0  0  0  0  0  0  0  0  0  0
   36.6729   15.4231  -13.4997 O   0  0  0  0  0  0  0  0  0  0  0  0
   36.2755   13.1907  -12.8710 N   0  0  0  0  0  0  0  0  0  0  0  0
   36.0313   12.5674  -12.0437 H   0  0  0  0  0  0  0  0  0  0  0  0
   35.7688   16.1025   -8.7094 C   0  0  0  0  0  0  0  0  0  0  0  0
   34.7727   16.1557   -9.6264 C   0  0  0  0  0  0  0  0  0  0  0  0
   34.9491   15.6676  -10.9036 C   0  0  0  0  0  0  0  0  0  0  0  0
   36.1374   15.1133  -11.2868 C   0  0  0  0  0  0  0  0  0  0  0  0
   37.1532   15.0624  -10.3422 C   0  0  0  0  0  0  0  0  0  0  0  0
   36.9753   15.5464   -9.0788 C   0  0  0  0  0  0  0  0  0  0  0  0
   35.5835   16.6255   -7.3380 C   0  0  0  0  0  0  0  0  0  0  0  0
   37.4035   20.6587   -7.8407 C   0  0  0  0  0  0  0  0  0  0  0  0
   36.8122   20.4512   -6.5551 N   0  0  0  0  0  0  0  0  0  0  0  0
   37.4467   19.4202   -5.7853 C   0  0  0  0  0  0  0  0  0  0  0  0
   37.0858   18.0219   -6.2182 C   0  0  0  0  0  0  0  0  0  0  0  0
   36.1034   17.9736   -7.2451 N   0  0  0  0  0  0  0  0  0  0  0  0
   35.0136   18.8786   -7.1137 C   0  0  0  0  0  0  0  0  0  0  0  0
   35.4008   20.2328   -6.5795 C   0  0  0  0  0  0  0  0  0  0  0  0
 34 35  1  0  0  0
 35 36  1  0  0  0
 36 37  1  0  0  0
 37 38  1  0  0  0
 38 33  1  0  0  0
 33 27  1  0  0  0
 27 28  2  0  0  0
 28 29  1  0  0  0
 29 30  2  0  0  0
 30 31  1  0  0  0
 31 32  2  0  0  0
 30 23  1  0  0  0
 23 24  2  0  0  0
 23 25  1  0  0  0
 25  1  1  0  0  0
  1  2  2  0  0  0
  2  3  1  0  0  0
  3  4  2  0  0  0
  4  5  1  0  0  0
  4  6  1  0  0  0
  6  7  2  0  0  0
  6  8  1  0  0  0
  8  9  2  0  0  0
  9 10  1  0  0  0
 10 11  2  0  0  0
 11 12  1  0  0  0
 12 13  2  0  0  0
 13 14  1  0  0  0
 14 15  2  0  0  0
 15 16  1  0  0  0
 13 17  1  0  0  0
 17 18  1  0  0  0
 18 19  2  0  0  0
 19 20  1  0  0  0
 20 21  1  0  0  0
 20 22  1  0  0  0
 38 39  1  0  0  0
 39 40  1  0  0  0
 40 35  1  0  0  0
 32 27  1  0  0  0
  7  1  1  0  0  0
 16  8  1  0  0  0
 22 17  2  0  0  0
 16 11  1  0  0  0
 25 26  1  0  0  0
M  END
> <minimizedAffinity>
-10.00660

> <CNNscore>
0.5860841274

> <CNNaffinity>
7.4139909744

> <CNN_VS>
4.3452224731

> <CNNaffinity_variance>
0.2529547811

$$$$
[H]c1nn(C([H])([H])[H])c([H])c1-c1c([H])c([H])n2c(-c3c([H])c(N([H])C(=O)c4c([H])c([H])c(C([H])([H])N5C([H])([H])C([H])([H])N(C([H])([H])[H])C([H])([H])C5([H])[H])c([H])c4[H])c([H])c([H])c3C([H])([H])[H])c([H])nc2c1[H]


 40 45  0  0  0  0  0  0  0  0999 V2000
   36.2987   12.6022  -14.4004 C   0  0  0  0  0  0  0  0  0  0  0  0
   35.2640   12.0495  -15.1849 C   0  0  0  0  0  0  0  0  0  0  0  0
   35.5516   11.4788  -16.3870 C   0  0  0  0  0  0  0  0  0  0  0  0
   36.8531   11.4141  -16.8873 C   0  0  0  0  0  0  0  0  0  0  0  0
   37.0500   10.7289  -18.1982 C   0  0  0  0  0  0  0  0  0  0  0  0
   37.8989   11.9456  -16.1486 C   0  0  0  0  0  0  0  0  0  0  0  0
   37.5599   12.5289  -14.9122 C   0  0  0  0  0  0  0  0  0  0  0  0
   39.2606   12.0210  -16.6627 C   0  0  0  0  0  0  0  0  0  0  0  0
   39.7533   11.5172  -17.8433 C   0  0  0  0  0  0  0  0  0  0  0  0
   41.0835   11.7172  -17.9045 N   0  0  0  0  0  0  0  0  0  0  0  0
   41.4591   12.3393  -16.7861 C   0  0  0  0  0  0  0  0  0  0  0  0
   42.7224   12.7201  -16.4120 C   0  0  0  0  0  0  0  0  0  0  0  0
   42.8992   13.3330  -15.1799 C   0  0  0  0  0  0  0  0  0  0  0  0
   41.8102   13.5418  -14.3688 C   0  0  0  0  0  0  0  0  0  0  0  0
   40.5647   13.1246  -14.8279 C   0  0  0  0  0  0  0  0  0  0  0  0
   40.3504   12.5316  -16.0125 N   0  0  0  0  0  0  0  0  0  0  0  0
   44.2560   13.7223  -14.8205 C   0  0  0  0  0  0  0  0  0  0  0  0
   44.6901   14.7296  -13.9853 C   0  0  0  0  0  0  0  0  0  0  0  0
   46.0195   14.6957  -13.9730 N   0  0  0  0  0  0  0  0  0  0  0  0
   46.4881   13.7258  -14.7509 N   0  0  0  0  0  0  0  0  0  0  0  0
   47.8671   13.3726  -14.9980 C   0  0  0  0  0  0  0  0  0  0  0  0
   45.4014   13.1079  -15.2880 C   0  0  0  0  0  0  0  0  0  0  0  0
   36.6201   14.3097  -12.6359 C   0  0  0  0  0  0  0  0  0  0  0  0
   37.6003   14.8777  -13.1560 O   0  0  0  0  0  0  0  0  0  0  0  0
   35.9419   13.2085  -13.1650 N   0  0  0  0  0  0  0  0  0  0  0  0
   35.1262   12.8126  -12.6078 H   0  0  0  0  0  0  0  0  0  0  0  0
   35.2830   16.0431   -8.9722 C   0  0  0  0  0  0  0  0  0  0  0  0
   36.5259   15.5111   -9.0628 C   0  0  0  0  0  0  0  0  0  0  0  0
   36.9777   14.9438  -10.2353 C   0  0  0  0  0  0  0  0  0  0  0  0
   36.1844   14.8995  -11.3465 C   0  0  0  0  0  0  0  0  0  0  0  0
   34.9124   15.4462  -11.2461 C   0  0  0  0  0  0  0  0  0  0  0  0
   34.4683   16.0070  -10.0842 C   0  0  0  0  0  0  0  0  0  0  0  0
   34.7944   16.6524   -7.7159 C   0  0  0  0  0  0  0  0  0  0  0  0
   35.3808   13.3197   -4.8209 C   0  0  0  0  0  0  0  0  0  0  0  0
   34.2461   14.1402   -4.5304 N   0  0  0  0  0  0  0  0  0  0  0  0
   33.2286   14.1006   -5.5410 C   0  0  0  0  0  0  0  0  0  0  0  0
   33.5509   14.9159   -6.7675 C   0  0  0  0  0  0  0  0  0  0  0  0
   34.7583   15.6597   -6.6626 N   0  0  0  0  0  0  0  0  0  0  0  0
   34.9919   16.3036   -5.4156 C   0  0  0  0  0  0  0  0  0  0  0  0
   34.5603   15.4982   -4.2180 C   0  0  0  0  0  0  0  0  0  0  0  0
 34 35  1  0  0  0
 35 36  1  0  0  0
 36 37  1  0  0  0
 37 38  1  0  0  0
 38 33  1  0  0  0
 33 27  1  0  0  0
 27 28  2  0  0  0
 28 29  1  0  0  0
 29 30  2  0  0  0
 30 31  1  0  0  0
 31 32  2  0  0  0
 30 23  1  0  0  0
 23 24  2  0  0  0
 23 25  1  0  0  0
 25  1  1  0  0  0
  1  2  2  0  0  0
  2  3  1  0  0  0
  3  4  2  0  0  0
  4  5  1  0  0  0
  4  6  1  0  0  0
  6  7  2  0  0  0
  6  8  1  0  0  0
  8  9  2  0  0  0
  9 10  1  0  0  0
 10 11  2  0  0  0
 11 12  1  0  0  0
 12 13  2  0  0  0
 13 14  1  0  0  0
 14 15  2  0  0  0
 15 16  1  0  0  0
 13 17  1  0  0  0
 17 18  1  0  0  0
 18 19  2  0  0  0
 19 20  1  0  0  0
 20 21  1  0  0  0
 20 22  1  0  0  0
 38 39  1  0  0  0
 39 40  1  0  0  0
 40 35  1  0  0  0
 32 27  1  0  0  0
  7  1  1  0  0  0
 16  8  1  0  0  0
 22 17  2  0  0  0
 16 11  1  0  0  0
 25 26  1  0  0  0
M  END
> <minimizedAffinity>
-10.66725

> <CNNscore>
0.5777652264

> <CNNaffinity>
7.4086503983

> <CNN_VS>
4.2804603577

> <CNNaffinity_variance>
0.1182551831

$$$$
[H]c1nn(C([H])([H])[H])c([H])c1-c1c([H])c([H])n2c(-c3c([H])c(N([H])C(=O)c4c([H])c([H])c(C([H])([H])N5C([H])([H])C([H])([H])N(C([H])([H])[H])C([H])([H])C5([H])[H])c([H])c4[H])c([H])c([H])c3C([H])([H])[H])c([H])nc2c1[H]


 40 45  0  0  0  0  0  0  0  0999 V2000
   44.0342   13.8243  -13.1096 C   0  0  0  0  0  0  0  0  0  0  0  0
   45.3514   13.6495  -13.5849 C   0  0  0  0  0  0  0  0  0  0  0  0
   45.5640   13.1765  -14.8437 C   0  0  0  0  0  0  0  0  0  0  0  0
   44.5133   12.8513  -15.7033 C   0  0  0  0  0  0  0  0  0  0  0  0
   44.8699   12.3798  -17.0735 C   0  0  0  0  0  0  0  0  0  0  0  0
   43.2040   13.0077  -15.2757 C   0  0  0  0  0  0  0  0  0  0  0  0
   43.0263   13.4971  -13.9670 C   0  0  0  0  0  0  0  0  0  0  0  0
   42.0636   12.5750  -16.0735 C   0  0  0  0  0  0  0  0  0  0  0  0
   42.0491   12.1703  -17.3874 C   0  0  0  0  0  0  0  0  0  0  0  0
   40.7816   11.9402  -17.7797 N   0  0  0  0  0  0  0  0  0  0  0  0
   39.9778   12.1894  -16.7450 C   0  0  0  0  0  0  0  0  0  0  0  0
   38.6096   12.1090  -16.6967 C   0  0  0  0  0  0  0  0  0  0  0  0
   37.9607   12.4453  -15.5173 C   0  0  0  0  0  0  0  0  0  0  0  0
   38.7009   12.8491  -14.4327 C   0  0  0  0  0  0  0  0  0  0  0  0
   40.0846   12.9011  -14.5694 C   0  0  0  0  0  0  0  0  0  0  0  0
   40.7506   12.5819  -15.6898 N   0  0  0  0  0  0  0  0  0  0  0  0
   36.5075   12.3460  -15.5073 C   0  0  0  0  0  0  0  0  0  0  0  0
   35.5818   13.0628  -14.7794 C   0  0  0  0  0  0  0  0  0  0  0  0
   34.3751   12.6124  -15.1105 N   0  0  0  0  0  0  0  0  0  0  0  0
   34.4500   11.6409  -16.0136 N   0  0  0  0  0  0  0  0  0  0  0  0
   33.3644   10.9037  -16.6182 C   0  0  0  0  0  0  0  0  0  0  0  0
   35.7735   11.4613  -16.2730 C   0  0  0  0  0  0  0  0  0  0  0  0
   43.7307   15.6522  -11.4669 C   0  0  0  0  0  0  0  0  0  0  0  0
   43.7482   16.5920  -12.2858 O   0  0  0  0  0  0  0  0  0  0  0  0
   43.8671   14.2972  -11.7794 N   0  0  0  0  0  0  0  0  0  0  0  0
   43.8471   13.5978  -10.9775 H   0  0  0  0  0  0  0  0  0  0  0  0
   43.1043   16.8313   -7.4132 C   0  0  0  0  0  0  0  0  0  0  0  0
   44.2478   17.1725   -8.0550 C   0  0  0  0  0  0  0  0  0  0  0  0
   44.4723   16.8002   -9.3634 C   0  0  0  0  0  0  0  0  0  0  0  0
   43.5466   16.0731  -10.0565 C   0  0  0  0  0  0  0  0  0  0  0  0
   42.3779   15.7271   -9.3924 C   0  0  0  0  0  0  0  0  0  0  0  0
   42.1586   16.0971   -8.0975 C   0  0  0  0  0  0  0  0  0  0  0  0
   42.8597   17.2284   -6.0093 C   0  0  0  0  0  0  0  0  0  0  0  0
   45.5487   20.7696   -5.7627 C   0  0  0  0  0  0  0  0  0  0  0  0
   44.9455   20.4181   -4.5146 N   0  0  0  0  0  0  0  0  0  0  0  0
   45.3383   19.1283   -4.0243 C   0  0  0  0  0  0  0  0  0  0  0  0
   44.6594   17.9756   -4.7195 C   0  0  0  0  0  0  0  0  0  0  0  0
   43.6764   18.3738   -5.6667 N   0  0  0  0  0  0  0  0  0  0  0  0
   42.8256   19.4446   -5.2751 C   0  0  0  0  0  0  0  0  0  0  0  0
   43.5214   20.5273   -4.4923 C   0  0  0  0  0  0  0  0  0  0  0  0
 34 35  1  0  0  0
 35 36  1  0  0  0
 36 37  1  0  0  0
 37 38  1  0  0  0
 38 33  1  0  0  0
 33 27  1  0  0  0
 27 28  2  0  0  0
 28 29  1  0  0  0
 29 30  2  0  0  0
 30 31  1  0  0  0
 31 32  2  0  0  0
 30 23  1  0  0  0
 23 24  2  0  0  0
 23 25  1  0  0  0
 25  1  1  0  0  0
  1  2  2  0  0  0
  2  3  1  0  0  0
  3  4  2  0  0  0
  4  5  1  0  0  0
  4  6  1  0  0  0
  6  7  2  0  0  0
  6  8  1  0  0  0
  8  9  2  0  0  0
  9 10  1  0  0  0
 10 11  2  0  0  0
 11 12  1  0  0  0
 12 13  2  0  0  0
 13 14  1  0  0  0
 14 15  2  0  0  0
 15 16  1  0  0  0
 13 17  1  0  0  0
 17 18  1  0  0  0
 18 19  2  0  0  0
 19 20  1  0  0  0
 20 21  1  0  0  0
 20 22  1  0  0  0
 38 39  1  0  0  0
 39 40  1  0  0  0
 40 35  1  0  0  0
 32 27  1  0  0  0
  7  1  1  0  0  0
 16  8  1  0  0  0
 22 17  2  0  0  0
 16 11  1  0  0  0
 25 26  1  0  0  0
M  END
> <minimizedAffinity>
-8.66909

> <CNNscore>
0.5749027133

> <CNNaffinity>
7.1477594376

> <CNN_VS>
4.1092662811

> <CNNaffinity_variance>
0.5159670115

$$$$
[H]c1nn(C([H])([H])[H])c([H])c1-c1c([H])c([H])n2c(-c3c([H])c(N([H])C(=O)c4c([H])c([H])c(C([H])([H])N5C([H])([H])C([H])([H])N(C([H])([H])[H])C([H])([H])C5([H])[H])c([H])c4[H])c([H])c([H])c3C([H])([H])[H])c([H])nc2c1[H]


 40 45  0  0  0  0  0  0  0  0999 V2000
   35.1851   13.3002  -13.2607 C   0  0  0  0  0  0  0  0  0  0  0  0
   33.9416   12.8715  -13.7721 C   0  0  0  0  0  0  0  0  0  0  0  0
   33.8899   12.1703  -14.9379 C   0  0  0  0  0  0  0  0  0  0  0  0
   35.0380   11.8490  -15.6640 C   0  0  0  0  0  0  0  0  0  0  0  0
   34.8594   11.0422  -16.9066 C   0  0  0  0  0  0  0  0  0  0  0  0
   36.2797   12.2514  -15.1972 C   0  0  0  0  0  0  0  0  0  0  0  0
   36.2905   12.9762  -13.9896 C   0  0  0  0  0  0  0  0  0  0  0  0
   37.5042   12.0565  -15.9633 C   0  0  0  0  0  0  0  0  0  0  0  0
   37.6812   11.3220  -17.1120 C   0  0  0  0  0  0  0  0  0  0  0  0
   38.9832   11.3191  -17.4554 N   0  0  0  0  0  0  0  0  0  0  0  0
   39.6501   12.0366  -16.5502 C   0  0  0  0  0  0  0  0  0  0  0  0
   40.9979   12.2833  -16.4907 C   0  0  0  0  0  0  0  0  0  0  0  0
   41.4944   13.0366  -15.4365 C   0  0  0  0  0  0  0  0  0  0  0  0
   40.6282   13.5138  -14.4829 C   0  0  0  0  0  0  0  0  0  0  0  0
   39.2761   13.2166  -14.6217 C   0  0  0  0  0  0  0  0  0  0  0  0
   38.7553   12.4951  -15.6262 N   0  0  0  0  0  0  0  0  0  0  0  0
   42.9309   13.2762  -15.4103 C   0  0  0  0  0  0  0  0  0  0  0  0
   43.9115   12.8389  -16.2750 C   0  0  0  0  0  0  0  0  0  0  0  0
   45.0736   13.3152  -15.8377 N   0  0  0  0  0  0  0  0  0  0  0  0
   44.9177   14.0407  -14.7356 N   0  0  0  0  0  0  0  0  0  0  0  0
   45.9354   14.7199  -13.9671 C   0  0  0  0  0  0  0  0  0  0  0  0
   43.5865   14.0271  -14.4543 C   0  0  0  0  0  0  0  0  0  0  0  0
   35.8758   15.2544  -11.9057 C   0  0  0  0  0  0  0  0  0  0  0  0
   36.5734   15.8028  -12.7812 O   0  0  0  0  0  0  0  0  0  0  0  0
   35.1819   14.0506  -12.0532 N   0  0  0  0  0  0  0  0  0  0  0  0
   34.6332   13.6875  -11.2168 H   0  0  0  0  0  0  0  0  0  0  0  0
   35.6135   17.3372   -8.1897 C   0  0  0  0  0  0  0  0  0  0  0  0
   36.6446   17.5764   -9.0358 C   0  0  0  0  0  0  0  0  0  0  0  0
   36.7507   16.9134  -10.2399 C   0  0  0  0  0  0  0  0  0  0  0  0
   35.8172   15.9913  -10.6197 C   0  0  0  0  0  0  0  0  0  0  0  0
   34.7640   15.7514   -9.7479 C   0  0  0  0  0  0  0  0  0  0  0  0
   34.6618   16.4092   -8.5568 C   0  0  0  0  0  0  0  0  0  0  0  0
   35.4963   18.0461   -6.8967 C   0  0  0  0  0  0  0  0  0  0  0  0
   31.1158   18.8478   -6.8879 C   0  0  0  0  0  0  0  0  0  0  0  0
   31.8104   19.4392   -5.7865 N   0  0  0  0  0  0  0  0  0  0  0  0
   32.7661   20.4369   -6.1729 C   0  0  0  0  0  0  0  0  0  0  0  0
   34.0497   19.8737   -6.7280 C   0  0  0  0  0  0  0  0  0  0  0  0
   34.1249   18.4546   -6.6757 N   0  0  0  0  0  0  0  0  0  0  0  0
   33.6503   17.8450   -5.4811 C   0  0  0  0  0  0  0  0  0  0  0  0
   32.4253   18.5022   -4.9009 C   0  0  0  0  0  0  0  0  0  0  0  0
 34 35  1  0  0  0
 35 36  1  0  0  0
 36 37  1  0  0  0
 37 38  1  0  0  0
 38 33  1  0  0  0
 33 27  1  0  0  0
 27 28  2  0  0  0
 28 29  1  0  0  0
 29 30  2  0  0  0
 30 31  1  0  0  0
 31 32  2  0  0  0
 30 23  1  0  0  0
 23 24  2  0  0  0
 23 25  1  0  0  0
 25  1  1  0  0  0
  1  2  2  0  0  0
  2  3  1  0  0  0
  3  4  2  0  0  0
  4  5  1  0  0  0
  4  6  1  0  0  0
  6  7  2  0  0  0
  6  8  1  0  0  0
  8  9  2  0  0  0
  9 10  1  0  0  0
 10 11  2  0  0  0
 11 12  1  0  0  0
 12 13  2  0  0  0
 13 14  1  0  0  0
 14 15  2  0  0  0
 15 16  1  0  0  0
 13 17  1  0  0  0
 17 18  1  0  0  0
 18 19  2  0  0  0
 19 20  1  0  0  0
 20 21  1  0  0  0
 20 22  1  0  0  0
 38 39  1  0  0  0
 39 40  1  0  0  0
 40 35  1  0  0  0
 32 27  1  0  0  0
  7  1  1  0  0  0
 16  8  1  0  0  0
 22 17  2  0  0  0
 16 11  1  0  0  0
 25 26  1  0  0  0
M  END
> <minimizedAffinity>
-10.33867

> <CNNscore>
0.5636789203

> <CNNaffinity>
7.4511580467

> <CNN_VS>
4.2000608444

> <CNNaffinity_variance>
0.3218164444

$$$$
[H]c1nn(C([H])([H])[H])c([H])c1-c1c([H])c([H])n2c(-c3c([H])c(N([H])C(=O)c4c([H])c([H])c(C([H])([H])N5C([H])([H])C([H])([H])N(C([H])([H])[H])C([H])([H])C5([H])[H])c([H])c4[H])c([H])c([H])c3C([H])([H])[H])c([H])nc2c1[H]


 40 45  0  0  0  0  0  0  0  0999 V2000
   43.9267   13.9029  -13.5679 C   0  0  0  0  0  0  0  0  0  0  0  0
   45.1596   13.5675  -14.1672 C   0  0  0  0  0  0  0  0  0  0  0  0
   45.1823   12.9815  -15.3959 C   0  0  0  0  0  0  0  0  0  0  0  0
   44.0145   12.6933  -16.1041 C   0  0  0  0  0  0  0  0  0  0  0  0
   44.1669   12.0866  -17.4590 C   0  0  0  0  0  0  0  0  0  0  0  0
   42.7823   13.0061  -15.5513 C   0  0  0  0  0  0  0  0  0  0  0  0
   42.8013   13.6088  -14.2785 C   0  0  0  0  0  0  0  0  0  0  0  0
   41.5236   12.6244  -16.1792 C   0  0  0  0  0  0  0  0  0  0  0  0
   41.3113   12.1983  -17.4691 C   0  0  0  0  0  0  0  0  0  0  0  0
   39.9922   12.0331  -17.6834 N   0  0  0  0  0  0  0  0  0  0  0  0
   39.3490   12.3453  -16.5575 C   0  0  0  0  0  0  0  0  0  0  0  0
   37.9973   12.3430  -16.3256 C   0  0  0  0  0  0  0  0  0  0  0  0
   37.5315   12.7360  -15.0791 C   0  0  0  0  0  0  0  0  0  0  0  0
   38.4311   13.1164  -14.1130 C   0  0  0  0  0  0  0  0  0  0  0  0
   39.7847   13.0879  -14.4338 C   0  0  0  0  0  0  0  0  0  0  0  0
   40.2763   12.7120  -15.6245 N   0  0  0  0  0  0  0  0  0  0  0  0
   36.0896   12.7189  -14.8734 C   0  0  0  0  0  0  0  0  0  0  0  0
   35.1256   11.9327  -15.4675 C   0  0  0  0  0  0  0  0  0  0  0  0
   33.9496   12.2843  -14.9557 N   0  0  0  0  0  0  0  0  0  0  0  0
   34.0808   13.2561  -14.0592 N   0  0  0  0  0  0  0  0  0  0  0  0
   33.0421   13.9025  -13.2905 C   0  0  0  0  0  0  0  0  0  0  0  0
   35.4099   13.5400  -13.9951 C   0  0  0  0  0  0  0  0  0  0  0  0
   44.4299   15.7835  -12.0374 C   0  0  0  0  0  0  0  0  0  0  0  0
   44.8813   16.5608  -12.9010 O   0  0  0  0  0  0  0  0  0  0  0  0
   43.9572   14.4899  -12.2734 N   0  0  0  0  0  0  0  0  0  0  0  0
   43.6107   13.9274  -11.4391 H   0  0  0  0  0  0  0  0  0  0  0  0
   44.4936   17.4180   -8.0954 C   0  0  0  0  0  0  0  0  0  0  0  0
   43.5327   16.5319   -8.4521 C   0  0  0  0  0  0  0  0  0  0  0  0
   43.4913   15.9932   -9.7205 C   0  0  0  0  0  0  0  0  0  0  0  0
   44.4204   16.3368  -10.6611 C   0  0  0  0  0  0  0  0  0  0  0  0
   45.4016   17.2452  -10.2886 C   0  0  0  0  0  0  0  0  0  0  0  0
   45.4398   17.7765   -9.0323 C   0  0  0  0  0  0  0  0  0  0  0  0
   44.5413   17.9985   -6.7356 C   0  0  0  0  0  0  0  0  0  0  0  0
   43.9939   14.3182   -4.2886 C   0  0  0  0  0  0  0  0  0  0  0  0
   44.6512   15.3796   -3.5910 N   0  0  0  0  0  0  0  0  0  0  0  0
   43.8345   16.5447   -3.4069 C   0  0  0  0  0  0  0  0  0  0  0  0
   43.6926   17.3954   -4.6434 C   0  0  0  0  0  0  0  0  0  0  0  0
   44.4748   16.9466   -5.7429 N   0  0  0  0  0  0  0  0  0  0  0  0
   45.7966   16.5175   -5.4384 C   0  0  0  0  0  0  0  0  0  0  0  0
   45.9131   15.7597   -4.1418 C   0  0  0  0  0  0  0  0  0  0  0  0
 34 35  1  0  0  0
 35 36  1  0  0  0
 36 37  1  0  0  0
 37 38  1  0  0  0
 38 33  1  0  0  0
 33 27  1  0  0  0
 27 28  2  0  0  0
 28 29  1  0  0  0
 29 30  2  0  0  0
 30 31  1  0  0  0
 31 32  2  0  0  0
 30 23  1  0  0  0
 23 24  2  0  0  0
 23 25  1  0  0  0
 25  1  1  0  0  0
  1  2  2  0  0  0
  2  3  1  0  0  0
  3  4  2  0  0  0
  4  5  1  0  0  0
  4  6  1  0  0  0
  6  7  2  0  0  0
  6  8  1  0  0  0
  8  9  2  0  0  0
  9 10  1  0  0  0
 10 11  2  0  0  0
 11 12  1  0  0  0
 12 13  2  0  0  0
 13 14  1  0  0  0
 14 15  2  0  0  0
 15 16  1  0  0  0
 13 17  1  0  0  0
 17 18  1  0  0  0
 18 19  2  0  0  0
 19 20  1  0  0  0
 20 21  1  0  0  0
 20 22  1  0  0  0
 38 39  1  0  0  0
 39 40  1  0  0  0
 40 35  1  0  0  0
 32 27  1  0  0  0
  7  1  1  0  0  0
 16  8  1  0  0  0
 22 17  2  0  0  0
 16 11  1  0  0  0
 25 26  1  0  0  0
M  END
> <minimizedAffinity>
-8.44423

> <CNNscore>
0.5559023023

> <CNNaffinity>
7.2037796974

> <CNN_VS>
4.0045976639

> <CNNaffinity_variance>
0.3488286138

$$$$
[H]c1nn(C([H])([H])[H])c([H])c1-c1c([H])c([H])n2c(-c3c([H])c(N([H])C(=O)c4c([H])c([H])c(C([H])([H])N5C([H])([H])C([H])([H])N(C([H])([H])[H])C([H])([H])C5([H])[H])c([H])c4[H])c([H])c([H])c3C([H])([H])[H])c([H])nc2c1[H]


 40 45  0  0  0  0  0  0  0  0999 V2000
   36.2893   12.3508  -14.8467 C   0  0  0  0  0  0  0  0  0  0  0  0
   35.3527   11.7370  -15.7055 C   0  0  0  0  0  0  0  0  0  0  0  0
   35.7659   11.1803  -16.8772 C   0  0  0  0  0  0  0  0  0  0  0  0
   37.1043   11.1895  -17.2737 C   0  0  0  0  0  0  0  0  0  0  0  0
   37.4424   10.5131  -18.5602 C   0  0  0  0  0  0  0  0  0  0  0  0
   38.0567   11.7826  -16.4596 C   0  0  0  0  0  0  0  0  0  0  0  0
   37.5889   12.3489  -15.2578 C   0  0  0  0  0  0  0  0  0  0  0  0
   39.4480   11.9351  -16.8662 C   0  0  0  0  0  0  0  0  0  0  0  0
   40.0542   11.4779  -18.0125 C   0  0  0  0  0  0  0  0  0  0  0  0
   41.3733   11.7450  -17.9684 N   0  0  0  0  0  0  0  0  0  0  0  0
   41.6304   12.3646  -16.8156 C   0  0  0  0  0  0  0  0  0  0  0  0
   42.8405   12.8009  -16.3400 C   0  0  0  0  0  0  0  0  0  0  0  0
   42.8914   13.3994  -15.0892 C   0  0  0  0  0  0  0  0  0  0  0  0
   41.7346   13.5389  -14.3615 C   0  0  0  0  0  0  0  0  0  0  0  0
   40.5506   13.0686  -14.9209 C   0  0  0  0  0  0  0  0  0  0  0  0
   40.4577   12.4874  -16.1268 N   0  0  0  0  0  0  0  0  0  0  0  0
   44.1953   13.8491  -14.6210 C   0  0  0  0  0  0  0  0  0  0  0  0
   44.5140   14.8770  -13.7593 C   0  0  0  0  0  0  0  0  0  0  0  0
   45.8380   14.9017  -13.6364 N   0  0  0  0  0  0  0  0  0  0  0  0
   46.4116   13.9511  -14.3662 N   0  0  0  0  0  0  0  0  0  0  0  0
   47.8205   13.6582  -14.4955 C   0  0  0  0  0  0  0  0  0  0  0  0
   45.4013   13.2844  -14.9876 C   0  0  0  0  0  0  0  0  0  0  0  0
   36.0997   14.2513  -13.2705 C   0  0  0  0  0  0  0  0  0  0  0  0
   36.8153   15.0465  -13.9103 O   0  0  0  0  0  0  0  0  0  0  0  0
   35.8025   12.9390  -13.6474 N   0  0  0  0  0  0  0  0  0  0  0  0
   35.1866   12.3628  -12.9983 H   0  0  0  0  0  0  0  0  0  0  0  0
   34.5921   15.8139   -9.5962 C   0  0  0  0  0  0  0  0  0  0  0  0
   33.7888   15.7314  -10.6843 C   0  0  0  0  0  0  0  0  0  0  0  0
   34.2553   15.2324  -11.8819 C   0  0  0  0  0  0  0  0  0  0  0  0
   35.5461   14.8043  -12.0104 C   0  0  0  0  0  0  0  0  0  0  0  0
   36.3631   14.8921  -10.8916 C   0  0  0  0  0  0  0  0  0  0  0  0
   35.8984   15.3864   -9.7077 C   0  0  0  0  0  0  0  0  0  0  0  0
   34.0955   16.3490   -8.3096 C   0  0  0  0  0  0  0  0  0  0  0  0
   31.0691   13.2314   -7.3334 C   0  0  0  0  0  0  0  0  0  0  0  0
   31.3192   14.1449   -6.2619 N   0  0  0  0  0  0  0  0  0  0  0  0
   30.9492   15.4992   -6.5570 C   0  0  0  0  0  0  0  0  0  0  0  0
   31.9263   16.2210   -7.4498 C   0  0  0  0  0  0  0  0  0  0  0  0
   33.0906   15.4648   -7.7576 N   0  0  0  0  0  0  0  0  0  0  0  0
   33.6643   14.7311   -6.6822 C   0  0  0  0  0  0  0  0  0  0  0  0
   32.6535   14.1114   -5.7531 C   0  0  0  0  0  0  0  0  0  0  0  0
 34 35  1  0  0  0
 35 36  1  0  0  0
 36 37  1  0  0  0
 37 38  1  0  0  0
 38 33  1  0  0  0
 33 27  1  0  0  0
 27 28  2  0  0  0
 28 29  1  0  0  0
 29 30  2  0  0  0
 30 31  1  0  0  0
 31 32  2  0  0  0
 30 23  1  0  0  0
 23 24  2  0  0  0
 23 25  1  0  0  0
 25  1  1  0  0  0
  1  2  2  0  0  0
  2  3  1  0  0  0
  3  4  2  0  0  0
  4  5  1  0  0  0
  4  6  1  0  0  0
  6  7  2  0  0  0
  6  8  1  0  0  0
  8  9  2  0  0  0
  9 10  1  0  0  0
 10 11  2  0  0  0
 11 12  1  0  0  0
 12 13  2  0  0  0
 13 14  1  0  0  0
 14 15  2  0  0  0
 15 16  1  0  0  0
 13 17  1  0  0  0
 17 18  1  0  0  0
 18 19  2  0  0  0
 19 20  1  0  0  0
 20 21  1  0  0  0
 20 22  1  0  0  0
 38 39  1  0  0  0
 39 40  1  0  0  0
 40 35  1  0  0  0
 32 27  1  0  0  0
  7  1  1  0  0  0
 16  8  1  0  0  0
 22 17  2  0  0  0
 16 11  1  0  0  0
 25 26  1  0  0  0
M  END
> <minimizedAffinity>
-10.66880

> <CNNscore>
0.5431805253

> <CNNaffinity>
7.3668642044

> <CNN_VS>
4.0015373230

> <CNNaffinity_variance>
0.1242438778

$$$$
[H]c1nn(C([H])([H])[H])c([H])c1-c1c([H])c([H])n2c(-c3c([H])c(N([H])C(=O)c4c([H])c([H])c(C([H])([H])N5C([H])([H])C([H])([H])N(C([H])([H])[H])C([H])([H])C5([H])[H])c([H])c4[H])c([H])c([H])c3C([H])([H])[H])c([H])nc2c1[H]


 40 45  0  0  0  0  0  0  0  0999 V2000
   36.3622   12.7745  -13.7468 C   0  0  0  0  0  0  0  0  0  0  0  0
   35.1789   12.3879  -14.4116 C   0  0  0  0  0  0  0  0  0  0  0  0
   35.2435   11.8594  -15.6646 C   0  0  0  0  0  0  0  0  0  0  0  0
   36.4549   11.6783  -16.3340 C   0  0  0  0  0  0  0  0  0  0  0  0
   36.4029   11.0528  -17.6878 C   0  0  0  0  0  0  0  0  0  0  0  0
   37.6408   12.0452  -15.7169 C   0  0  0  0  0  0  0  0  0  0  0  0
   37.5315   12.5899  -14.4226 C   0  0  0  0  0  0  0  0  0  0  0  0
   38.9265   11.9971  -16.4018 C   0  0  0  0  0  0  0  0  0  0  0  0
   39.2293   11.3979  -17.6017 C   0  0  0  0  0  0  0  0  0  0  0  0
   40.5503   11.5001  -17.8419 N   0  0  0  0  0  0  0  0  0  0  0  0
   41.1061   12.1525  -16.8200 C   0  0  0  0  0  0  0  0  0  0  0  0
   42.4288   12.4625  -16.6319 C   0  0  0  0  0  0  0  0  0  0  0  0
   42.8021   13.1258  -15.4718 C   0  0  0  0  0  0  0  0  0  0  0  0
   41.8428   13.4535  -14.5446 C   0  0  0  0  0  0  0  0  0  0  0  0
   40.5245   13.1015  -14.8169 C   0  0  0  0  0  0  0  0  0  0  0  0
   40.1215   12.4632  -15.9264 N   0  0  0  0  0  0  0  0  0  0  0  0
   44.2159   13.4370  -15.3105 C   0  0  0  0  0  0  0  0  0  0  0  0
   45.3227   12.7857  -15.8120 C   0  0  0  0  0  0  0  0  0  0  0  0
   46.3997   13.4438  -15.3928 N   0  0  0  0  0  0  0  0  0  0  0  0
   46.0689   14.4905  -14.6444 N   0  0  0  0  0  0  0  0  0  0  0  0
   46.9501   15.4437  -14.0101 C   0  0  0  0  0  0  0  0  0  0  0  0
   44.7097   14.5016  -14.5822 C   0  0  0  0  0  0  0  0  0  0  0  0
   36.4219   14.7062  -12.1985 C   0  0  0  0  0  0  0  0  0  0  0  0
   36.7197   15.5682  -13.0483 O   0  0  0  0  0  0  0  0  0  0  0  0
   36.2379   13.3441  -12.4502 N   0  0  0  0  0  0  0  0  0  0  0  0
   35.9980   12.7144  -11.6264 H   0  0  0  0  0  0  0  0  0  0  0  0
   36.0486   16.1710   -8.2073 C   0  0  0  0  0  0  0  0  0  0  0  0
   35.0703   16.4048   -9.1152 C   0  0  0  0  0  0  0  0  0  0  0  0
   35.1710   15.9434  -10.4104 C   0  0  0  0  0  0  0  0  0  0  0  0
   36.2636   15.2338  -10.8213 C   0  0  0  0  0  0  0  0  0  0  0  0
   37.2617   14.9984   -9.8859 C   0  0  0  0  0  0  0  0  0  0  0  0
   37.1591   15.4564   -8.6046 C   0  0  0  0  0  0  0  0  0  0  0  0
   35.9446   16.6647   -6.8167 C   0  0  0  0  0  0  0  0  0  0  0  0
   32.6027   14.1163   -5.3440 C   0  0  0  0  0  0  0  0  0  0  0  0
   33.4004   14.6784   -4.2986 N   0  0  0  0  0  0  0  0  0  0  0  0
   33.3494   16.1109   -4.2376 C   0  0  0  0  0  0  0  0  0  0  0  0
   34.1791   16.7992   -5.2915 C   0  0  0  0  0  0  0  0  0  0  0  0
   34.9440   15.9082   -6.0937 N   0  0  0  0  0  0  0  0  0  0  0  0
   35.5831   14.8383   -5.4076 C   0  0  0  0  0  0  0  0  0  0  0  0
   34.7616   14.2455   -4.2929 C   0  0  0  0  0  0  0  0  0  0  0  0
 34 35  1  0  0  0
 35 36  1  0  0  0
 36 37  1  0  0  0
 37 38  1  0  0  0
 38 33  1  0  0  0
 33 27  1  0  0  0
 27 28  2  0  0  0
 28 29  1  0  0  0
 29 30  2  0  0  0
 30 31  1  0  0  0
 31 32  2  0  0  0
 30 23  1  0  0  0
 23 24  2  0  0  0
 23 25  1  0  0  0
 25  1  1  0  0  0
  1  2  2  0  0  0
  2  3  1  0  0  0
  3  4  2  0  0  0
  4  5  1  0  0  0
  4  6  1  0  0  0
  6  7  2  0  0  0
  6  8  1  0  0  0
  8  9  2  0  0  0
  9 10  1  0  0  0
 10 11  2  0  0  0
 11 12  1  0  0  0
 12 13  2  0  0  0
 13 14  1  0  0  0
 14 15  2  0  0  0
 15 16  1  0  0  0
 13 17  1  0  0  0
 17 18  1  0  0  0
 18 19  2  0  0  0
 19 20  1  0  0  0
 20 21  1  0  0  0
 20 22  1  0  0  0
 38 39  1  0  0  0
 39 40  1  0  0  0
 40 35  1  0  0  0
 32 27  1  0  0  0
  7  1  1  0  0  0
 16  8  1  0  0  0
 22 17  2  0  0  0
 16 11  1  0  0  0
 25 26  1  0  0  0
M  END
> <minimizedAffinity>
-10.31917

> <CNNscore>
0.5049673915

> <CNNaffinity>
7.2647695541

> <CNN_VS>
3.6684718132

> <CNNaffinity_variance>
0.1806346476

$$$$
[H]c1nc(N2C([H])([H])[C@@]3([H])N(C([H])([H])[H])C([H])([H])[C@@]2([H])C3([H])[H])c([H])c([H])c1-c1c([H])c([H])c(C(F)(F)F)c([H])c1[H]


 24 27  0  0  0  0  0  0  0  0999 V2000
   36.7328   14.2133   -5.8196 C   0  0  0  0  0  0  0  0  0  0  0  0
   37.6108   14.8197   -4.7653 C   0  0  0  0  0  0  0  0  0  0  0  0
   39.0667   14.4634   -4.7057 C   0  0  0  0  0  0  0  0  0  0  0  0
   39.6446   13.5007   -5.7003 C   0  0  0  0  0  0  0  0  0  0  0  0
   38.7666   12.8943   -6.7546 C   0  0  0  0  0  0  0  0  0  0  0  0
   37.3107   13.2506   -6.8142 N   0  0  0  0  0  0  0  0  0  0  0  0
   30.8152   15.9969   -6.3949 C   0  0  0  0  0  0  0  0  0  0  0  0
   32.2710   15.6406   -6.3353 N   0  0  0  0  0  0  0  0  0  0  0  0
   33.3629   16.2517   -7.1626 C   0  0  0  0  0  0  0  0  0  0  0  0
   34.6573   15.5995   -6.7765 C   0  0  0  0  0  0  0  0  0  0  0  0
   34.3655   14.5852   -5.7106 C   0  0  0  0  0  0  0  0  0  0  0  0
   32.8907   14.6107   -5.4380 C   0  0  0  0  0  0  0  0  0  0  0  0
   34.1851   13.9584   -5.0518 C   0  0  0  0  0  0  0  0  0  0  0  0
   35.2770   14.5695   -5.8792 N   0  0  0  0  0  0  0  0  0  0  0  0
   41.1004   13.1445   -5.6407 C   0  0  0  0  0  0  0  0  0  0  0  0
   42.1377   14.2279   -5.6257 C   0  0  0  0  0  0  0  0  0  0  0  0
   43.5935   13.8716   -5.5661 C   0  0  0  0  0  0  0  0  0  0  0  0
   44.0121   12.4319   -5.5215 C   0  0  0  0  0  0  0  0  0  0  0  0
   42.9748   11.3484   -5.5364 C   0  0  0  0  0  0  0  0  0  0  0  0
   41.5190   11.7047   -5.5961 C   0  0  0  0  0  0  0  0  0  0  0  0
   45.4680   12.0757   -5.4618 C   0  0  0  0  0  0  0  0  0  0  0  0
   46.9238   11.7194   -5.4022 F   0  0  0  0  0  0  0  0  0  0  0  0
   45.7797   13.4398   -4.9216 F   0  0  0  0  0  0  0  0  0  0  0  0
   45.1563   10.7115   -6.0021 F   0  0  0  0  0  0  0  0  0  0  0  0
  7  8  1  0  0  0
  8  9  1  0  0  0
  9 10  1  0  0  0
 10 11  1  0  0  0
 11 12  1  0  0  0
 12 13  1  0  0  0
 13 14  1  0  0  0
 14  1  1  0  0  0
  1  2  2  0  0  0
  2  3  1  0  0  0
  3  4  2  0  0  0
  4  5  1  0  0  0
  5  6  2  0  0  0
  4 15  1  0  0  0
 15 16  2  0  0  0
 16 17  1  0  0  0
 17 18  2  0  0  0
 18 19  1  0  0  0
 19 20  2  0  0  0
 18 21  1  0  0  0
 21 22  1  0  0  0
 21 23  1  0  0  0
 21 24  1  0  0  0
 12  8  1  0  0  0
  6  1  1  0  0  0
 20 15  1  0  0  0
 14 10  1  0  0  0
M  END
> <minimizedAffinity>
-4.94580

> <CNNscore>
0.5067608356

> <CNNaffinity>
4.6464204788

> <CNN_VS>
2.3546240330

> <CNNaffinity_variance>
0.3927254379

$$$$
[H]c1nc(N2C([H])([H])[C@@]3([H])N(C([H])([H])[H])C([H])([H])[C@@]2([H])C3([H])[H])c([H])c([H])c1-c1c([H])c([H])c(C(F)(F)F)c([H])c1[H]


 24 27  0  0  0  0  0  0  0  0999 V2000
   34.7378   15.3873   -6.7227 C   0  0  0  0  0  0  0  0  0  0  0  0
   35.7741   16.3858   -7.1458 C   0  0  0  0  0  0  0  0  0  0  0  0
   37.2185   15.9864   -7.2095 C   0  0  0  0  0  0  0  0  0  0  0  0
   37.6266   14.5885   -6.8501 C   0  0  0  0  0  0  0  0  0  0  0  0
   36.5903   13.5899   -6.4270 C   0  0  0  0  0  0  0  0  0  0  0  0
   35.1459   13.9893   -6.3633 N   0  0  0  0  0  0  0  0  0  0  0  0
   28.7670   17.0730   -6.9218 C   0  0  0  0  0  0  0  0  0  0  0  0
   30.2114   16.6735   -6.9855 N   0  0  0  0  0  0  0  0  0  0  0  0
   31.0342   16.5365   -8.2322 C   0  0  0  0  0  0  0  0  0  0  0  0
   32.4180   16.1193   -7.8309 C   0  0  0  0  0  0  0  0  0  0  0  0
   32.4505   15.9985   -6.3361 C   0  0  0  0  0  0  0  0  0  0  0  0
   31.0868   16.3410   -5.8136 C   0  0  0  0  0  0  0  0  0  0  0  0
   32.4706   15.9238   -5.4122 C   0  0  0  0  0  0  0  0  0  0  0  0
   33.2933   15.7868   -6.6590 N   0  0  0  0  0  0  0  0  0  0  0  0
   39.0711   14.1891   -6.9138 C   0  0  0  0  0  0  0  0  0  0  0  0
   39.9380   14.6859   -8.0325 C   0  0  0  0  0  0  0  0  0  0  0  0
   41.3824   14.2865   -8.0962 C   0  0  0  0  0  0  0  0  0  0  0  0
   41.9600   13.3902   -7.0411 C   0  0  0  0  0  0  0  0  0  0  0  0
   41.0930   12.8933   -5.9223 C   0  0  0  0  0  0  0  0  0  0  0  0
   39.6486   13.2928   -5.8586 C   0  0  0  0  0  0  0  0  0  0  0  0
   43.4044   12.9908   -7.1048 C   0  0  0  0  0  0  0  0  0  0  0  0
   44.8488   12.5914   -7.1685 F   0  0  0  0  0  0  0  0  0  0  0  0
   43.7552   14.3455   -7.6450 F   0  0  0  0  0  0  0  0  0  0  0  0
   43.0536   11.6361   -6.5646 F   0  0  0  0  0  0  0  0  0  0  0  0
  7  8  1  0  0  0
  8  9  1  0  0  0
  9 10  1  0  0  0
 10 11  1  0  0  0
 11 12  1  0  0  0
 12 13  1  0  0  0
 13 14  1  0  0  0
 14  1  1  0  0  0
  1  2  2  0  0  0
  2  3  1  0  0  0
  3  4  2  0  0  0
  4  5  1  0  0  0
  5  6  2  0  0  0
  4 15  1  0  0  0
 15 16  2  0  0  0
 16 17  1  0  0  0
 17 18  2  0  0  0
 18 19  1  0  0  0
 19 20  2  0  0  0
 18 21  1  0  0  0
 21 22  1  0  0  0
 21 23  1  0  0  0
 21 24  1  0  0  0
 12  8  1  0  0  0
  6  1  1  0  0  0
 20 15  1  0  0  0
 14 10  1  0  0  0
M  END
> <minimizedAffinity>
-4.58452

> <CNNscore>
0.4899833202

> <CNNaffinity>
4.7264313698

> <CNN_VS>
2.3158724308

> <CNNaffinity_variance>
0.2635189295

$$$$
[H]c1nc(N2C([H])([H])[C@@]3([H])N(C([H])([H])[H])C([H])([H])[C@@]2([H])C3([H])[H])c([H])c([H])c1-c1c([H])c([H])c(C(F)(F)F)c([H])c1[H]


 24 27  0  0  0  0  0  0  0  0999 V2000
   38.8408   14.3561   -6.0476 C   0  0  0  0  0  0  0  0  0  0  0  0
   40.0890   15.0818   -5.6412 C   0  0  0  0  0  0  0  0  0  0  0  0
   41.4319   14.4613   -5.8894 C   0  0  0  0  0  0  0  0  0  0  0  0
   41.5266   13.1151   -6.5442 C   0  0  0  0  0  0  0  0  0  0  0  0
   40.2783   12.3893   -6.9507 C   0  0  0  0  0  0  0  0  0  0  0  0
   38.9354   13.0098   -6.7024 N   0  0  0  0  0  0  0  0  0  0  0  0
   33.3149   17.1178   -5.4406 C   0  0  0  0  0  0  0  0  0  0  0  0
   34.6578   16.4972   -5.6889 N   0  0  0  0  0  0  0  0  0  0  0  0
   35.4881   16.6584   -6.9276 C   0  0  0  0  0  0  0  0  0  0  0  0
   36.7496   15.8674   -6.7463 C   0  0  0  0  0  0  0  0  0  0  0  0
   36.6989   15.2172   -5.3955 C   0  0  0  0  0  0  0  0  0  0  0  0
   35.4061   15.6065   -4.7419 C   0  0  0  0  0  0  0  0  0  0  0  0
   36.6676   14.8154   -4.5605 C   0  0  0  0  0  0  0  0  0  0  0  0
   37.4979   14.9767   -5.7994 N   0  0  0  0  0  0  0  0  0  0  0  0
   42.8694   12.4945   -6.7924 C   0  0  0  0  0  0  0  0  0  0  0  0
   43.6881   12.9255   -7.9731 C   0  0  0  0  0  0  0  0  0  0  0  0
   45.0309   12.3049   -8.2213 C   0  0  0  0  0  0  0  0  0  0  0  0
   45.5552   11.2534   -7.2889 C   0  0  0  0  0  0  0  0  0  0  0  0
   44.7365   10.8224   -6.1082 C   0  0  0  0  0  0  0  0  0  0  0  0
   43.3936   11.4430   -5.8599 C   0  0  0  0  0  0  0  0  0  0  0  0
   46.8980   10.6329   -7.5372 C   0  0  0  0  0  0  0  0  0  0  0  0
   48.2409   10.0124   -7.7854 F   0  0  0  0  0  0  0  0  0  0  0  0
   46.4169   10.1220   -8.8629 F   0  0  0  0  0  0  0  0  0  0  0  0
   47.3792   11.1438   -6.2115 F   0  0  0  0  0  0  0  0  0  0  0  0
  7  8  1  0  0  0
  8  9  1  0  0  0
  9 10  1  0  0  0
 10 11  1  0  0  0
 11 12  1  0  0  0
 12 13  1  0  0  0
 13 14  1  0  0  0
 14  1  1  0  0  0
  1  2  2  0  0  0
  2  3  1  0  0  0
  3  4  2  0  0  0
  4  5  1  0  0  0
  5  6  2  0  0  0
  4 15  1  0  0  0
 15 16  2  0  0  0
 16 17  1  0  0  0
 17 18  2  0  0  0
 18 19  1  0  0  0
 19 20  2  0  0  0
 18 21  1  0  0  0
 21 22  1  0  0  0
 21 23  1  0  0  0
 21 24  1  0  0  0
 12  8  1  0  0  0
  6  1  1  0  0  0
 20 15  1  0  0  0
 14 10  1  0  0  0
M  END
> <minimizedAffinity>
-4.55591

> <CNNscore>
0.4817931652

> <CNNaffinity>
4.5047044754

> <CNN_VS>
2.1703357697

> <CNNaffinity_variance>
0.5329177976

$$$$
[H]c1nc(N2C([H])([H])[C@@]3([H])N(C([H])([H])[H])C([H])([H])[C@@]2([H])C3([H])[H])c([H])c([H])c1-c1c([H])c([H])c(C(F)(F)F)c([H])c1[H]


 24 27  0  0  0  0  0  0  0  0999 V2000
   38.2149   15.7893   -7.3141 C   0  0  0  0  0  0  0  0  0  0  0  0
   38.8437   14.5170   -7.7997 C   0  0  0  0  0  0  0  0  0  0  0  0
   40.0461   14.5688   -8.6950 C   0  0  0  0  0  0  0  0  0  0  0  0
   40.6197   15.8928   -9.1047 C   0  0  0  0  0  0  0  0  0  0  0  0
   39.9910   17.1652   -8.6191 C   0  0  0  0  0  0  0  0  0  0  0  0
   38.7886   17.1134   -7.7238 N   0  0  0  0  0  0  0  0  0  0  0  0
   33.4565   15.2459   -3.3653 C   0  0  0  0  0  0  0  0  0  0  0  0
   34.6589   15.2977   -4.2606 N   0  0  0  0  0  0  0  0  0  0  0  0
   35.8983   14.4643   -4.1215 C   0  0  0  0  0  0  0  0  0  0  0  0
   36.8384   14.8434   -5.2271 C   0  0  0  0  0  0  0  0  0  0  0  0
   36.1800   15.9111   -6.0496 C   0  0  0  0  0  0  0  0  0  0  0  0
   34.8330   16.1919   -5.4523 C   0  0  0  0  0  0  0  0  0  0  0  0
   35.7731   16.5710   -6.5580 C   0  0  0  0  0  0  0  0  0  0  0  0
   37.0125   15.7376   -6.4188 N   0  0  0  0  0  0  0  0  0  0  0  0
   41.8221   15.9445  -10.0000 C   0  0  0  0  0  0  0  0  0  0  0  0
   41.6641   15.7563  -11.4797 C   0  0  0  0  0  0  0  0  0  0  0  0
   42.8665   15.8080  -12.3750 C   0  0  0  0  0  0  0  0  0  0  0  0
   44.2269   16.0479  -11.7906 C   0  0  0  0  0  0  0  0  0  0  0  0
   44.3850   16.2361  -10.3108 C   0  0  0  0  0  0  0  0  0  0  0  0
   43.1826   16.1844   -9.4155 C   0  0  0  0  0  0  0  0  0  0  0  0
   45.4293   16.0997  -12.6859 C   0  0  0  0  0  0  0  0  0  0  0  0
   46.6317   16.1514  -13.5812 F   0  0  0  0  0  0  0  0  0  0  0  0
   46.3251   15.9594  -11.4909 F   0  0  0  0  0  0  0  0  0  0  0  0
   44.5335   16.2400  -13.8808 F   0  0  0  0  0  0  0  0  0  0  0  0
  7  8  1  0  0  0
  8  9  1  0  0  0
  9 10  1  0  0  0
 10 11  1  0  0  0
 11 12  1  0  0  0
 12 13  1  0  0  0
 13 14  1  0  0  0
 14  1  1  0  0  0
  1  2  2  0  0  0
  2  3  1  0  0  0
  3  4  2  0  0  0
  4  5  1  0  0  0
  5  6  2  0  0  0
  4 15  1  0  0  0
 15 16  2  0  0  0
 16 17  1  0  0  0
 17 18  2  0  0  0
 18 19  1  0  0  0
 19 20  2  0  0  0
 18 21  1  0  0  0
 21 22  1  0  0  0
 21 23  1  0  0  0
 21 24  1  0  0  0
 12  8  1  0  0  0
  6  1  1  0  0  0
 20 15  1  0  0  0
 14 10  1  0  0  0
M  END
> <minimizedAffinity>
-3.37681

> <CNNscore>
0.4644485712

> <CNNaffinity>
4.9214196205

> <CNN_VS>
2.2857463360

> <CNNaffinity_variance>
1.0490214825

$$$$
[H]c1nc(N2C([H])([H])[C@@]3([H])N(C([H])([H])[H])C([H])([H])[C@@]2([H])C3([H])[H])c([H])c([H])c1-c1c([H])c([H])c(C(F)(F)F)c([H])c1[H]


 24 27  0  0  0  0  0  0  0  0999 V2000
   43.9093   14.5053  -12.6448 C   0  0  0  0  0  0  0  0  0  0  0  0
   44.2164   13.2979  -13.4802 C   0  0  0  0  0  0  0  0  0  0  0  0
   43.1662   12.7252  -14.3852 C   0  0  0  0  0  0  0  0  0  0  0  0
   41.8089   13.3598  -14.4548 C   0  0  0  0  0  0  0  0  0  0  0  0
   41.5017   14.5672  -13.6193 C   0  0  0  0  0  0  0  0  0  0  0  0
   42.5519   15.1400  -12.7144 N   0  0  0  0  0  0  0  0  0  0  0  0
   48.3919   17.1409   -9.2549 C   0  0  0  0  0  0  0  0  0  0  0  0
   47.3416   16.5681  -10.1599 N   0  0  0  0  0  0  0  0  0  0  0  0
   47.1134   16.9437  -11.5941 C   0  0  0  0  0  0  0  0  0  0  0  0
   45.9659   16.1269  -12.1102 C   0  0  0  0  0  0  0  0  0  0  0  0
   45.4850   15.2466  -10.9949 C   0  0  0  0  0  0  0  0  0  0  0  0
   46.3353   15.5193   -9.7896 C   0  0  0  0  0  0  0  0  0  0  0  0
   45.1878   14.7025  -10.3056 C   0  0  0  0  0  0  0  0  0  0  0  0
   44.9595   15.0781  -11.7399 N   0  0  0  0  0  0  0  0  0  0  0  0
   40.7586   12.7870  -15.3597 C   0  0  0  0  0  0  0  0  0  0  0  0
   40.5901   13.3269  -16.7490 C   0  0  0  0  0  0  0  0  0  0  0  0
   39.5399   12.7542  -17.6539 C   0  0  0  0  0  0  0  0  0  0  0  0
   38.6582   11.6415  -17.1696 C   0  0  0  0  0  0  0  0  0  0  0  0
   38.8267   11.1016  -15.7803 C   0  0  0  0  0  0  0  0  0  0  0  0
   39.8769   11.6743  -14.8754 C   0  0  0  0  0  0  0  0  0  0  0  0
   37.6079   11.0688  -18.0746 C   0  0  0  0  0  0  0  0  0  0  0  0
   36.5577   10.4960  -18.9796 F   0  0  0  0  0  0  0  0  0  0  0  0
   37.2448   10.0668  -17.0191 F   0  0  0  0  0  0  0  0  0  0  0  0
   37.9710   12.0707  -19.1302 F   0  0  0  0  0  0  0  0  0  0  0  0
  7  8  1  0  0  0
  8  9  1  0  0  0
  9 10  1  0  0  0
 10 11  1  0  0  0
 11 12  1  0  0  0
 12 13  1  0  0  0
 13 14  1  0  0  0
 14  1  1  0  0  0
  1  2  2  0  0  0
  2  3  1  0  0  0
  3  4  2  0  0  0
  4  5  1  0  0  0
  5  6  2  0  0  0
  4 15  1  0  0  0
 15 16  2  0  0  0
 16 17  1  0  0  0
 17 18  2  0  0  0
 18 19  1  0  0  0
 19 20  2  0  0  0
 18 21  1  0  0  0
 21 22  1  0  0  0
 21 23  1  0  0  0
 21 24  1  0  0  0
 12  8  1  0  0  0
  6  1  1  0  0  0
 20 15  1  0  0  0
 14 10  1  0  0  0
M  END
> <minimizedAffinity>
-1.44218

> <CNNscore>
0.4308730364

> <CNNaffinity>
5.2009000778

> <CNN_VS>
2.2409276962

> <CNNaffinity_variance>
0.7026351690

$$$$
[H]c1nc(N2C([H])([H])[C@@]3([H])N(C([H])([H])[H])C([H])([H])[C@@]2([H])C3([H])[H])c([H])c([H])c1-c1c([H])c([H])c(C(F)(F)F)c([H])c1[H]


 24 27  0  0  0  0  0  0  0  0999 V2000
   43.0446   13.5752  -15.0335 C   0  0  0  0  0  0  0  0  0  0  0  0
   42.6301   12.7532  -16.2178 C   0  0  0  0  0  0  0  0  0  0  0  0
   41.1884   12.3854  -16.4079 C   0  0  0  0  0  0  0  0  0  0  0  0
   40.1611   12.8395  -15.4137 C   0  0  0  0  0  0  0  0  0  0  0  0
   40.5755   13.6614  -14.2293 C   0  0  0  0  0  0  0  0  0  0  0  0
   42.0172   14.0293  -14.0392 N   0  0  0  0  0  0  0  0  0  0  0  0
   48.8691   15.5256  -14.1384 C   0  0  0  0  0  0  0  0  0  0  0  0
   47.4274   15.1578  -14.3285 N   0  0  0  0  0  0  0  0  0  0  0  0
   46.2529   16.0738  -14.1511 C   0  0  0  0  0  0  0  0  0  0  0  0
   45.0067   15.2915  -14.4424 C   0  0  0  0  0  0  0  0  0  0  0  0
   45.4109   13.8919  -14.7998 C   0  0  0  0  0  0  0  0  0  0  0  0
   46.9070   13.8093  -14.7294 C   0  0  0  0  0  0  0  0  0  0  0  0
   45.6608   13.0269  -15.0208 C   0  0  0  0  0  0  0  0  0  0  0  0
   44.4863   13.9430  -14.8433 N   0  0  0  0  0  0  0  0  0  0  0  0
   38.7194   12.4716  -15.6039 C   0  0  0  0  0  0  0  0  0  0  0  0
   38.3254   11.5225  -16.6965 C   0  0  0  0  0  0  0  0  0  0  0  0
   36.8836   11.1546  -16.8866 C   0  0  0  0  0  0  0  0  0  0  0  0
   35.8360   11.7359  -15.9842 C   0  0  0  0  0  0  0  0  0  0  0  0
   36.2300   12.6851  -14.8915 C   0  0  0  0  0  0  0  0  0  0  0  0
   37.6717   13.0529  -14.7013 C   0  0  0  0  0  0  0  0  0  0  0  0
   34.3943   11.3681  -16.1743 C   0  0  0  0  0  0  0  0  0  0  0  0
   32.9526   11.0002  -16.3644 F   0  0  0  0  0  0  0  0  0  0  0  0
   34.8034   10.2091  -17.0341 F   0  0  0  0  0  0  0  0  0  0  0  0
   33.9852   12.5271  -15.3144 F   0  0  0  0  0  0  0  0  0  0  0  0
  7  8  1  0  0  0
  8  9  1  0  0  0
  9 10  1  0  0  0
 10 11  1  0  0  0
 11 12  1  0  0  0
 12 13  1  0  0  0
 13 14  1  0  0  0
 14  1  1  0  0  0
  1  2  2  0  0  0
  2  3  1  0  0  0
  3  4  2  0  0  0
  4  5  1  0  0  0
  5  6  2  0  0  0
  4 15  1  0  0  0
 15 16  2  0  0  0
 16 17  1  0  0  0
 17 18  2  0  0  0
 18 19  1  0  0  0
 19 20  2  0  0  0
 18 21  1  0  0  0
 21 22  1  0  0  0
 21 23  1  0  0  0
 21 24  1  0  0  0
 12  8  1  0  0  0
  6  1  1  0  0  0
 20 15  1  0  0  0
 14 10  1  0  0  0
M  END
> <minimizedAffinity>
-8.21549

> <CNNscore>
0.3456639946

> <CNNaffinity>
5.5446372032

> <CNN_VS>
1.9165813923

> <CNNaffinity_variance>
0.0715336949

$$$$
[H]c1nc(N2C([H])([H])[C@@]3([H])N(C([H])([H])[H])C([H])([H])[C@@]2([H])C3([H])[H])c([H])c([H])c1-c1c([H])c([H])c(C(F)(F)F)c([H])c1[H]


 24 27  0  0  0  0  0  0  0  0999 V2000
   35.6248   15.7320  -10.1612 C   0  0  0  0  0  0  0  0  0  0  0  0
   36.9872   15.1255  -10.3229 C   0  0  0  0  0  0  0  0  0  0  0  0
   37.3104   14.3234  -11.5485 C   0  0  0  0  0  0  0  0  0  0  0  0
   36.2713   14.1278  -12.6124 C   0  0  0  0  0  0  0  0  0  0  0  0
   34.9089   14.7342  -12.4507 C   0  0  0  0  0  0  0  0  0  0  0  0
   34.5857   15.5363  -11.2251 N   0  0  0  0  0  0  0  0  0  0  0  0
   33.9186   18.7764   -5.0278 C   0  0  0  0  0  0  0  0  0  0  0  0
   34.2418   17.9743   -6.2535 N   0  0  0  0  0  0  0  0  0  0  0  0
   33.4571   16.8076   -6.7760 C   0  0  0  0  0  0  0  0  0  0  0  0
   34.1369   16.3103   -8.0172 C   0  0  0  0  0  0  0  0  0  0  0  0
   35.3417   17.1697   -8.2618 C   0  0  0  0  0  0  0  0  0  0  0  0
   35.4066   18.1980   -7.1718 C   0  0  0  0  0  0  0  0  0  0  0  0
   36.0864   17.7008   -8.4130 C   0  0  0  0  0  0  0  0  0  0  0  0
   35.3016   16.5341   -8.9355 N   0  0  0  0  0  0  0  0  0  0  0  0
   36.5946   13.3257  -13.8380 C   0  0  0  0  0  0  0  0  0  0  0  0
   35.5044   12.9490  -14.7969 C   0  0  0  0  0  0  0  0  0  0  0  0
   35.8277   12.1469  -16.0226 C   0  0  0  0  0  0  0  0  0  0  0  0
   37.2411   11.7215  -16.2893 C   0  0  0  0  0  0  0  0  0  0  0  0
   38.3314   12.0982  -15.3304 C   0  0  0  0  0  0  0  0  0  0  0  0
   38.0081   12.9003  -14.1047 C   0  0  0  0  0  0  0  0  0  0  0  0
   37.5644   10.9194  -17.5149 C   0  0  0  0  0  0  0  0  0  0  0  0
   37.8876   10.1173  -18.7405 F   0  0  0  0  0  0  0  0  0  0  0  0
   36.1833   11.1707  -18.0436 F   0  0  0  0  0  0  0  0  0  0  0  0
   38.9454   10.6681  -16.9862 F   0  0  0  0  0  0  0  0  0  0  0  0
  7  8  1  0  0  0
  8  9  1  0  0  0
  9 10  1  0  0  0
 10 11  1  0  0  0
 11 12  1  0  0  0
 12 13  1  0  0  0
 13 14  1  0  0  0
 14  1  1  0  0  0
  1  2  2  0  0  0
  2  3  1  0  0  0
  3  4  2  0  0  0
  4  5  1  0  0  0
  5  6  2  0  0  0
  4 15  1  0  0  0
 15 16  2  0  0  0
 16 17  1  0  0  0
 17 18  2  0  0  0
 18 19  1  0  0  0
 19 20  2  0  0  0
 18 21  1  0  0  0
 21 22  1  0  0  0
 21 23  1  0  0  0
 21 24  1  0  0  0
 12  8  1  0  0  0
  6  1  1  0  0  0
 20 15  1  0  0  0
 14 10  1  0  0  0
M  END
> <minimizedAffinity>
-7.57365

> <CNNscore>
0.3209838867

> <CNNaffinity>
5.0541853905

> <CNN_VS>
1.6223120689

> <CNNaffinity_variance>
0.3114412725

$$$$
[H]c1nc(N2C([H])([H])[C@@]3([H])N(C([H])([H])[H])C([H])([H])[C@@]2([H])C3([H])[H])c([H])c([H])c1-c1c([H])c([H])c(C(F)(F)F)c([H])c1[H]


 24 27  0  0  0  0  0  0  0  0999 V2000
   39.1850   12.5815  -15.6162 C   0  0  0  0  0  0  0  0  0  0  0  0
   39.6416   13.3299  -14.3991 C   0  0  0  0  0  0  0  0  0  0  0  0
   41.0962   13.6469  -14.2155 C   0  0  0  0  0  0  0  0  0  0  0  0
   42.0941   13.2153  -15.2489 C   0  0  0  0  0  0  0  0  0  0  0  0
   41.6375   12.4668  -16.4660 C   0  0  0  0  0  0  0  0  0  0  0  0
   40.1829   12.1499  -16.6496 N   0  0  0  0  0  0  0  0  0  0  0  0
   33.2879   10.9948  -16.7289 C   0  0  0  0  0  0  0  0  0  0  0  0
   34.7425   11.3117  -16.5452 N   0  0  0  0  0  0  0  0  0  0  0  0
   35.8739   10.7680  -17.3664 C   0  0  0  0  0  0  0  0  0  0  0  0
   37.1517   11.3483  -16.8369 C   0  0  0  0  0  0  0  0  0  0  0  0
   36.8101   12.2506  -15.6884 C   0  0  0  0  0  0  0  0  0  0  0  0
   35.3211   12.2280  -15.5081 C   0  0  0  0  0  0  0  0  0  0  0  0
   36.5990   12.8083  -14.9785 C   0  0  0  0  0  0  0  0  0  0  0  0
   37.7304   12.2645  -15.7998 N   0  0  0  0  0  0  0  0  0  0  0  0
   43.5487   13.5323  -15.0652 C   0  0  0  0  0  0  0  0  0  0  0  0
   44.5822   12.8089  -15.8767 C   0  0  0  0  0  0  0  0  0  0  0  0
   46.0368   13.1258  -15.6931 C   0  0  0  0  0  0  0  0  0  0  0  0
   46.4579   14.1661  -14.6979 C   0  0  0  0  0  0  0  0  0  0  0  0
   45.4244   14.8896  -13.8864 C   0  0  0  0  0  0  0  0  0  0  0  0
   43.9698   14.5726  -14.0700 C   0  0  0  0  0  0  0  0  0  0  0  0
   47.9125   14.4831  -14.5143 C   0  0  0  0  0  0  0  0  0  0  0  0
   49.3671   14.8000  -14.3307 F   0  0  0  0  0  0  0  0  0  0  0  0
   48.1611   13.0766  -14.0560 F   0  0  0  0  0  0  0  0  0  0  0  0
   47.6639   15.8895  -14.9726 F   0  0  0  0  0  0  0  0  0  0  0  0
  7  8  1  0  0  0
  8  9  1  0  0  0
  9 10  1  0  0  0
 10 11  1  0  0  0
 11 12  1  0  0  0
 12 13  1  0  0  0
 13 14  1  0  0  0
 14  1  1  0  0  0
  1  2  2  0  0  0
  2  3  1  0  0  0
  3  4  2  0  0  0
  4  5  1  0  0  0
  5  6  2  0  0  0
  4 15  1  0  0  0
 15 16  2  0  0  0
 16 17  1  0  0  0
 17 18  2  0  0  0
 18 19  1  0  0  0
 19 20  2  0  0  0
 18 21  1  0  0  0
 21 22  1  0  0  0
 21 23  1  0  0  0
 21 24  1  0  0  0
 12  8  1  0  0  0
  6  1  1  0  0  0
 20 15  1  0  0  0
 14 10  1  0  0  0
M  END
> <minimizedAffinity>
-7.20794

> <CNNscore>
0.2862928510

> <CNNaffinity>
5.8615388870

> <CNN_VS>
1.6781166792

> <CNNaffinity_variance>
0.3631949127

$$$$
[H]c1nc(N2C([H])([H])[C@@]3([H])N(C([H])([H])[H])C([H])([H])[C@@]2([H])C3([H])[H])c([H])c([H])c1-c1c([H])c([H])c(C(F)(F)F)c([H])c1[H]


 24 27  0  0  0  0  0  0  0  0999 V2000
   35.5012   12.1750  -14.7783 C   0  0  0  0  0  0  0  0  0  0  0  0
   34.0892   11.7948  -14.4441 C   0  0  0  0  0  0  0  0  0  0  0  0
   33.2785   10.9910  -15.4171 C   0  0  0  0  0  0  0  0  0  0  0  0
   33.8799   10.5673  -16.7243 C   0  0  0  0  0  0  0  0  0  0  0  0
   35.2919   10.9474  -17.0586 C   0  0  0  0  0  0  0  0  0  0  0  0
   36.1026   11.7513  -16.0856 N   0  0  0  0  0  0  0  0  0  0  0  0
   38.4893   15.4948  -10.4678 C   0  0  0  0  0  0  0  0  0  0  0  0
   37.6786   14.6910  -11.4408 N   0  0  0  0  0  0  0  0  0  0  0  0
   36.2670   14.2254  -11.2393 C   0  0  0  0  0  0  0  0  0  0  0  0
   35.8532   13.4583  -12.4601 C   0  0  0  0  0  0  0  0  0  0  0  0
   37.0091   13.4497  -13.4160 C   0  0  0  0  0  0  0  0  0  0  0  0
   38.1373   14.2115  -12.7861 C   0  0  0  0  0  0  0  0  0  0  0  0
   37.7235   13.4443  -14.0069 C   0  0  0  0  0  0  0  0  0  0  0  0
   36.3118   12.9788  -13.8054 N   0  0  0  0  0  0  0  0  0  0  0  0
   33.0692    9.7634  -17.6973 C   0  0  0  0  0  0  0  0  0  0  0  0
   32.1524   10.4558  -18.6616 C   0  0  0  0  0  0  0  0  0  0  0  0
   31.3417    9.6519  -19.6346 C   0  0  0  0  0  0  0  0  0  0  0  0
   31.4479    8.1558  -19.6432 C   0  0  0  0  0  0  0  0  0  0  0  0
   32.3648    7.4633  -18.6788 C   0  0  0  0  0  0  0  0  0  0  0  0
   33.1754    8.2672  -17.7058 C   0  0  0  0  0  0  0  0  0  0  0  0
   30.6372    7.3519  -20.6162 C   0  0  0  0  0  0  0  0  0  0  0  0
   29.8266    6.5481  -21.5892 F   0  0  0  0  0  0  0  0  0  0  0  0
   29.6832    6.9852  -19.5183 F   0  0  0  0  0  0  0  0  0  0  0  0
   31.5913    7.7186  -21.7141 F   0  0  0  0  0  0  0  0  0  0  0  0
  7  8  1  0  0  0
  8  9  1  0  0  0
  9 10  1  0  0  0
 10 11  1  0  0  0
 11 12  1  0  0  0
 12 13  1  0  0  0
 13 14  1  0  0  0
 14  1  1  0  0  0
  1  2  2  0  0  0
  2  3  1  0  0  0
  3  4  2  0  0  0
  4  5  1  0  0  0
  5  6  2  0  0  0
  4 15  1  0  0  0
 15 16  2  0  0  0
 16 17  1  0  0  0
 17 18  2  0  0  0
 18 19  1  0  0  0
 19 20  2  0  0  0
 18 21  1  0  0  0
 21 22  1  0  0  0
 21 23  1  0  0  0
 21 24  1  0  0  0
 12  8  1  0  0  0
  6  1  1  0  0  0
 20 15  1  0  0  0
 14 10  1  0  0  0
M  END
> <minimizedAffinity>
-2.16895

> <CNNscore>
0.2837882936

> <CNNaffinity>
5.7302432060

> <CNN_VS>
1.6261759996

> <CNNaffinity_variance>
0.3082115948

$$$$
[H]OC(=O)[C@@]([H])(N([H])C(=O)[C@@]([H])(N([H])C(=O)[C@@]([H])(C([H])([H])S[H])C([H])([H])c1c([H])c([H])c([H])c([H])c1[H])C([H])([H])C([H])(C([H])([H])[H])C([H])([H])[H])C([H])([H])c1c([H])c([H])c([H])c([H])c1[H]


 36 37  0  0  0  0  0  0  0  0999 V2000
   40.3525   12.4962  -15.7690 C   0  0  0  0  0  0  0  0  0  0  0  0
   39.3335   13.3630  -15.1115 N   0  0  0  0  0  0  0  0  0  0  0  0
   38.3416   12.8218  -14.3001 C   0  0  0  0  0  0  0  0  0  0  0  0
   38.2642   11.5924  -14.0903 O   0  0  0  0  0  0  0  0  0  0  0  0
   39.4129   14.3669  -15.2954 H   0  0  0  0  0  0  0  0  0  0  0  0
   37.2966   13.6922  -13.6233 C   0  0  0  0  0  0  0  0  0  0  0  0
   38.0511   14.8272  -13.0443 C   0  0  0  0  0  0  0  0  0  0  0  0
   37.7749   15.2170  -11.3341 S   0  0  0  0  0  0  0  0  0  0  0  0
   38.7514   14.5817  -10.5433 H   0  0  0  0  0  0  0  0  0  0  0  0
   36.2559   13.9404  -14.6179 C   0  0  0  0  0  0  0  0  0  0  0  0
   35.5182   12.8554  -15.2241 C   0  0  0  0  0  0  0  0  0  0  0  0
   34.3898   12.3772  -14.5871 C   0  0  0  0  0  0  0  0  0  0  0  0
   33.6405   11.3414  -15.1172 C   0  0  0  0  0  0  0  0  0  0  0  0
   34.0057   10.7570  -16.3045 C   0  0  0  0  0  0  0  0  0  0  0  0
   35.1187   11.2139  -16.9520 C   0  0  0  0  0  0  0  0  0  0  0  0
   35.8469   12.2392  -16.4122 C   0  0  0  0  0  0  0  0  0  0  0  0
   41.6960   13.0139  -15.3533 C   0  0  0  0  0  0  0  0  0  0  0  0
   41.7088   13.5674  -14.1994 O   0  0  0  0  0  0  0  0  0  0  0  0
   42.8610   12.9419  -16.0758 N   0  0  0  0  0  0  0  0  0  0  0  0
   42.8304   12.4337  -17.0102 H   0  0  0  0  0  0  0  0  0  0  0  0
   44.1839   13.4384  -15.7328 C   0  0  0  0  0  0  0  0  0  0  0  0
   45.2447   12.6225  -16.3155 C   0  0  0  0  0  0  0  0  0  0  0  0
   46.5150   12.9993  -16.6494 O   0  0  0  0  0  0  0  0  0  0  0  0
   44.9966   11.3826  -16.5674 O   0  0  0  0  0  0  0  0  0  0  0  0
   47.3391   12.4470  -16.5898 H   0  0  0  0  0  0  0  0  0  0  0  0
   44.2996   13.7437  -14.2702 C   0  0  0  0  0  0  0  0  0  0  0  0
   44.6550   15.1289  -13.9353 C   0  0  0  0  0  0  0  0  0  0  0  0
   45.6761   15.7601  -14.6142 C   0  0  0  0  0  0  0  0  0  0  0  0
   46.0397   17.0692  -14.3629 C   0  0  0  0  0  0  0  0  0  0  0  0
   45.3704   17.7795  -13.4071 C   0  0  0  0  0  0  0  0  0  0  0  0
   44.3395   17.1464  -12.7202 C   0  0  0  0  0  0  0  0  0  0  0  0
   43.9931   15.8497  -12.9823 C   0  0  0  0  0  0  0  0  0  0  0  0
   40.1598   12.6242  -17.2497 C   0  0  0  0  0  0  0  0  0  0  0  0
   38.6881   10.6301  -17.5975 C   0  0  0  0  0  0  0  0  0  0  0  0
   39.9489   11.3800  -18.0075 C   0  0  0  0  0  0  0  0  0  0  0  0
   39.7300   11.7039  -19.4974 C   0  0  0  0  0  0  0  0  0  0  0  0
 34 35  1  0  0  0
 35 36  1  0  0  0
 35 33  1  0  0  0
 33  1  1  0  0  0
  1  2  1  0  0  0
  2  3  1  0  0  0
  3  4  2  0  0  0
  3  6  1  0  0  0
  6  7  1  0  0  0
  7  8  1  0  0  0
  6 10  1  0  0  0
 10 11  1  0  0  0
 11 12  2  0  0  0
 12 13  1  0  0  0
 13 14  2  0  0  0
 14 15  1  0  0  0
 15 16  2  0  0  0
  1 17  1  0  0  0
 17 18  2  0  0  0
 17 19  1  0  0  0
 19 21  1  0  0  0
 21 26  1  0  0  0
 26 27  1  0  0  0
 27 28  2  0  0  0
 28 29  1  0  0  0
 29 30  2  0  0  0
 30 31  1  0  0  0
 31 32  2  0  0  0
 21 22  1  0  0  0
 22 23  1  0  0  0
 22 24  2  0  0  0
 16 11  1  0  0  0
 32 27  1  0  0  0
  2  5  1  0  0  0
  8  9  1  0  0  0
 19 20  1  0  0  0
 23 25  1  0  0  0
M  END
> <minimizedAffinity>
-8.22562

> <CNNscore>
0.5478789210

> <CNNaffinity>
6.8954782486

> <CNN_VS>
3.7778871059

> <CNNaffinity_variance>
0.1028201208

$$$$
[H]OC(=O)[C@@]([H])(N([H])C(=O)[C@@]([H])(N([H])C(=O)[C@@]([H])(C([H])([H])S[H])C([H])([H])c1c([H])c([H])c([H])c([H])c1[H])C([H])([H])C([H])(C([H])([H])[H])C([H])([H])[H])C([H])([H])c1c([H])c([H])c([H])c([H])c1[H]


 36 37  0  0  0  0  0  0  0  0999 V2000
   39.7001   13.3111  -14.5393 C   0  0  0  0  0  0  0  0  0  0  0  0
   38.3692   13.8939  -14.2063 N   0  0  0  0  0  0  0  0  0  0  0  0
   37.4097   13.1561  -13.5205 C   0  0  0  0  0  0  0  0  0  0  0  0
   37.6232   11.9795  -13.1574 O   0  0  0  0  0  0  0  0  0  0  0  0
   38.2128   14.8583  -14.5121 H   0  0  0  0  0  0  0  0  0  0  0  0
   36.0493   13.7363  -13.1741 C   0  0  0  0  0  0  0  0  0  0  0  0
   36.3356   14.9473  -12.3715 C   0  0  0  0  0  0  0  0  0  0  0  0
   36.4331   14.7663  -10.6077 S   0  0  0  0  0  0  0  0  0  0  0  0
   37.7768   14.5872  -10.2269 H   0  0  0  0  0  0  0  0  0  0  0  0
   35.3150   13.8520  -14.4315 C   0  0  0  0  0  0  0  0  0  0  0  0
   34.9240   12.6833  -15.1866 C   0  0  0  0  0  0  0  0  0  0  0  0
   35.7459   12.2400  -16.2043 C   0  0  0  0  0  0  0  0  0  0  0  0
   35.4272   11.1270  -16.9624 C   0  0  0  0  0  0  0  0  0  0  0  0
   34.2714   10.4277  -16.7178 C   0  0  0  0  0  0  0  0  0  0  0  0
   33.4431   10.8484  -15.7160 C   0  0  0  0  0  0  0  0  0  0  0  0
   33.7753   11.9514  -14.9769 C   0  0  0  0  0  0  0  0  0  0  0  0
   40.7283   14.1542  -13.8481 C   0  0  0  0  0  0  0  0  0  0  0  0
   40.4326   15.3981  -13.7921 O   0  0  0  0  0  0  0  0  0  0  0  0
   41.9057   13.7188  -13.2924 N   0  0  0  0  0  0  0  0  0  0  0  0
   42.1022   12.6732  -13.3114 H   0  0  0  0  0  0  0  0  0  0  0  0
   42.9444   14.4886  -12.6269 C   0  0  0  0  0  0  0  0  0  0  0  0
   42.3952   15.4137  -11.6404 C   0  0  0  0  0  0  0  0  0  0  0  0
   41.6190   15.1278  -10.5529 O   0  0  0  0  0  0  0  0  0  0  0  0
   42.6460   16.6715  -11.7729 O   0  0  0  0  0  0  0  0  0  0  0  0
   41.6278   15.5887   -9.6724 H   0  0  0  0  0  0  0  0  0  0  0  0
   43.9264   15.0573  -13.6057 C   0  0  0  0  0  0  0  0  0  0  0  0
   44.4606   14.1111  -14.5940 C   0  0  0  0  0  0  0  0  0  0  0  0
   43.6304   13.5866  -15.5624 C   0  0  0  0  0  0  0  0  0  0  0  0
   44.0791   12.7131  -16.5344 C   0  0  0  0  0  0  0  0  0  0  0  0
   45.3946   12.3452  -16.5498 C   0  0  0  0  0  0  0  0  0  0  0  0
   46.2352   12.8723  -15.5748 C   0  0  0  0  0  0  0  0  0  0  0  0
   45.7737   13.7360  -14.6202 C   0  0  0  0  0  0  0  0  0  0  0  0
   39.8585   13.3799  -16.0279 C   0  0  0  0  0  0  0  0  0  0  0  0
   39.1017   11.0943  -16.7109 C   0  0  0  0  0  0  0  0  0  0  0  0
   40.2167   12.1320  -16.7216 C   0  0  0  0  0  0  0  0  0  0  0  0
   40.4584   12.4136  -18.2165 C   0  0  0  0  0  0  0  0  0  0  0  0
 34 35  1  0  0  0
 35 36  1  0  0  0
 35 33  1  0  0  0
 33  1  1  0  0  0
  1  2  1  0  0  0
  2  3  1  0  0  0
  3  4  2  0  0  0
  3  6  1  0  0  0
  6  7  1  0  0  0
  7  8  1  0  0  0
  6 10  1  0  0  0
 10 11  1  0  0  0
 11 12  2  0  0  0
 12 13  1  0  0  0
 13 14  2  0  0  0
 14 15  1  0  0  0
 15 16  2  0  0  0
  1 17  1  0  0  0
 17 18  2  0  0  0
 17 19  1  0  0  0
 19 21  1  0  0  0
 21 26  1  0  0  0
 26 27  1  0  0  0
 27 28  2  0  0  0
 28 29  1  0  0  0
 29 30  2  0  0  0
 30 31  1  0  0  0
 31 32  2  0  0  0
 21 22  1  0  0  0
 22 23  1  0  0  0
 22 24  2  0  0  0
 16 11  1  0  0  0
 32 27  1  0  0  0
  2  5  1  0  0  0
  8  9  1  0  0  0
 19 20  1  0  0  0
 23 25  1  0  0  0
M  END
> <minimizedAffinity>
-7.87684

> <CNNscore>
0.4598585367

> <CNNaffinity>
6.7554006577

> <CNN_VS>
3.1065287590

> <CNNaffinity_variance>
0.0735453367

$$$$
[H]OC(=O)[C@@]([H])(N([H])C(=O)[C@@]([H])(N([H])C(=O)[C@@]([H])(C([H])([H])S[H])C([H])([H])c1c([H])c([H])c([H])c([H])c1[H])C([H])([H])C([H])(C([H])([H])[H])C([H])([H])[H])C([H])([H])c1c([H])c([H])c([H])c([H])c1[H]


 36 37  0  0  0  0  0  0  0  0999 V2000
   40.0448   12.8016  -15.3049 C   0  0  0  0  0  0  0  0  0  0  0  0
   38.8291   13.5091  -14.8118 N   0  0  0  0  0  0  0  0  0  0  0  0
   37.9333   12.8873  -13.9479 C   0  0  0  0  0  0  0  0  0  0  0  0
   38.1101   11.7153  -13.5520 O   0  0  0  0  0  0  0  0  0  0  0  0
   38.7012   14.4678  -15.1470 H   0  0  0  0  0  0  0  0  0  0  0  0
   36.6903   13.5953  -13.4368 C   0  0  0  0  0  0  0  0  0  0  0  0
   37.1920   14.7686  -12.6854 C   0  0  0  0  0  0  0  0  0  0  0  0
   35.9987   15.8000  -11.8696 S   0  0  0  0  0  0  0  0  0  0  0  0
   35.8702   15.3983  -10.5262 H   0  0  0  0  0  0  0  0  0  0  0  0
   35.8179   13.7883  -14.5923 C   0  0  0  0  0  0  0  0  0  0  0  0
   35.2024   12.6686  -15.2678 C   0  0  0  0  0  0  0  0  0  0  0  0
   35.8287   12.1303  -16.3749 C   0  0  0  0  0  0  0  0  0  0  0  0
   35.2904   11.0576  -17.0638 C   0  0  0  0  0  0  0  0  0  0  0  0
   34.1054   10.4955  -16.6579 C   0  0  0  0  0  0  0  0  0  0  0  0
   33.4682   11.0121  -15.5653 C   0  0  0  0  0  0  0  0  0  0  0  0
   34.0162   12.0732  -14.8968 C   0  0  0  0  0  0  0  0  0  0  0  0
   41.2281   13.5237  -14.7358 C   0  0  0  0  0  0  0  0  0  0  0  0
   42.2151   13.6281  -15.5438 O   0  0  0  0  0  0  0  0  0  0  0  0
   41.3322   14.0608  -13.4767 N   0  0  0  0  0  0  0  0  0  0  0  0
   40.4788   14.0011  -12.8438 H   0  0  0  0  0  0  0  0  0  0  0  0
   42.4551   14.7545  -12.8665 C   0  0  0  0  0  0  0  0  0  0  0  0
   42.1908   16.1794  -12.6919 C   0  0  0  0  0  0  0  0  0  0  0  0
   40.9910   16.8306  -12.7508 O   0  0  0  0  0  0  0  0  0  0  0  0
   43.1864   16.9629  -12.4526 O   0  0  0  0  0  0  0  0  0  0  0  0
   40.7095   17.6180  -12.2136 H   0  0  0  0  0  0  0  0  0  0  0  0
   43.7537   14.3883  -13.5186 C   0  0  0  0  0  0  0  0  0  0  0  0
   44.5543   13.3755  -12.8183 C   0  0  0  0  0  0  0  0  0  0  0  0
   44.1414   12.9007  -11.5911 C   0  0  0  0  0  0  0  0  0  0  0  0
   44.8370   11.9302  -10.8957 C   0  0  0  0  0  0  0  0  0  0  0  0
   45.9807   11.4107  -11.4324 C   0  0  0  0  0  0  0  0  0  0  0  0
   46.4003   11.8869  -12.6703 C   0  0  0  0  0  0  0  0  0  0  0  0
   45.6991   12.8480  -13.3445 C   0  0  0  0  0  0  0  0  0  0  0  0
   40.0326   12.8820  -16.8014 C   0  0  0  0  0  0  0  0  0  0  0  0
   38.9079   10.7020  -17.2972 C   0  0  0  0  0  0  0  0  0  0  0  0
   40.1053   11.6113  -17.5409 C   0  0  0  0  0  0  0  0  0  0  0  0
   40.0724   11.8838  -19.0565 C   0  0  0  0  0  0  0  0  0  0  0  0
 34 35  1  0  0  0
 35 36  1  0  0  0
 35 33  1  0  0  0
 33  1  1  0  0  0
  1  2  1  0  0  0
  2  3  1  0  0  0
  3  4  2  0  0  0
  3  6  1  0  0  0
  6  7  1  0  0  0
  7  8  1  0  0  0
  6 10  1  0  0  0
 10 11  1  0  0  0
 11 12  2  0  0  0
 12 13  1  0  0  0
 13 14  2  0  0  0
 14 15  1  0  0  0
 15 16  2  0  0  0
  1 17  1  0  0  0
 17 18  2  0  0  0
 17 19  1  0  0  0
 19 21  1  0  0  0
 21 26  1  0  0  0
 26 27  1  0  0  0
 27 28  2  0  0  0
 28 29  1  0  0  0
 29 30  2  0  0  0
 30 31  1  0  0  0
 31 32  2  0  0  0
 21 22  1  0  0  0
 22 23  1  0  0  0
 22 24  2  0  0  0
 16 11  1  0  0  0
 32 27  1  0  0  0
  2  5  1  0  0  0
  8  9  1  0  0  0
 19 20  1  0  0  0
 23 25  1  0  0  0
M  END
> <minimizedAffinity>
-7.92563

> <CNNscore>
0.3920627236

> <CNNaffinity>
6.4831657410

> <CNN_VS>
2.5418076515

> <CNNaffinity_variance>
0.1466987580

$$$$
[H]OC(=O)[C@@]([H])(N([H])C(=O)[C@@]([H])(N([H])C(=O)[C@@]([H])(C([H])([H])S[H])C([H])([H])c1c([H])c([H])c([H])c([H])c1[H])C([H])([H])C([H])(C([H])([H])[H])C([H])([H])[H])C([H])([H])c1c([H])c([H])c([H])c([H])c1[H]


 36 37  0  0  0  0  0  0  0  0999 V2000
   36.9113   15.1493  -13.1876 C   0  0  0  0  0  0  0  0  0  0  0  0
   37.7977   14.2444  -13.9733 N   0  0  0  0  0  0  0  0  0  0  0  0
   39.1099   14.5989  -14.2696 C   0  0  0  0  0  0  0  0  0  0  0  0
   39.5970   15.6858  -13.8914 O   0  0  0  0  0  0  0  0  0  0  0  0
   37.3811   13.3591  -14.2745 H   0  0  0  0  0  0  0  0  0  0  0  0
   40.0251   13.6874  -15.0690 C   0  0  0  0  0  0  0  0  0  0  0  0
   41.3065   13.6745  -14.3268 C   0  0  0  0  0  0  0  0  0  0  0  0
   42.7742   13.2241  -15.2190 S   0  0  0  0  0  0  0  0  0  0  0  0
   43.4213   14.3875  -15.6778 H   0  0  0  0  0  0  0  0  0  0  0  0
   39.2912   12.4419  -15.2779 C   0  0  0  0  0  0  0  0  0  0  0  0
   39.1219   11.8787  -16.5981 C   0  0  0  0  0  0  0  0  0  0  0  0
   37.9451   11.2207  -16.8976 C   0  0  0  0  0  0  0  0  0  0  0  0
   37.7227   10.6611  -18.1436 C   0  0  0  0  0  0  0  0  0  0  0  0
   38.6792   10.7479  -19.1247 C   0  0  0  0  0  0  0  0  0  0  0  0
   39.8513   11.3942  -18.8506 C   0  0  0  0  0  0  0  0  0  0  0  0
   40.0529   11.9414  -17.6124 C   0  0  0  0  0  0  0  0  0  0  0  0
   37.5558   15.3317  -11.8471 C   0  0  0  0  0  0  0  0  0  0  0  0
   37.4836   14.3038  -11.0880 O   0  0  0  0  0  0  0  0  0  0  0  0
   38.1915   16.4595  -11.3905 N   0  0  0  0  0  0  0  0  0  0  0  0
   38.2783   17.2814  -12.0608 H   0  0  0  0  0  0  0  0  0  0  0  0
   38.8178   16.6993  -10.1003 C   0  0  0  0  0  0  0  0  0  0  0  0
   38.4043   17.9720   -9.5173 C   0  0  0  0  0  0  0  0  0  0  0  0
   38.4623   18.3616   -8.2089 O   0  0  0  0  0  0  0  0  0  0  0  0
   37.9129   18.8731  -10.2976 O   0  0  0  0  0  0  0  0  0  0  0  0
   38.6431   19.2757   -7.8633 H   0  0  0  0  0  0  0  0  0  0  0  0
   40.2909   16.4270  -10.1398 C   0  0  0  0  0  0  0  0  0  0  0  0
   40.7927   15.4913   -9.1250 C   0  0  0  0  0  0  0  0  0  0  0  0
   39.9047   14.8058   -8.3228 C   0  0  0  0  0  0  0  0  0  0  0  0
   40.3138   13.8938   -7.3689 C   0  0  0  0  0  0  0  0  0  0  0  0
   41.6477   13.6506   -7.2022 C   0  0  0  0  0  0  0  0  0  0  0  0
   42.5466   14.3399   -8.0097 C   0  0  0  0  0  0  0  0  0  0  0  0
   42.1236   15.2392   -8.9490 C   0  0  0  0  0  0  0  0  0  0  0  0
   35.5813   14.4707  -13.0586 C   0  0  0  0  0  0  0  0  0  0  0  0
   35.5597   11.9698  -12.9710 C   0  0  0  0  0  0  0  0  0  0  0  0
   35.3890   13.2244  -13.8177 C   0  0  0  0  0  0  0  0  0  0  0  0
   33.9391   13.1412  -14.3311 C   0  0  0  0  0  0  0  0  0  0  0  0
 34 35  1  0  0  0
 35 36  1  0  0  0
 35 33  1  0  0  0
 33  1  1  0  0  0
  1  2  1  0  0  0
  2  3  1  0  0  0
  3  4  2  0  0  0
  3  6  1  0  0  0
  6  7  1  0  0  0
  7  8  1  0  0  0
  6 10  1  0  0  0
 10 11  1  0  0  0
 11 12  2  0  0  0
 12 13  1  0  0  0
 13 14  2  0  0  0
 14 15  1  0  0  0
 15 16  2  0  0  0
  1 17  1  0  0  0
 17 18  2  0  0  0
 17 19  1  0  0  0
 19 21  1  0  0  0
 21 26  1  0  0  0
 26 27  1  0  0  0
 27 28  2  0  0  0
 28 29  1  0  0  0
 29 30  2  0  0  0
 30 31  1  0  0  0
 31 32  2  0  0  0
 21 22  1  0  0  0
 22 23  1  0  0  0
 22 24  2  0  0  0
 16 11  1  0  0  0
 32 27  1  0  0  0
  2  5  1  0  0  0
  8  9  1  0  0  0
 19 20  1  0  0  0
 23 25  1  0  0  0
M  END
> <minimizedAffinity>
-7.79493

> <CNNscore>
0.3146610260

> <CNNaffinity>
6.3798360825

> <CNN_VS>
2.0074858665

> <CNNaffinity_variance>
0.1027989164

$$$$
[H]OC(=O)[C@@]([H])(N([H])C(=O)[C@@]([H])(N([H])C(=O)[C@@]([H])(C([H])([H])S[H])C([H])([H])c1c([H])c([H])c([H])c([H])c1[H])C([H])([H])C([H])(C([H])([H])[H])C([H])([H])[H])C([H])([H])c1c([H])c([H])c([H])c([H])c1[H]


 36 37  0  0  0  0  0  0  0  0999 V2000
   39.9729   13.8834  -14.0742 C   0  0  0  0  0  0  0  0  0  0  0  0
   38.5492   14.3026  -13.9357 N   0  0  0  0  0  0  0  0  0  0  0  0
   37.5804   13.4220  -13.4653 C   0  0  0  0  0  0  0  0  0  0  0  0
   37.8626   12.2485  -13.1414 O   0  0  0  0  0  0  0  0  0  0  0  0
   38.3373   15.2670  -14.2060 H   0  0  0  0  0  0  0  0  0  0  0  0
   36.1258   13.8347  -13.3186 C   0  0  0  0  0  0  0  0  0  0  0  0
   36.1495   15.0502  -12.4731 C   0  0  0  0  0  0  0  0  0  0  0  0
   36.1868   14.8312  -10.7113 S   0  0  0  0  0  0  0  0  0  0  0  0
   37.5194   14.8805  -10.2594 H   0  0  0  0  0  0  0  0  0  0  0  0
   35.5739   13.8971  -14.6696 C   0  0  0  0  0  0  0  0  0  0  0  0
   35.2224   12.6985  -15.3966 C   0  0  0  0  0  0  0  0  0  0  0  0
   33.9994   12.1045  -15.1535 C   0  0  0  0  0  0  0  0  0  0  0  0
   33.6047   10.9565  -15.8179 C   0  0  0  0  0  0  0  0  0  0  0  0
   34.4303   10.3731  -16.7468 C   0  0  0  0  0  0  0  0  0  0  0  0
   35.6450   10.9434  -17.0031 C   0  0  0  0  0  0  0  0  0  0  0  0
   36.0178   12.0788  -16.3361 C   0  0  0  0  0  0  0  0  0  0  0  0
   40.7917   14.8609  -13.2869 C   0  0  0  0  0  0  0  0  0  0  0  0
   40.3323   16.0553  -13.2970 O   0  0  0  0  0  0  0  0  0  0  0  0
   41.9400   14.5897  -12.5852 N   0  0  0  0  0  0  0  0  0  0  0  0
   42.2716   13.5790  -12.5550 H   0  0  0  0  0  0  0  0  0  0  0  0
   42.7818   15.4956  -11.8204 C   0  0  0  0  0  0  0  0  0  0  0  0
   43.5077   16.4268  -12.6787 C   0  0  0  0  0  0  0  0  0  0  0  0
   43.1130   17.6611  -13.1119 O   0  0  0  0  0  0  0  0  0  0  0  0
   44.6731   16.0824  -13.1097 O   0  0  0  0  0  0  0  0  0  0  0  0
   43.6904   18.4555  -13.2649 H   0  0  0  0  0  0  0  0  0  0  0  0
   43.5884   14.7659  -10.7895 C   0  0  0  0  0  0  0  0  0  0  0  0
   43.1563   14.9475   -9.3976 C   0  0  0  0  0  0  0  0  0  0  0  0
   43.3232   13.9252   -8.4869 C   0  0  0  0  0  0  0  0  0  0  0  0
   42.9609   14.0445   -7.1589 C   0  0  0  0  0  0  0  0  0  0  0  0
   42.4146   15.2153   -6.7154 C   0  0  0  0  0  0  0  0  0  0  0  0
   42.2448   16.2489   -7.6309 C   0  0  0  0  0  0  0  0  0  0  0  0
   42.6093   16.1132   -8.9419 C   0  0  0  0  0  0  0  0  0  0  0  0
   40.3165   13.9426  -15.5317 C   0  0  0  0  0  0  0  0  0  0  0  0
   40.3743   12.5371  -17.6016 C   0  0  0  0  0  0  0  0  0  0  0  0
   40.8146   12.7046  -16.1530 C   0  0  0  0  0  0  0  0  0  0  0  0
   42.3529   12.7361  -16.2254 C   0  0  0  0  0  0  0  0  0  0  0  0
 34 35  1  0  0  0
 35 36  1  0  0  0
 35 33  1  0  0  0
 33  1  1  0  0  0
  1  2  1  0  0  0
  2  3  1  0  0  0
  3  4  2  0  0  0
  3  6  1  0  0  0
  6  7  1  0  0  0
  7  8  1  0  0  0
  6 10  1  0  0  0
 10 11  1  0  0  0
 11 12  2  0  0  0
 12 13  1  0  0  0
 13 14  2  0  0  0
 14 15  1  0  0  0
 15 16  2  0  0  0
  1 17  1  0  0  0
 17 18  2  0  0  0
 17 19  1  0  0  0
 19 21  1  0  0  0
 21 26  1  0  0  0
 26 27  1  0  0  0
 27 28  2  0  0  0
 28 29  1  0  0  0
 29 30  2  0  0  0
 30 31  1  0  0  0
 31 32  2  0  0  0
 21 22  1  0  0  0
 22 23  1  0  0  0
 22 24  2  0  0  0
 16 11  1  0  0  0
 32 27  1  0  0  0
  2  5  1  0  0  0
  8  9  1  0  0  0
 19 20  1  0  0  0
 23 25  1  0  0  0
M  END
> <minimizedAffinity>
-7.34684

> <CNNscore>
0.3092958927

> <CNNaffinity>
6.2515902519

> <CNN_VS>
1.9335912466

> <CNNaffinity_variance>
0.1424584836

$$$$
[H]OC(=O)[C@@]([H])(N([H])C(=O)[C@@]([H])(N([H])C(=O)[C@@]([H])(C([H])([H])S[H])C([H])([H])c1c([H])c([H])c([H])c([H])c1[H])C([H])([H])C([H])(C([H])([H])[H])C([H])([H])[H])C([H])([H])c1c([H])c([H])c([H])c([H])c1[H]


 36 37  0  0  0  0  0  0  0  0999 V2000
   40.0090   12.6554  -15.4761 C   0  0  0  0  0  0  0  0  0  0  0  0
   39.0313   13.5972  -14.8606 N   0  0  0  0  0  0  0  0  0  0  0  0
   38.0163   13.1398  -14.0263 C   0  0  0  0  0  0  0  0  0  0  0  0
   37.8832   11.9262  -13.7600 O   0  0  0  0  0  0  0  0  0  0  0  0
   39.1561   14.5869  -15.0905 H   0  0  0  0  0  0  0  0  0  0  0  0
   37.0127   14.0873  -13.3918 C   0  0  0  0  0  0  0  0  0  0  0  0
   35.6891   13.6344  -13.8775 C   0  0  0  0  0  0  0  0  0  0  0  0
   34.2527   14.1638  -12.9777 S   0  0  0  0  0  0  0  0  0  0  0  0
   33.7203   15.3200  -13.5797 H   0  0  0  0  0  0  0  0  0  0  0  0
   37.2992   14.0970  -11.9595 C   0  0  0  0  0  0  0  0  0  0  0  0
   37.6366   15.3195  -11.2663 C   0  0  0  0  0  0  0  0  0  0  0  0
   38.9678   15.6275  -11.0650 C   0  0  0  0  0  0  0  0  0  0  0  0
   39.3548   16.7832  -10.4094 C   0  0  0  0  0  0  0  0  0  0  0  0
   38.4123   17.6627   -9.9374 C   0  0  0  0  0  0  0  0  0  0  0  0
   37.0892   17.3783  -10.1251 C   0  0  0  0  0  0  0  0  0  0  0  0
   36.7259   16.2304  -10.7759 C   0  0  0  0  0  0  0  0  0  0  0  0
   41.3687   13.2567  -15.2872 C   0  0  0  0  0  0  0  0  0  0  0  0
   41.3672   14.3583  -14.6357 O   0  0  0  0  0  0  0  0  0  0  0  0
   42.5609   12.7425  -15.7330 N   0  0  0  0  0  0  0  0  0  0  0  0
   42.5365   11.8017  -16.2296 H   0  0  0  0  0  0  0  0  0  0  0  0
   43.9022   13.2867  -15.5947 C   0  0  0  0  0  0  0  0  0  0  0  0
   44.8715   12.5749  -16.4220 C   0  0  0  0  0  0  0  0  0  0  0  0
   44.7085   12.0920  -17.6897 O   0  0  0  0  0  0  0  0  0  0  0  0
   46.0435   12.3474  -15.9351 O   0  0  0  0  0  0  0  0  0  0  0  0
   45.3950   12.0480  -18.4072 H   0  0  0  0  0  0  0  0  0  0  0  0
   44.2712   13.4933  -14.1570 C   0  0  0  0  0  0  0  0  0  0  0  0
   44.5561   14.8801  -13.7660 C   0  0  0  0  0  0  0  0  0  0  0  0
   43.9559   15.4157  -12.6458 C   0  0  0  0  0  0  0  0  0  0  0  0
   44.2033   16.7042  -12.2125 C   0  0  0  0  0  0  0  0  0  0  0  0
   45.0747   17.4909  -12.9110 C   0  0  0  0  0  0  0  0  0  0  0  0
   45.6823   16.9542  -14.0415 C   0  0  0  0  0  0  0  0  0  0  0  0
   45.4255   15.6764  -14.4557 C   0  0  0  0  0  0  0  0  0  0  0  0
   39.6665   12.5429  -16.9307 C   0  0  0  0  0  0  0  0  0  0  0  0
   37.8243   10.9269  -17.4385 C   0  0  0  0  0  0  0  0  0  0  0  0
   39.3221   11.2039  -17.4360 C   0  0  0  0  0  0  0  0  0  0  0  0
   39.7334   11.0796  -18.9151 C   0  0  0  0  0  0  0  0  0  0  0  0
 34 35  1  0  0  0
 35 36  1  0  0  0
 35 33  1  0  0  0
 33  1  1  0  0  0
  1  2  1  0  0  0
  2  3  1  0  0  0
  3  4  2  0  0  0
  3  6  1  0  0  0
  6  7  1  0  0  0
  7  8  1  0  0  0
  6 10  1  0  0  0
 10 11  1  0  0  0
 11 12  2  0  0  0
 12 13  1  0  0  0
 13 14  2  0  0  0
 14 15  1  0  0  0
 15 16  2  0  0  0
  1 17  1  0  0  0
 17 18  2  0  0  0
 17 19  1  0  0  0
 19 21  1  0  0  0
 21 26  1  0  0  0
 26 27  1  0  0  0
 27 28  2  0  0  0
 28 29  1  0  0  0
 29 30  2  0  0  0
 30 31  1  0  0  0
 31 32  2  0  0  0
 21 22  1  0  0  0
 22 23  1  0  0  0
 22 24  2  0  0  0
 16 11  1  0  0  0
 32 27  1  0  0  0
  2  5  1  0  0  0
  8  9  1  0  0  0
 19 20  1  0  0  0
 23 25  1  0  0  0
M  END
> <minimizedAffinity>
-7.33764

> <CNNscore>
0.2822848260

> <CNNaffinity>
6.1369910240

> <CNN_VS>
1.7323794365

> <CNNaffinity_variance>
0.3535723090

$$$$
[H]OC(=O)[C@@]([H])(N([H])C(=O)[C@@]([H])(N([H])C(=O)[C@@]([H])(C([H])([H])S[H])C([H])([H])c1c([H])c([H])c([H])c([H])c1[H])C([H])([H])C([H])(C([H])([H])[H])C([H])([H])[H])C([H])([H])c1c([H])c([H])c([H])c([H])c1[H]


 36 37  0  0  0  0  0  0  0  0999 V2000
   38.1020   14.9368  -12.4011 C   0  0  0  0  0  0  0  0  0  0  0  0
   38.4730   16.0695  -11.5062 N   0  0  0  0  0  0  0  0  0  0  0  0
   38.2466   16.0094  -10.1349 C   0  0  0  0  0  0  0  0  0  0  0  0
   37.7250   15.0079   -9.5996 O   0  0  0  0  0  0  0  0  0  0  0  0
   38.8986   16.8810  -11.9627 H   0  0  0  0  0  0  0  0  0  0  0  0
   38.6193   17.1555   -9.2102 C   0  0  0  0  0  0  0  0  0  0  0  0
   37.9892   18.3563   -9.8052 C   0  0  0  0  0  0  0  0  0  0  0  0
   37.6128   19.7139   -8.7243 S   0  0  0  0  0  0  0  0  0  0  0  0
   38.6674   20.6463   -8.7555 H   0  0  0  0  0  0  0  0  0  0  0  0
   38.2550   16.7346   -7.8597 C   0  0  0  0  0  0  0  0  0  0  0  0
   39.2465   16.6096   -6.8156 C   0  0  0  0  0  0  0  0  0  0  0  0
   40.1140   15.5351   -6.8436 C   0  0  0  0  0  0  0  0  0  0  0  0
   41.0853   15.3605   -5.8735 C   0  0  0  0  0  0  0  0  0  0  0  0
   41.2115   16.2630   -4.8467 C   0  0  0  0  0  0  0  0  0  0  0  0
   40.3639   17.3335   -4.7988 C   0  0  0  0  0  0  0  0  0  0  0  0
   39.4096   17.4893   -5.7674 C   0  0  0  0  0  0  0  0  0  0  0  0
   39.2697   14.7017  -13.3105 C   0  0  0  0  0  0  0  0  0  0  0  0
   39.8827   15.7692  -13.6608 O   0  0  0  0  0  0  0  0  0  0  0  0
   39.7162   13.4890  -13.7736 N   0  0  0  0  0  0  0  0  0  0  0  0
   39.2168   12.6154  -13.4274 H   0  0  0  0  0  0  0  0  0  0  0  0
   40.8275   13.2020  -14.6663 C   0  0  0  0  0  0  0  0  0  0  0  0
   42.1039   13.6453  -14.1140 C   0  0  0  0  0  0  0  0  0  0  0  0
   42.3832   14.0307  -12.8333 O   0  0  0  0  0  0  0  0  0  0  0  0
   43.1260   13.6987  -14.8982 O   0  0  0  0  0  0  0  0  0  0  0  0
   43.2295   13.8820  -12.3337 H   0  0  0  0  0  0  0  0  0  0  0  0
   40.5274   13.6140  -16.0755 C   0  0  0  0  0  0  0  0  0  0  0  0
   39.8347   12.6131  -16.8975 C   0  0  0  0  0  0  0  0  0  0  0  0
   40.3786   12.2162  -18.1011 C   0  0  0  0  0  0  0  0  0  0  0  0
   39.7883   11.2608  -18.9060 C   0  0  0  0  0  0  0  0  0  0  0  0
   38.6195   10.6770  -18.5071 C   0  0  0  0  0  0  0  0  0  0  0  0
   38.0679   11.0744  -17.2935 C   0  0  0  0  0  0  0  0  0  0  0  0
   38.6662   12.0218  -16.5094 C   0  0  0  0  0  0  0  0  0  0  0  0
   36.8907   15.3580  -13.1767 C   0  0  0  0  0  0  0  0  0  0  0  0
   35.9072   13.7076  -14.7804 C   0  0  0  0  0  0  0  0  0  0  0  0
   35.8493   14.3412  -13.3964 C   0  0  0  0  0  0  0  0  0  0  0  0
   36.0568   13.1603  -12.4295 C   0  0  0  0  0  0  0  0  0  0  0  0
 34 35  1  0  0  0
 35 36  1  0  0  0
 35 33  1  0  0  0
 33  1  1  0  0  0
  1  2  1  0  0  0
  2  3  1  0  0  0
  3  4  2  0  0  0
  3  6  1  0  0  0
  6  7  1  0  0  0
  7  8  1  0  0  0
  6 10  1  0  0  0
 10 11  1  0  0  0
 11 12  2  0  0  0
 12 13  1  0  0  0
 13 14  2  0  0  0
 14 15  1  0  0  0
 15 16  2  0  0  0
  1 17  1  0  0  0
 17 18  2  0  0  0
 17 19  1  0  0  0
 19 21  1  0  0  0
 21 26  1  0  0  0
 26 27  1  0  0  0
 27 28  2  0  0  0
 28 29  1  0  0  0
 29 30  2  0  0  0
 30 31  1  0  0  0
 31 32  2  0  0  0
 21 22  1  0  0  0
 22 23  1  0  0  0
 22 24  2  0  0  0
 16 11  1  0  0  0
 32 27  1  0  0  0
  2  5  1  0  0  0
  8  9  1  0  0  0
 19 20  1  0  0  0
 23 25  1  0  0  0
M  END
> <minimizedAffinity>
-7.29141

> <CNNscore>
0.2628408670

> <CNNaffinity>
6.0047554970

> <CNN_VS>
1.5782951117

> <CNNaffinity_variance>
0.1380725056

$$$$
[H]OC(=O)[C@@]([H])(N([H])C(=O)[C@@]([H])(N([H])C(=O)[C@@]([H])(C([H])([H])S[H])C([H])([H])c1c([H])c([H])c([H])c([H])c1[H])C([H])([H])C([H])(C([H])([H])[H])C([H])([H])[H])C([H])([H])c1c([H])c([H])c([H])c([H])c1[H]


 36 37  0  0  0  0  0  0  0  0999 V2000
   38.3260   14.4110  -12.7782 C   0  0  0  0  0  0  0  0  0  0  0  0
   38.8518   15.4118  -11.8068 N   0  0  0  0  0  0  0  0  0  0  0  0
   38.3730   15.4712  -10.5020 C   0  0  0  0  0  0  0  0  0  0  0  0
   37.4862   14.6917  -10.0927 O   0  0  0  0  0  0  0  0  0  0  0  0
   39.5773   16.0417  -12.1603 H   0  0  0  0  0  0  0  0  0  0  0  0
   38.8991   16.4854   -9.5008 C   0  0  0  0  0  0  0  0  0  0  0  0
   40.3639   16.2716   -9.4635 C   0  0  0  0  0  0  0  0  0  0  0  0
   40.9976   15.0892   -8.3002 S   0  0  0  0  0  0  0  0  0  0  0  0
   41.1552   13.8425   -8.9354 H   0  0  0  0  0  0  0  0  0  0  0  0
   38.3617   17.7827   -9.9029 C   0  0  0  0  0  0  0  0  0  0  0  0
   37.5644   18.5813   -8.9998 C   0  0  0  0  0  0  0  0  0  0  0  0
   36.4943   17.9924   -8.3551 C   0  0  0  0  0  0  0  0  0  0  0  0
   35.6939   18.7034   -7.4782 C   0  0  0  0  0  0  0  0  0  0  0  0
   35.9479   20.0286   -7.2249 C   0  0  0  0  0  0  0  0  0  0  0  0
   37.0012   20.6319   -7.8518 C   0  0  0  0  0  0  0  0  0  0  0  0
   37.7816   19.9122   -8.7157 C   0  0  0  0  0  0  0  0  0  0  0  0
   39.3646   14.2566  -13.8474 C   0  0  0  0  0  0  0  0  0  0  0  0
   39.5359   15.3025  -14.5648 O   0  0  0  0  0  0  0  0  0  0  0  0
   40.1152   13.1363  -14.1046 N   0  0  0  0  0  0  0  0  0  0  0  0
   39.9856   12.2983  -13.4616 H   0  0  0  0  0  0  0  0  0  0  0  0
   41.1206   12.9235  -15.1332 C   0  0  0  0  0  0  0  0  0  0  0  0
   42.4407   13.3848  -14.7144 C   0  0  0  0  0  0  0  0  0  0  0  0
   43.5227   13.6753  -15.4966 O   0  0  0  0  0  0  0  0  0  0  0  0
   42.6612   13.5509  -13.4550 O   0  0  0  0  0  0  0  0  0  0  0  0
   44.2031   14.3825  -15.3396 H   0  0  0  0  0  0  0  0  0  0  0  0
   40.6448   13.3841  -16.4775 C   0  0  0  0  0  0  0  0  0  0  0  0
   39.8668   12.4046  -17.2473 C   0  0  0  0  0  0  0  0  0  0  0  0
   38.6904   11.9026  -16.7314 C   0  0  0  0  0  0  0  0  0  0  0  0
   37.9018   10.9993  -17.4180 C   0  0  0  0  0  0  0  0  0  0  0  0
   38.2896   10.5775  -18.6580 C   0  0  0  0  0  0  0  0  0  0  0  0
   39.4756   11.0817  -19.1819 C   0  0  0  0  0  0  0  0  0  0  0  0
   40.2437   11.9754  -18.4880 C   0  0  0  0  0  0  0  0  0  0  0  0
   37.0506   14.9614  -13.3408 C   0  0  0  0  0  0  0  0  0  0  0  0
   35.8408   13.5678  -15.0312 C   0  0  0  0  0  0  0  0  0  0  0  0
   35.9557   14.0063  -13.5770 C   0  0  0  0  0  0  0  0  0  0  0  0
   36.2242   12.6996  -12.8069 C   0  0  0  0  0  0  0  0  0  0  0  0
 34 35  1  0  0  0
 35 36  1  0  0  0
 35 33  1  0  0  0
 33  1  1  0  0  0
  1  2  1  0  0  0
  2  3  1  0  0  0
  3  4  2  0  0  0
  3  6  1  0  0  0
  6  7  1  0  0  0
  7  8  1  0  0  0
  6 10  1  0  0  0
 10 11  1  0  0  0
 11 12  2  0  0  0
 12 13  1  0  0  0
 13 14  2  0  0  0
 14 15  1  0  0  0
 15 16  2  0  0  0
  1 17  1  0  0  0
 17 18  2  0  0  0
 17 19  1  0  0  0
 19 21  1  0  0  0
 21 26  1  0  0  0
 26 27  1  0  0  0
 27 28  2  0  0  0
 28 29  1  0  0  0
 29 30  2  0  0  0
 30 31  1  0  0  0
 31 32  2  0  0  0
 21 22  1  0  0  0
 22 23  1  0  0  0
 22 24  2  0  0  0
 16 11  1  0  0  0
 32 27  1  0  0  0
  2  5  1  0  0  0
  8  9  1  0  0  0
 19 20  1  0  0  0
 23 25  1  0  0  0
M  END
> <minimizedAffinity>
-7.54150

> <CNNscore>
0.2426410019

> <CNNaffinity>
6.0925760269

> <CNN_VS>
1.4783087969

> <CNNaffinity_variance>
0.1544538438

$$$$
[H]OC(=O)[C@@]([H])(N([H])C(=O)[C@@]([H])(N([H])C(=O)[C@@]([H])(C([H])([H])S[H])C([H])([H])c1c([H])c([H])c([H])c([H])c1[H])C([H])([H])C([H])(C([H])([H])[H])C([H])([H])[H])C([H])([H])c1c([H])c([H])c([H])c([H])c1[H]


 36 37  0  0  0  0  0  0  0  0999 V2000
   40.1205   12.7470  -15.2899 C   0  0  0  0  0  0  0  0  0  0  0  0
   38.9559   13.4974  -14.7401 N   0  0  0  0  0  0  0  0  0  0  0  0
   38.0125   12.8730  -13.9306 C   0  0  0  0  0  0  0  0  0  0  0  0
   38.1021   11.6627  -13.6328 O   0  0  0  0  0  0  0  0  0  0  0  0
   38.8993   14.4873  -14.9951 H   0  0  0  0  0  0  0  0  0  0  0  0
   36.8206   13.6245  -13.3628 C   0  0  0  0  0  0  0  0  0  0  0  0
   37.3982   14.7780  -12.6358 C   0  0  0  0  0  0  0  0  0  0  0  0
   36.2738   15.9333  -11.8915 S   0  0  0  0  0  0  0  0  0  0  0  0
   36.0746   15.5918  -10.5401 H   0  0  0  0  0  0  0  0  0  0  0  0
   35.9033   13.8502  -14.4769 C   0  0  0  0  0  0  0  0  0  0  0  0
   35.3167   12.7487  -15.2058 C   0  0  0  0  0  0  0  0  0  0  0  0
   34.1235   12.2136  -14.7612 C   0  0  0  0  0  0  0  0  0  0  0  0
   33.5116   11.1593  -15.4161 C   0  0  0  0  0  0  0  0  0  0  0  0
   34.0834   10.6128  -16.5382 C   0  0  0  0  0  0  0  0  0  0  0  0
   35.2639   11.1260  -16.9959 C   0  0  0  0  0  0  0  0  0  0  0  0
   35.8541   12.1690  -16.3348 C   0  0  0  0  0  0  0  0  0  0  0  0
   41.3541   13.3972  -14.7411 C   0  0  0  0  0  0  0  0  0  0  0  0
   42.3171   13.4828  -15.5797 O   0  0  0  0  0  0  0  0  0  0  0  0
   41.5248   13.8892  -13.4710 N   0  0  0  0  0  0  0  0  0  0  0  0
   40.6914   13.8479  -12.8107 H   0  0  0  0  0  0  0  0  0  0  0  0
   42.6981   14.5124  -12.8800 C   0  0  0  0  0  0  0  0  0  0  0  0
   43.5931   13.5323  -12.2725 C   0  0  0  0  0  0  0  0  0  0  0  0
   43.4773   12.9207  -11.0562 O   0  0  0  0  0  0  0  0  0  0  0  0
   44.6414   13.1690  -12.9294 O   0  0  0  0  0  0  0  0  0  0  0  0
   43.7444   11.9918  -10.8246 H   0  0  0  0  0  0  0  0  0  0  0  0
   42.3323   15.6979  -12.0394 C   0  0  0  0  0  0  0  0  0  0  0  0
   43.4563   16.4013  -11.4076 C   0  0  0  0  0  0  0  0  0  0  0  0
   43.6071   16.3651  -10.0372 C   0  0  0  0  0  0  0  0  0  0  0  0
   44.6571   16.9846   -9.3870 C   0  0  0  0  0  0  0  0  0  0  0  0
   45.5910   17.6636  -10.1169 C   0  0  0  0  0  0  0  0  0  0  0  0
   45.4425   17.7023  -11.4996 C   0  0  0  0  0  0  0  0  0  0  0  0
   44.3966   17.0831  -12.1264 C   0  0  0  0  0  0  0  0  0  0  0  0
   40.0658   12.8679  -16.7827 C   0  0  0  0  0  0  0  0  0  0  0  0
   38.9348   10.7079  -17.3470 C   0  0  0  0  0  0  0  0  0  0  0  0
   40.1369   11.6191  -17.5587 C   0  0  0  0  0  0  0  0  0  0  0  0
   40.1118   11.9360  -19.0659 C   0  0  0  0  0  0  0  0  0  0  0  0
 34 35  1  0  0  0
 35 36  1  0  0  0
 35 33  1  0  0  0
 33  1  1  0  0  0
  1  2  1  0  0  0
  2  3  1  0  0  0
  3  4  2  0  0  0
  3  6  1  0  0  0
  6  7  1  0  0  0
  7  8  1  0  0  0
  6 10  1  0  0  0
 10 11  1  0  0  0
 11 12  2  0  0  0
 12 13  1  0  0  0
 13 14  2  0  0  0
 14 15  1  0  0  0
 15 16  2  0  0  0
  1 17  1  0  0  0
 17 18  2  0  0  0
 17 19  1  0  0  0
 19 21  1  0  0  0
 21 26  1  0  0  0
 26 27  1  0  0  0
 27 28  2  0  0  0
 28 29  1  0  0  0
 29 30  2  0  0  0
 30 31  1  0  0  0
 31 32  2  0  0  0
 21 22  1  0  0  0
 22 23  1  0  0  0
 22 24  2  0  0  0
 16 11  1  0  0  0
 32 27  1  0  0  0
  2  5  1  0  0  0
  8  9  1  0  0  0
 19 20  1  0  0  0
 23 25  1  0  0  0
M  END
> <minimizedAffinity>
-7.67855

> <CNNscore>
0.2419764847

> <CNNaffinity>
6.0370011330

> <CNN_VS>
1.4608123302

> <CNNaffinity_variance>
0.2150373161

$$$$
[H]c1c([H])c(Cl)c([H])c(C2=NC([H])([H])C(=O)N(C([H])([H])[H])c3c([H])c([H])c(Cl)c([H])c32)c1[H]


 21 23  0  0  0  0  0  0  0  0999 V2000
   33.5989   15.1630  -12.8990 C   0  0  0  0  0  0  0  0  0  0  0  0
   34.7530   14.3530  -12.8139 N   0  0  0  0  0  0  0  0  0  0  0  0
   34.9533   13.3861  -13.8765 C   0  0  0  0  0  0  0  0  0  0  0  0
   33.7363   12.9567  -14.3785 C   0  0  0  0  0  0  0  0  0  0  0  0
   33.7883   11.9420  -15.3175 C   0  0  0  0  0  0  0  0  0  0  0  0
   35.0203   11.4092  -15.7061 C   0  0  0  0  0  0  0  0  0  0  0  0
   35.0682   10.1331  -16.8958 Cl  0  0  0  0  0  0  0  0  0  0  0  0
   36.2084   11.8430  -15.2026 C   0  0  0  0  0  0  0  0  0  0  0  0
   36.1734   12.8666  -14.2628 C   0  0  0  0  0  0  0  0  0  0  0  0
   37.5206   13.2559  -13.8746 C   0  0  0  0  0  0  0  0  0  0  0  0
   37.7637   13.5917  -12.6268 N   0  0  0  0  0  0  0  0  0  0  0  0
   36.9321   13.6804  -11.4524 C   0  0  0  0  0  0  0  0  0  0  0  0
   35.6822   14.4483  -11.7143 C   0  0  0  0  0  0  0  0  0  0  0  0
   35.3893   15.2974  -10.8658 O   0  0  0  0  0  0  0  0  0  0  0  0
   38.6039   13.2792  -14.7961 C   0  0  0  0  0  0  0  0  0  0  0  0
   39.6130   14.1523  -14.9200 C   0  0  0  0  0  0  0  0  0  0  0  0
   40.5665   14.1380  -15.9243 C   0  0  0  0  0  0  0  0  0  0  0  0
   40.5064   13.1608  -16.8898 C   0  0  0  0  0  0  0  0  0  0  0  0
   39.4920   12.2310  -16.8147 C   0  0  0  0  0  0  0  0  0  0  0  0
   39.4376   10.9952  -18.0544 Cl  0  0  0  0  0  0  0  0  0  0  0  0
   38.5634   12.2812  -15.8007 C   0  0  0  0  0  0  0  0  0  0  0  0
  1  2  1  0  0  0
  2  3  1  0  0  0
  3  4  2  0  0  0
  4  5  1  0  0  0
  5  6  2  0  0  0
  6  7  1  0  0  0
  6  8  1  0  0  0
  8  9  2  0  0  0
  9 10  1  0  0  0
 10 11  2  0  0  0
 11 12  1  0  0  0
 12 13  1  0  0  0
 13 14  2  0  0  0
 10 15  1  0  0  0
 15 16  2  0  0  0
 16 17  1  0  0  0
 17 18  2  0  0  0
 18 19  1  0  0  0
 19 20  1  0  0  0
 19 21  2  0  0  0
 13  2  1  0  0  0
 21 15  1  0  0  0
  9  3  1  0  0  0
M  END
> <minimizedAffinity>
-7.57635

> <CNNscore>
0.7636240721

> <CNNaffinity>
6.3984556198

> <CNN_VS>
4.8860149384

> <CNNaffinity_variance>
0.0707310289

$$$$
[H]c1c([H])c(Cl)c([H])c(C2=NC([H])([H])C(=O)N(C([H])([H])[H])c3c([H])c([H])c(Cl)c([H])c32)c1[H]


 21 23  0  0  0  0  0  0  0  0999 V2000
   40.8348   14.3078  -17.6498 C   0  0  0  0  0  0  0  0  0  0  0  0
   40.1737   13.1563  -17.1681 N   0  0  0  0  0  0  0  0  0  0  0  0
   39.4052   13.3059  -15.9470 C   0  0  0  0  0  0  0  0  0  0  0  0
   39.9661   14.2779  -15.1359 C   0  0  0  0  0  0  0  0  0  0  0  0
   39.3943   14.4328  -13.8856 C   0  0  0  0  0  0  0  0  0  0  0  0
   38.3152   13.6310  -13.5044 C   0  0  0  0  0  0  0  0  0  0  0  0
   37.6023   13.8431  -11.9256 Cl  0  0  0  0  0  0  0  0  0  0  0  0
   37.7751   12.6794  -14.3143 C   0  0  0  0  0  0  0  0  0  0  0  0
   38.3344   12.5159  -15.5764 C   0  0  0  0  0  0  0  0  0  0  0  0
   37.6068   11.5108  -16.3362 C   0  0  0  0  0  0  0  0  0  0  0  0
   38.2655   10.6993  -17.1340 N   0  0  0  0  0  0  0  0  0  0  0  0
   39.6618   10.5673  -17.4676 C   0  0  0  0  0  0  0  0  0  0  0  0
   40.2723   11.8776  -17.8292 C   0  0  0  0  0  0  0  0  0  0  0  0
   40.9709   11.8783  -18.8483 O   0  0  0  0  0  0  0  0  0  0  0  0
   36.1956   11.3581  -16.2445 C   0  0  0  0  0  0  0  0  0  0  0  0
   35.3682   10.5552  -16.9277 C   0  0  0  0  0  0  0  0  0  0  0  0
   33.9867   10.5580  -16.8301 C   0  0  0  0  0  0  0  0  0  0  0  0
   33.3788   11.4416  -15.9697 C   0  0  0  0  0  0  0  0  0  0  0  0
   34.1774   12.2922  -15.2363 C   0  0  0  0  0  0  0  0  0  0  0  0
   33.3803   13.4070  -14.1460 Cl  0  0  0  0  0  0  0  0  0  0  0  0
   35.5470   12.2582  -15.3637 C   0  0  0  0  0  0  0  0  0  0  0  0
  1  2  1  0  0  0
  2  3  1  0  0  0
  3  4  2  0  0  0
  4  5  1  0  0  0
  5  6  2  0  0  0
  6  7  1  0  0  0
  6  8  1  0  0  0
  8  9  2  0  0  0
  9 10  1  0  0  0
 10 11  2  0  0  0
 11 12  1  0  0  0
 12 13  1  0  0  0
 13 14  2  0  0  0
 10 15  1  0  0  0
 15 16  2  0  0  0
 16 17  1  0  0  0
 17 18  2  0  0  0
 18 19  1  0  0  0
 19 20  1  0  0  0
 19 21  2  0  0  0
 13  2  1  0  0  0
 21 15  1  0  0  0
  9  3  1  0  0  0
M  END
> <minimizedAffinity>
-7.85249

> <CNNscore>
0.5075701475

> <CNNaffinity>
6.4922270775

> <CNN_VS>
3.2952606678

> <CNNaffinity_variance>
0.2337309867

$$$$
[H]c1c([H])c(Cl)c([H])c(C2=NC([H])([H])C(=O)N(C([H])([H])[H])c3c([H])c([H])c(Cl)c([H])c32)c1[H]


 21 23  0  0  0  0  0  0  0  0999 V2000
   33.9507   14.8294  -13.8080 C   0  0  0  0  0  0  0  0  0  0  0  0
   35.0590   13.9572  -13.7305 N   0  0  0  0  0  0  0  0  0  0  0  0
   35.0629   12.8226  -14.6343 C   0  0  0  0  0  0  0  0  0  0  0  0
   33.7683   12.4138  -14.9066 C   0  0  0  0  0  0  0  0  0  0  0  0
   33.6390   11.2629  -15.6636 C   0  0  0  0  0  0  0  0  0  0  0  0
   34.7773   10.5831  -16.1050 C   0  0  0  0  0  0  0  0  0  0  0  0
   34.5963    9.1358  -17.0635 Cl  0  0  0  0  0  0  0  0  0  0  0  0
   36.0438   10.9986  -15.8285 C   0  0  0  0  0  0  0  0  0  0  0  0
   36.1905   12.1571  -15.0743 C   0  0  0  0  0  0  0  0  0  0  0  0
   37.5967   12.4985  -14.9225 C   0  0  0  0  0  0  0  0  0  0  0  0
   38.0209   13.0069  -13.7866 N   0  0  0  0  0  0  0  0  0  0  0  0
   37.3581   13.3427  -12.5511 C   0  0  0  0  0  0  0  0  0  0  0  0
   36.1293   14.1530  -12.7829 C   0  0  0  0  0  0  0  0  0  0  0  0
   35.9989   15.1450  -12.0579 O   0  0  0  0  0  0  0  0  0  0  0  0
   38.5482   12.2936  -15.9597 C   0  0  0  0  0  0  0  0  0  0  0  0
   38.4348   11.6241  -17.1151 C   0  0  0  0  0  0  0  0  0  0  0  0
   39.4631   11.3988  -18.0151 C   0  0  0  0  0  0  0  0  0  0  0  0
   40.7165   11.8899  -17.7353 C   0  0  0  0  0  0  0  0  0  0  0  0
   40.8958   12.5904  -16.5621 C   0  0  0  0  0  0  0  0  0  0  0  0
   42.5005   13.2076  -16.2288 Cl  0  0  0  0  0  0  0  0  0  0  0  0
   39.8477   12.7912  -15.6938 C   0  0  0  0  0  0  0  0  0  0  0  0
  1  2  1  0  0  0
  2  3  1  0  0  0
  3  4  2  0  0  0
  4  5  1  0  0  0
  5  6  2  0  0  0
  6  7  1  0  0  0
  6  8  1  0  0  0
  8  9  2  0  0  0
  9 10  1  0  0  0
 10 11  2  0  0  0
 11 12  1  0  0  0
 12 13  1  0  0  0
 13 14  2  0  0  0
 10 15  1  0  0  0
 15 16  2  0  0  0
 16 17  1  0  0  0
 17 18  2  0  0  0
 18 19  1  0  0  0
 19 20  1  0  0  0
 19 21  2  0  0  0
 13  2  1  0  0  0
 21 15  1  0  0  0
  9  3  1  0  0  0
M  END
> <minimizedAffinity>
-7.45195

> <CNNscore>
0.4945302308

> <CNNaffinity>
6.3493256569

> <CNN_VS>
3.1399335861

> <CNNaffinity_variance>
0.1542223990

$$$$
[H]c1c([H])c(Cl)c([H])c(C2=NC([H])([H])C(=O)N(C([H])([H])[H])c3c([H])c([H])c(Cl)c([H])c32)c1[H]


 21 23  0  0  0  0  0  0  0  0999 V2000
   36.2549   14.7611   -9.4750 C   0  0  0  0  0  0  0  0  0  0  0  0
   35.7263   14.9256  -10.7744 N   0  0  0  0  0  0  0  0  0  0  0  0
   36.6381   14.7158  -11.8829 C   0  0  0  0  0  0  0  0  0  0  0  0
   37.9306   15.0547  -11.5198 C   0  0  0  0  0  0  0  0  0  0  0  0
   38.8776   15.0128  -12.5276 C   0  0  0  0  0  0  0  0  0  0  0  0
   38.5059   14.6457  -13.8237 C   0  0  0  0  0  0  0  0  0  0  0  0
   39.7142   14.5928  -15.0819 Cl  0  0  0  0  0  0  0  0  0  0  0  0
   37.2300   14.3151  -14.1642 C   0  0  0  0  0  0  0  0  0  0  0  0
   36.2679   14.3461  -13.1613 C   0  0  0  0  0  0  0  0  0  0  0  0
   34.9777   13.9074  -13.6713 C   0  0  0  0  0  0  0  0  0  0  0  0
   33.8794   14.4868  -13.2393 N   0  0  0  0  0  0  0  0  0  0  0  0
   33.6329   15.5421  -12.2884 C   0  0  0  0  0  0  0  0  0  0  0  0
   34.3559   15.3133  -11.0057 C   0  0  0  0  0  0  0  0  0  0  0  0
   33.6883   15.4789   -9.9793 O   0  0  0  0  0  0  0  0  0  0  0  0
   34.8512   12.8718  -14.6381 C   0  0  0  0  0  0  0  0  0  0  0  0
   33.8116   12.0732  -14.9164 C   0  0  0  0  0  0  0  0  0  0  0  0
   33.8278   11.0207  -15.8165 C   0  0  0  0  0  0  0  0  0  0  0  0
   34.9875   10.7445  -16.5017 C   0  0  0  0  0  0  0  0  0  0  0  0
   36.0914   11.5334  -16.2607 C   0  0  0  0  0  0  0  0  0  0  0  0
   37.5559   11.1632  -17.1467 Cl  0  0  0  0  0  0  0  0  0  0  0  0
   36.0338   12.5692  -15.3569 C   0  0  0  0  0  0  0  0  0  0  0  0
  1  2  1  0  0  0
  2  3  1  0  0  0
  3  4  2  0  0  0
  4  5  1  0  0  0
  5  6  2  0  0  0
  6  7  1  0  0  0
  6  8  1  0  0  0
  8  9  2  0  0  0
  9 10  1  0  0  0
 10 11  2  0  0  0
 11 12  1  0  0  0
 12 13  1  0  0  0
 13 14  2  0  0  0
 10 15  1  0  0  0
 15 16  2  0  0  0
 16 17  1  0  0  0
 17 18  2  0  0  0
 18 19  1  0  0  0
 19 20  1  0  0  0
 19 21  2  0  0  0
 13  2  1  0  0  0
 21 15  1  0  0  0
  9  3  1  0  0  0
M  END
> <minimizedAffinity>
-7.44227

> <CNNscore>
0.4881234467

> <CNNaffinity>
5.7461800575

> <CNN_VS>
2.8048453331

> <CNNaffinity_variance>
0.1435936987

$$$$
[H]c1c([H])c(Cl)c([H])c(C2=NC([H])([H])C(=O)N(C([H])([H])[H])c3c([H])c([H])c(Cl)c([H])c32)c1[H]


 21 23  0  0  0  0  0  0  0  0999 V2000
   37.3071   10.2378  -16.9151 C   0  0  0  0  0  0  0  0  0  0  0  0
   38.3112   11.1587  -17.2875 N   0  0  0  0  0  0  0  0  0  0  0  0
   38.7362   12.1076  -16.2760 C   0  0  0  0  0  0  0  0  0  0  0  0
   37.6920   12.4006  -15.4152 C   0  0  0  0  0  0  0  0  0  0  0  0
   37.9351   13.3863  -14.4753 C   0  0  0  0  0  0  0  0  0  0  0  0
   39.1775   14.0246  -14.4347 C   0  0  0  0  0  0  0  0  0  0  0  0
   39.4693   15.2622  -13.2392 Cl  0  0  0  0  0  0  0  0  0  0  0  0
   40.1943   13.7245  -15.2886 C   0  0  0  0  0  0  0  0  0  0  0  0
   39.9679   12.7316  -16.2348 C   0  0  0  0  0  0  0  0  0  0  0  0
   41.1665   12.4877  -17.0228 C   0  0  0  0  0  0  0  0  0  0  0  0
   41.0550   12.2156  -18.3043 N   0  0  0  0  0  0  0  0  0  0  0  0
   39.9224   12.0822  -19.1864 C   0  0  0  0  0  0  0  0  0  0  0  0
   38.8762   11.1883  -18.6148 C   0  0  0  0  0  0  0  0  0  0  0  0
   38.4168   10.3411  -19.3880 O   0  0  0  0  0  0  0  0  0  0  0  0
   42.4726   12.5420  -16.4623 C   0  0  0  0  0  0  0  0  0  0  0  0
   43.6121   11.9677  -16.8717 C   0  0  0  0  0  0  0  0  0  0  0  0
   44.8174   12.0030  -16.1905 C   0  0  0  0  0  0  0  0  0  0  0  0
   44.8896   12.6757  -14.9935 C   0  0  0  0  0  0  0  0  0  0  0  0
   43.7503   13.2902  -14.5206 C   0  0  0  0  0  0  0  0  0  0  0  0
   43.8678   14.1423  -12.9952 Cl  0  0  0  0  0  0  0  0  0  0  0  0
   42.5718   13.2303  -15.2280 C   0  0  0  0  0  0  0  0  0  0  0  0
  1  2  1  0  0  0
  2  3  1  0  0  0
  3  4  2  0  0  0
  4  5  1  0  0  0
  5  6  2  0  0  0
  6  7  1  0  0  0
  6  8  1  0  0  0
  8  9  2  0  0  0
  9 10  1  0  0  0
 10 11  2  0  0  0
 11 12  1  0  0  0
 12 13  1  0  0  0
 13 14  2  0  0  0
 10 15  1  0  0  0
 15 16  2  0  0  0
 16 17  1  0  0  0
 17 18  2  0  0  0
 18 19  1  0  0  0
 19 20  1  0  0  0
 19 21  2  0  0  0
 13  2  1  0  0  0
 21 15  1  0  0  0
  9  3  1  0  0  0
M  END
> <minimizedAffinity>
-7.01446

> <CNNscore>
0.4066459537

> <CNNaffinity>
6.0277361870

> <CNN_VS>
2.4511544704

> <CNNaffinity_variance>
0.0558269620

$$$$
[H]c1c([H])c(Cl)c([H])c(C2=NC([H])([H])C(=O)N(C([H])([H])[H])c3c([H])c([H])c(Cl)c([H])c32)c1[H]


 21 23  0  0  0  0  0  0  0  0999 V2000
   33.8686   14.2243  -14.5590 C   0  0  0  0  0  0  0  0  0  0  0  0
   35.0667   13.5860  -14.1688 N   0  0  0  0  0  0  0  0  0  0  0  0
   35.6916   12.7146  -15.1456 C   0  0  0  0  0  0  0  0  0  0  0  0
   34.7358   12.1408  -15.9669 C   0  0  0  0  0  0  0  0  0  0  0  0
   35.1937   11.1943  -16.8661 C   0  0  0  0  0  0  0  0  0  0  0  0
   36.5513   10.8657  -16.9070 C   0  0  0  0  0  0  0  0  0  0  0  0
   37.1129    9.6733  -18.0511 Cl  0  0  0  0  0  0  0  0  0  0  0  0
   37.4786   11.4396  -16.0923 C   0  0  0  0  0  0  0  0  0  0  0  0
   37.0353   12.3973  -15.1875 C   0  0  0  0  0  0  0  0  0  0  0  0
   38.1518   12.9562  -14.4404 C   0  0  0  0  0  0  0  0  0  0  0  0
   37.9949   13.2583  -13.1704 N   0  0  0  0  0  0  0  0  0  0  0  0
   36.8740   13.1651  -12.2685 C   0  0  0  0  0  0  0  0  0  0  0  0
   35.6389   13.7572  -12.8554 C   0  0  0  0  0  0  0  0  0  0  0  0
   35.0016   14.5099  -12.1112 O   0  0  0  0  0  0  0  0  0  0  0  0
   39.4267   13.1833  -15.0288 C   0  0  0  0  0  0  0  0  0  0  0  0
   39.8255   13.0523  -16.3015 C   0  0  0  0  0  0  0  0  0  0  0  0
   41.1260   13.2030  -16.7534 C   0  0  0  0  0  0  0  0  0  0  0  0
   42.1156   13.5156  -15.8514 C   0  0  0  0  0  0  0  0  0  0  0  0
   41.7669   13.6664  -14.5267 C   0  0  0  0  0  0  0  0  0  0  0  0
   43.0443   14.0664  -13.3974 Cl  0  0  0  0  0  0  0  0  0  0  0  0
   40.4628   13.5068  -14.1185 C   0  0  0  0  0  0  0  0  0  0  0  0
  1  2  1  0  0  0
  2  3  1  0  0  0
  3  4  2  0  0  0
  4  5  1  0  0  0
  5  6  2  0  0  0
  6  7  1  0  0  0
  6  8  1  0  0  0
  8  9  2  0  0  0
  9 10  1  0  0  0
 10 11  2  0  0  0
 11 12  1  0  0  0
 12 13  1  0  0  0
 13 14  2  0  0  0
 10 15  1  0  0  0
 15 16  2  0  0  0
 16 17  1  0  0  0
 17 18  2  0  0  0
 18 19  1  0  0  0
 19 20  1  0  0  0
 19 21  2  0  0  0
 13  2  1  0  0  0
 21 15  1  0  0  0
  9  3  1  0  0  0
M  END
> <minimizedAffinity>
-7.32240

> <CNNscore>
0.3977075517

> <CNNaffinity>
6.1612863541

> <CNN_VS>
2.4503901005

> <CNNaffinity_variance>
0.1361403465

$$$$
[H]c1c([H])c(Cl)c([H])c(C2=NC([H])([H])C(=O)N(C([H])([H])[H])c3c([H])c([H])c(Cl)c([H])c32)c1[H]


 21 23  0  0  0  0  0  0  0  0999 V2000
   38.5705   10.4577  -17.2399 C   0  0  0  0  0  0  0  0  0  0  0  0
   39.0622   11.7535  -16.9674 N   0  0  0  0  0  0  0  0  0  0  0  0
   38.4793   12.4498  -15.8362 C   0  0  0  0  0  0  0  0  0  0  0  0
   37.1625   12.0625  -15.6533 C   0  0  0  0  0  0  0  0  0  0  0  0
   36.4567   12.7441  -14.6778 C   0  0  0  0  0  0  0  0  0  0  0  0
   37.0767   13.7594  -13.9447 C   0  0  0  0  0  0  0  0  0  0  0  0
   36.1734   14.6055  -12.7142 Cl  0  0  0  0  0  0  0  0  0  0  0  0
   38.3730   14.1280  -14.1370 C   0  0  0  0  0  0  0  0  0  0  0  0
   39.0976   13.4483  -15.1092 C   0  0  0  0  0  0  0  0  0  0  0  0
   40.4752   13.9153  -15.1456 C   0  0  0  0  0  0  0  0  0  0  0  0
   41.0965   14.0109  -16.3004 N   0  0  0  0  0  0  0  0  0  0  0  0
   40.6993   13.7280  -17.6572 C   0  0  0  0  0  0  0  0  0  0  0  0
   40.0733   12.3817  -17.7828 C   0  0  0  0  0  0  0  0  0  0  0  0
   40.4748   11.6918  -18.7259 O   0  0  0  0  0  0  0  0  0  0  0  0
   41.1860   14.2883  -13.9714 C   0  0  0  0  0  0  0  0  0  0  0  0
   40.9500   15.2758  -13.0967 C   0  0  0  0  0  0  0  0  0  0  0  0
   41.7693   15.6179  -12.0338 C   0  0  0  0  0  0  0  0  0  0  0  0
   42.9273   14.9062  -11.8258 C   0  0  0  0  0  0  0  0  0  0  0  0
   43.2239   13.8755  -12.6912 C   0  0  0  0  0  0  0  0  0  0  0  0
   44.7030   12.9826  -12.4047 Cl  0  0  0  0  0  0  0  0  0  0  0  0
   42.3833   13.5685  -13.7362 C   0  0  0  0  0  0  0  0  0  0  0  0
  1  2  1  0  0  0
  2  3  1  0  0  0
  3  4  2  0  0  0
  4  5  1  0  0  0
  5  6  2  0  0  0
  6  7  1  0  0  0
  6  8  1  0  0  0
  8  9  2  0  0  0
  9 10  1  0  0  0
 10 11  2  0  0  0
 11 12  1  0  0  0
 12 13  1  0  0  0
 13 14  2  0  0  0
 10 15  1  0  0  0
 15 16  2  0  0  0
 16 17  1  0  0  0
 17 18  2  0  0  0
 18 19  1  0  0  0
 19 20  1  0  0  0
 19 21  2  0  0  0
 13  2  1  0  0  0
 21 15  1  0  0  0
  9  3  1  0  0  0
M  END
> <minimizedAffinity>
-7.11933

> <CNNscore>
0.3589727879

> <CNNaffinity>
5.8427248001

> <CNN_VS>
2.0973792076

> <CNNaffinity_variance>
0.2770402133

$$$$
[H]c1c([H])c(Cl)c([H])c(C2=NC([H])([H])C(=O)N(C([H])([H])[H])c3c([H])c([H])c(Cl)c([H])c32)c1[H]


 21 23  0  0  0  0  0  0  0  0999 V2000
   36.2068   14.5971  -10.8291 C   0  0  0  0  0  0  0  0  0  0  0  0
   37.2333   15.0527   -9.9725 N   0  0  0  0  0  0  0  0  0  0  0  0
   37.1322   14.6798   -8.5744 C   0  0  0  0  0  0  0  0  0  0  0  0
   35.8051   14.5530   -8.2000 C   0  0  0  0  0  0  0  0  0  0  0  0
   35.5706   14.3168   -6.8571 C   0  0  0  0  0  0  0  0  0  0  0  0
   36.6418   14.2211   -5.9649 C   0  0  0  0  0  0  0  0  0  0  0  0
   36.3285   13.9176   -4.2750 Cl  0  0  0  0  0  0  0  0  0  0  0  0
   37.9415   14.3481   -6.3495 C   0  0  0  0  0  0  0  0  0  0  0  0
   38.1941   14.5793   -7.6967 C   0  0  0  0  0  0  0  0  0  0  0  0
   39.6258   14.6262   -7.9519 C   0  0  0  0  0  0  0  0  0  0  0  0
   40.0986   15.4761   -8.8367 N   0  0  0  0  0  0  0  0  0  0  0  0
   39.4738   16.4519   -9.6946 C   0  0  0  0  0  0  0  0  0  0  0  0
   38.3210   15.8759  -10.4427 C   0  0  0  0  0  0  0  0  0  0  0  0
   38.2826   16.1383  -11.6495 O   0  0  0  0  0  0  0  0  0  0  0  0
   40.5507   13.7887   -7.2690 C   0  0  0  0  0  0  0  0  0  0  0  0
   40.6463   12.4524   -7.2397 C   0  0  0  0  0  0  0  0  0  0  0  0
   41.5291   11.7290   -6.4552 C   0  0  0  0  0  0  0  0  0  0  0  0
   42.3959   12.4034   -5.6279 C   0  0  0  0  0  0  0  0  0  0  0  0
   42.3477   13.7806   -5.6159 C   0  0  0  0  0  0  0  0  0  0  0  0
   43.4627   14.6171   -4.5557 Cl  0  0  0  0  0  0  0  0  0  0  0  0
   41.4543   14.4617   -6.4102 C   0  0  0  0  0  0  0  0  0  0  0  0
  1  2  1  0  0  0
  2  3  1  0  0  0
  3  4  2  0  0  0
  4  5  1  0  0  0
  5  6  2  0  0  0
  6  7  1  0  0  0
  6  8  1  0  0  0
  8  9  2  0  0  0
  9 10  1  0  0  0
 10 11  2  0  0  0
 11 12  1  0  0  0
 12 13  1  0  0  0
 13 14  2  0  0  0
 10 15  1  0  0  0
 15 16  2  0  0  0
 16 17  1  0  0  0
 17 18  2  0  0  0
 18 19  1  0  0  0
 19 20  1  0  0  0
 19 21  2  0  0  0
 13  2  1  0  0  0
 21 15  1  0  0  0
  9  3  1  0  0  0
M  END
> <minimizedAffinity>
-5.32859

> <CNNscore>
0.3085044622

> <CNNaffinity>
4.4044637680

> <CNN_VS>
1.3587967157

> <CNNaffinity_variance>
0.3988261521

$$$$
[H]c1c([H])c(Cl)c([H])c(C2=NC([H])([H])C(=O)N(C([H])([H])[H])c3c([H])c([H])c(Cl)c([H])c32)c1[H]


 21 23  0  0  0  0  0  0  0  0999 V2000
   32.9767   15.7900  -12.0867 C   0  0  0  0  0  0  0  0  0  0  0  0
   34.1548   15.0525  -11.8353 N   0  0  0  0  0  0  0  0  0  0  0  0
   34.5953   14.1473  -12.8797 C   0  0  0  0  0  0  0  0  0  0  0  0
   33.5112   13.6633  -13.5923 C   0  0  0  0  0  0  0  0  0  0  0  0
   33.7886   12.6956  -14.5414 C   0  0  0  0  0  0  0  0  0  0  0  0
   35.1022   12.2599  -14.7347 C   0  0  0  0  0  0  0  0  0  0  0  0
   35.4354   11.0423  -15.9398 Cl  0  0  0  0  0  0  0  0  0  0  0  0
   36.1574   12.7464  -14.0254 C   0  0  0  0  0  0  0  0  0  0  0  0
   35.8959   13.7240  -13.0724 C   0  0  0  0  0  0  0  0  0  0  0  0
   37.1298   14.1813  -12.4514 C   0  0  0  0  0  0  0  0  0  0  0  0
   37.1392   14.4775  -11.1704 N   0  0  0  0  0  0  0  0  0  0  0  0
   36.1209   14.4620  -10.1499 C   0  0  0  0  0  0  0  0  0  0  0  0
   34.8807   15.1591  -10.5929 C   0  0  0  0  0  0  0  0  0  0  0  0
   34.3927   15.9502   -9.7788 O   0  0  0  0  0  0  0  0  0  0  0  0
   38.3460   14.3137  -13.1769 C   0  0  0  0  0  0  0  0  0  0  0  0
   38.7898   13.6412  -14.2478 C   0  0  0  0  0  0  0  0  0  0  0  0
   40.0434   13.7816  -14.8195 C   0  0  0  0  0  0  0  0  0  0  0  0
   40.9316   14.6772  -14.2723 C   0  0  0  0  0  0  0  0  0  0  0  0
   40.5320   15.4017  -13.1702 C   0  0  0  0  0  0  0  0  0  0  0  0
   41.6799   16.5374  -12.4923 Cl  0  0  0  0  0  0  0  0  0  0  0  0
   39.2774   15.2313  -12.6316 C   0  0  0  0  0  0  0  0  0  0  0  0
  1  2  1  0  0  0
  2  3  1  0  0  0
  3  4  2  0  0  0
  4  5  1  0  0  0
  5  6  2  0  0  0
  6  7  1  0  0  0
  6  8  1  0  0  0
  8  9  2  0  0  0
  9 10  1  0  0  0
 10 11  2  0  0  0
 11 12  1  0  0  0
 12 13  1  0  0  0
 13 14  2  0  0  0
 10 15  1  0  0  0
 15 16  2  0  0  0
 16 17  1  0  0  0
 17 18  2  0  0  0
 18 19  1  0  0  0
 19 20  1  0  0  0
 19 21  2  0  0  0
 13  2  1  0  0  0
 21 15  1  0  0  0
  9  3  1  0  0  0
M  END
> <minimizedAffinity>
-6.52166

> <CNNscore>
0.2956473827

> <CNNaffinity>
5.4049816132

> <CNN_VS>
1.5979686975

> <CNNaffinity_variance>
0.1479924172

$$$$
[H]c1nc2c(C([H])([H])[H])c(C([H])([H])[H])c(-c3c(C([H])(C([H])([H])[H])C([H])([H])[H])c4c([H])c(C5([H])C([H])([H])C([H])([H])N(C([H])([H])C([H])([H])S(=O)(=O)C([H])([H])[H])C([H])([H])C5([H])[H])c([H])c([H])c4n3[H])c([H])n2n1


 36 40  0  0  0  0  0  0  0  0999 V2000
   37.7012   13.9947  -13.2014 C   0  0  0  0  0  0  0  0  0  0  0  0
   38.9910   14.0648  -13.6472 C   0  0  0  0  0  0  0  0  0  0  0  0
   39.6616   14.9681  -12.8560 N   0  0  0  0  0  0  0  0  0  0  0  0
   38.8494   15.4594  -11.9392 C   0  0  0  0  0  0  0  0  0  0  0  0
   39.0818   16.3925  -10.9563 C   0  0  0  0  0  0  0  0  0  0  0  0
   38.0655   16.7867  -10.1024 C   0  0  0  0  0  0  0  0  0  0  0  0
   36.8072   16.2454  -10.2309 C   0  0  0  0  0  0  0  0  0  0  0  0
   36.6333   15.3014  -11.2488 C   0  0  0  0  0  0  0  0  0  0  0  0
   37.6112   14.8907  -12.1032 C   0  0  0  0  0  0  0  0  0  0  0  0
   40.6806   15.1873  -13.0097 H   0  0  0  0  0  0  0  0  0  0  0  0
   39.6214   13.4118  -14.7676 C   0  0  0  0  0  0  0  0  0  0  0  0
   38.9281   12.8109  -15.7657 C   0  0  0  0  0  0  0  0  0  0  0  0
   39.5134   12.2194  -16.8302 N   0  0  0  0  0  0  0  0  0  0  0  0
   39.0619   11.5858  -17.8992 N   0  0  0  0  0  0  0  0  0  0  0  0
   40.0895   11.1728  -18.6795 C   0  0  0  0  0  0  0  0  0  0  0  0
   41.2062   11.5716  -18.0591 N   0  0  0  0  0  0  0  0  0  0  0  0
   40.8405   12.2139  -16.9238 C   0  0  0  0  0  0  0  0  0  0  0  0
   41.5953   12.7990  -15.9558 C   0  0  0  0  0  0  0  0  0  0  0  0
   43.0870   12.7942  -16.0578 C   0  0  0  0  0  0  0  0  0  0  0  0
   41.0036   13.4158  -14.8491 C   0  0  0  0  0  0  0  0  0  0  0  0
   41.8620   14.0611  -13.8232 C   0  0  0  0  0  0  0  0  0  0  0  0
   35.6964   16.6646   -9.3327 C   0  0  0  0  0  0  0  0  0  0  0  0
   34.7970   15.5201   -9.1032 C   0  0  0  0  0  0  0  0  0  0  0  0
   34.8214   14.8623   -7.7759 C   0  0  0  0  0  0  0  0  0  0  0  0
   34.9261   15.8258   -6.7644 N   0  0  0  0  0  0  0  0  0  0  0  0
   36.0290   16.7090   -6.8223 C   0  0  0  0  0  0  0  0  0  0  0  0
   36.1977   17.3943   -8.1262 C   0  0  0  0  0  0  0  0  0  0  0  0
   34.4196   15.5034   -5.4847 C   0  0  0  0  0  0  0  0  0  0  0  0
   34.4459   14.0187   -5.1779 C   0  0  0  0  0  0  0  0  0  0  0  0
   35.9643   13.6751   -4.3209 S   0  0  0  0  0  0  0  0  0  0  0  0
   36.3826   15.1310   -3.3611 C   0  0  0  0  0  0  0  0  0  0  0  0
   35.7885   12.5400   -3.3614 O   0  0  0  0  0  0  0  0  0  0  0  0
   37.0740   13.3710   -5.2987 O   0  0  0  0  0  0  0  0  0  0  0  0
   35.5878   14.1472  -14.5937 C   0  0  0  0  0  0  0  0  0  0  0  0
   36.5345   13.3312  -13.7440 C   0  0  0  0  0  0  0  0  0  0  0  0
   35.8187   12.2881  -12.9855 C   0  0  0  0  0  0  0  0  0  0  0  0
 34 35  1  0  0  0
 35 36  1  0  0  0
 35  1  1  0  0  0
  1  2  2  0  0  0
  2  3  1  0  0  0
  3  4  1  0  0  0
  4  5  2  0  0  0
  5  6  1  0  0  0
  6  7  2  0  0  0
  7  8  1  0  0  0
  8  9  2  0  0  0
  7 22  1  0  0  0
 22 23  1  0  0  0
 23 24  1  0  0  0
 24 25  1  0  0  0
 25 28  1  0  0  0
 28 29  1  0  0  0
 29 30  1  0  0  0
 30 31  1  0  0  0
 30 32  2  0  0  0
 30 33  2  0  0  0
 25 26  1  0  0  0
 26 27  1  0  0  0
  2 11  1  0  0  0
 11 12  2  0  0  0
 12 13  1  0  0  0
 13 14  1  0  0  0
 14 15  2  0  0  0
 15 16  1  0  0  0
 16 17  2  0  0  0
 17 18  1  0  0  0
 18 19  1  0  0  0
 18 20  2  0  0  0
 20 21  1  0  0  0
  9  1  1  0  0  0
 27 22  1  0  0  0
 20 11  1  0  0  0
  9  4  1  0  0  0
 17 13  1  0  0  0
  3 10  1  0  0  0
M  END
> <minimizedAffinity>
-9.61363

> <CNNscore>
0.6476426721

> <CNNaffinity>
7.4317350388

> <CNN_VS>
4.8131089211

> <CNNaffinity_variance>
0.2987963855

$$$$
[H]c1nc2c(C([H])([H])[H])c(C([H])([H])[H])c(-c3c(C([H])(C([H])([H])[H])C([H])([H])[H])c4c([H])c(C5([H])C([H])([H])C([H])([H])N(C([H])([H])C([H])([H])S(=O)(=O)C([H])([H])[H])C([H])([H])C5([H])[H])c([H])c([H])c4n3[H])c([H])n2n1


 36 40  0  0  0  0  0  0  0  0999 V2000
   38.2054   14.0679  -13.2575 C   0  0  0  0  0  0  0  0  0  0  0  0
   39.4425   14.0695  -13.8377 C   0  0  0  0  0  0  0  0  0  0  0  0
   40.2323   14.9559  -13.1433 N   0  0  0  0  0  0  0  0  0  0  0  0
   39.5442   15.5020  -12.1585 C   0  0  0  0  0  0  0  0  0  0  0  0
   39.9204   16.4423  -11.2283 C   0  0  0  0  0  0  0  0  0  0  0  0
   39.0185   16.8997  -10.2823 C   0  0  0  0  0  0  0  0  0  0  0  0
   37.7311   16.4149  -10.2649 C   0  0  0  0  0  0  0  0  0  0  0  0
   37.4090   15.4604  -11.2358 C   0  0  0  0  0  0  0  0  0  0  0  0
   38.2718   14.9883  -12.1779 C   0  0  0  0  0  0  0  0  0  0  0  0
   41.2380   15.1246  -13.4084 H   0  0  0  0  0  0  0  0  0  0  0  0
   39.9214   13.3662  -15.0020 C   0  0  0  0  0  0  0  0  0  0  0  0
   39.1011   12.8545  -15.9523 C   0  0  0  0  0  0  0  0  0  0  0  0
   39.5455   12.2166  -17.0574 N   0  0  0  0  0  0  0  0  0  0  0  0
   38.9568   11.6474  -18.0954 N   0  0  0  0  0  0  0  0  0  0  0  0
   39.8785   11.1365  -18.9467 C   0  0  0  0  0  0  0  0  0  0  0  0
   41.0712   11.4067  -18.4033 N   0  0  0  0  0  0  0  0  0  0  0  0
   40.8549   12.0708  -17.2426 C   0  0  0  0  0  0  0  0  0  0  0  0
   41.7324   12.5607  -16.3266 C   0  0  0  0  0  0  0  0  0  0  0  0
   43.2046   12.3982  -16.5316 C   0  0  0  0  0  0  0  0  0  0  0  0
   41.2872   13.2239  -15.1788 C   0  0  0  0  0  0  0  0  0  0  0  0
   42.2779   13.7619  -14.2119 C   0  0  0  0  0  0  0  0  0  0  0  0
   36.7412   16.9025   -9.2655 C   0  0  0  0  0  0  0  0  0  0  0  0
   36.4768   15.8375   -8.2819 C   0  0  0  0  0  0  0  0  0  0  0  0
   37.0314   15.9886   -6.9164 C   0  0  0  0  0  0  0  0  0  0  0  0
   36.9065   17.3176   -6.4918 N   0  0  0  0  0  0  0  0  0  0  0  0
   37.4950   18.3153   -7.3032 C   0  0  0  0  0  0  0  0  0  0  0  0
   37.1039   18.2528   -8.7319 C   0  0  0  0  0  0  0  0  0  0  0  0
   36.8397   17.5676   -5.1021 C   0  0  0  0  0  0  0  0  0  0  0  0
   37.2551   18.9743   -4.7177 C   0  0  0  0  0  0  0  0  0  0  0  0
   35.7816   19.8700   -4.2881 S   0  0  0  0  0  0  0  0  0  0  0  0
   34.7251   18.7562   -3.3613 C   0  0  0  0  0  0  0  0  0  0  0  0
   36.1041   21.0286   -3.3972 O   0  0  0  0  0  0  0  0  0  0  0  0
   35.0623   20.3437   -5.5284 O   0  0  0  0  0  0  0  0  0  0  0  0
   35.9484   14.3020  -14.3885 C   0  0  0  0  0  0  0  0  0  0  0  0
   36.9597   13.4487  -13.6583 C   0  0  0  0  0  0  0  0  0  0  0  0
   36.3025   12.4273  -12.8215 C   0  0  0  0  0  0  0  0  0  0  0  0
 34 35  1  0  0  0
 35 36  1  0  0  0
 35  1  1  0  0  0
  1  2  2  0  0  0
  2  3  1  0  0  0
  3  4  1  0  0  0
  4  5  2  0  0  0
  5  6  1  0  0  0
  6  7  2  0  0  0
  7  8  1  0  0  0
  8  9  2  0  0  0
  7 22  1  0  0  0
 22 23  1  0  0  0
 23 24  1  0  0  0
 24 25  1  0  0  0
 25 28  1  0  0  0
 28 29  1  0  0  0
 29 30  1  0  0  0
 30 31  1  0  0  0
 30 32  2  0  0  0
 30 33  2  0  0  0
 25 26  1  0  0  0
 26 27  1  0  0  0
  2 11  1  0  0  0
 11 12  2  0  0  0
 12 13  1  0  0  0
 13 14  1  0  0  0
 14 15  2  0  0  0
 15 16  1  0  0  0
 16 17  2  0  0  0
 17 18  1  0  0  0
 18 19  1  0  0  0
 18 20  2  0  0  0
 20 21  1  0  0  0
  9  1  1  0  0  0
 27 22  1  0  0  0
 20 11  1  0  0  0
  9  4  1  0  0  0
 17 13  1  0  0  0
  3 10  1  0  0  0
M  END
> <minimizedAffinity>
-8.56246

> <CNNscore>
0.6391191483

> <CNNaffinity>
7.2089791298

> <CNN_VS>
4.6073966026

> <CNNaffinity_variance>
0.4038268626

$$$$
[H]c1nc2c(C([H])([H])[H])c(C([H])([H])[H])c(-c3c(C([H])(C([H])([H])[H])C([H])([H])[H])c4c([H])c(C5([H])C([H])([H])C([H])([H])N(C([H])([H])C([H])([H])S(=O)(=O)C([H])([H])[H])C([H])([H])C5([H])[H])c([H])c([H])c4n3[H])c([H])n2n1


 36 40  0  0  0  0  0  0  0  0999 V2000
   42.2093   14.0324  -13.8864 C   0  0  0  0  0  0  0  0  0  0  0  0
   40.8943   13.9561  -14.2496 C   0  0  0  0  0  0  0  0  0  0  0  0
   40.1667   14.7095  -13.3582 N   0  0  0  0  0  0  0  0  0  0  0  0
   40.9687   15.2514  -12.4611 C   0  0  0  0  0  0  0  0  0  0  0  0
   40.6802   16.0581  -11.3855 C   0  0  0  0  0  0  0  0  0  0  0  0
   41.6879   16.5034  -10.5466 C   0  0  0  0  0  0  0  0  0  0  0  0
   42.9936   16.1402  -10.7830 C   0  0  0  0  0  0  0  0  0  0  0  0
   43.2235   15.3188  -11.8921 C   0  0  0  0  0  0  0  0  0  0  0  0
   42.2564   14.8657  -12.7373 C   0  0  0  0  0  0  0  0  0  0  0  0
   39.1205   14.8040  -13.4396 H   0  0  0  0  0  0  0  0  0  0  0  0
   40.2670   13.2039  -15.3079 C   0  0  0  0  0  0  0  0  0  0  0  0
   40.8799   12.9188  -16.4830 C   0  0  0  0  0  0  0  0  0  0  0  0
   40.3058   12.1933  -17.4677 N   0  0  0  0  0  0  0  0  0  0  0  0
   40.6921   11.7957  -18.6680 N   0  0  0  0  0  0  0  0  0  0  0  0
   39.7159   11.0745  -19.2698 C   0  0  0  0  0  0  0  0  0  0  0  0
   38.6993   11.0339  -18.4005 N   0  0  0  0  0  0  0  0  0  0  0  0
   39.0726   11.7244  -17.2965 C   0  0  0  0  0  0  0  0  0  0  0  0
   38.4014   11.9752  -16.1407 C   0  0  0  0  0  0  0  0  0  0  0  0
   37.0152   11.4500  -15.9453 C   0  0  0  0  0  0  0  0  0  0  0  0
   38.9832   12.7234  -15.1126 C   0  0  0  0  0  0  0  0  0  0  0  0
   38.2250   12.9588  -13.8574 C   0  0  0  0  0  0  0  0  0  0  0  0
   44.0911   16.5961   -9.8862 C   0  0  0  0  0  0  0  0  0  0  0  0
   43.6030   16.6278   -8.4961 C   0  0  0  0  0  0  0  0  0  0  0  0
   44.0813   15.5844   -7.5594 C   0  0  0  0  0  0  0  0  0  0  0  0
   45.4444   15.3392   -7.7692 N   0  0  0  0  0  0  0  0  0  0  0  0
   45.8412   14.9565   -9.0715 C   0  0  0  0  0  0  0  0  0  0  0  0
   45.3682   15.8609  -10.1469 C   0  0  0  0  0  0  0  0  0  0  0  0
   46.2040   14.8399   -6.6866 C   0  0  0  0  0  0  0  0  0  0  0  0
   46.5310   15.8875   -5.6403 C   0  0  0  0  0  0  0  0  0  0  0  0
   47.7365   16.9884   -6.3423 S   0  0  0  0  0  0  0  0  0  0  0  0
   48.6763   17.6930   -4.9873 C   0  0  0  0  0  0  0  0  0  0  0  0
   48.6964   16.2404   -7.2136 O   0  0  0  0  0  0  0  0  0  0  0  0
   47.0634   18.0903   -7.1252 O   0  0  0  0  0  0  0  0  0  0  0  0
   44.3487   12.7840  -13.3454 C   0  0  0  0  0  0  0  0  0  0  0  0
   43.3792   13.3289  -14.3686 C   0  0  0  0  0  0  0  0  0  0  0  0
   44.0711   13.7407  -15.6044 C   0  0  0  0  0  0  0  0  0  0  0  0
 34 35  1  0  0  0
 35 36  1  0  0  0
 35  1  1  0  0  0
  1  2  2  0  0  0
  2  3  1  0  0  0
  3  4  1  0  0  0
  4  5  2  0  0  0
  5  6  1  0  0  0
  6  7  2  0  0  0
  7  8  1  0  0  0
  8  9  2  0  0  0
  7 22  1  0  0  0
 22 23  1  0  0  0
 23 24  1  0  0  0
 24 25  1  0  0  0
 25 28  1  0  0  0
 28 29  1  0  0  0
 29 30  1  0  0  0
 30 31  1  0  0  0
 30 32  2  0  0  0
 30 33  2  0  0  0
 25 26  1  0  0  0
 26 27  1  0  0  0
  2 11  1  0  0  0
 11 12  2  0  0  0
 12 13  1  0  0  0
 13 14  1  0  0  0
 14 15  2  0  0  0
 15 16  1  0  0  0
 16 17  2  0  0  0
 17 18  1  0  0  0
 18 19  1  0  0  0
 18 20  2  0  0  0
 20 21  1  0  0  0
  9  1  1  0  0  0
 27 22  1  0  0  0
 20 11  1  0  0  0
  9  4  1  0  0  0
 17 13  1  0  0  0
  3 10  1  0  0  0
M  END
> <minimizedAffinity>
-7.43907

> <CNNscore>
0.4949355721

> <CNNaffinity>
6.9963021278

> <CNN_VS>
3.4627187252

> <CNNaffinity_variance>
0.4856064320

$$$$
[H]c1nc2c(C([H])([H])[H])c(C([H])([H])[H])c(-c3c(C([H])(C([H])([H])[H])C([H])([H])[H])c4c([H])c(C5([H])C([H])([H])C([H])([H])N(C([H])([H])C([H])([H])S(=O)(=O)C([H])([H])[H])C([H])([H])C5([H])[H])c([H])c([H])c4n3[H])c([H])n2n1


 36 40  0  0  0  0  0  0  0  0999 V2000
   37.4922   13.6912  -13.3259 C   0  0  0  0  0  0  0  0  0  0  0  0
   38.6154   13.6003  -14.0985 C   0  0  0  0  0  0  0  0  0  0  0  0
   39.5697   14.4272  -13.5534 N   0  0  0  0  0  0  0  0  0  0  0  0
   39.0921   15.0245  -12.4779 C   0  0  0  0  0  0  0  0  0  0  0  0
   39.6816   15.9361  -11.6339 C   0  0  0  0  0  0  0  0  0  0  0  0
   38.9809   16.4606  -10.5608 C   0  0  0  0  0  0  0  0  0  0  0  0
   37.6817   16.0723  -10.3287 C   0  0  0  0  0  0  0  0  0  0  0  0
   37.1377   15.1424  -11.2214 C   0  0  0  0  0  0  0  0  0  0  0  0
   37.7996   14.6061  -12.2841 C   0  0  0  0  0  0  0  0  0  0  0  0
   40.5286   14.5207  -13.9800 H   0  0  0  0  0  0  0  0  0  0  0  0
   38.8465   12.8614  -15.3152 C   0  0  0  0  0  0  0  0  0  0  0  0
   37.8597   12.2448  -16.0106 C   0  0  0  0  0  0  0  0  0  0  0  0
   38.0670   11.5724  -17.1640 N   0  0  0  0  0  0  0  0  0  0  0  0
   37.2869   10.9078  -17.9994 N   0  0  0  0  0  0  0  0  0  0  0  0
   38.0082   10.4067  -19.0307 C   0  0  0  0  0  0  0  0  0  0  0  0
   39.2739   10.7821  -18.8115 N   0  0  0  0  0  0  0  0  0  0  0  0
   39.2986   11.4981  -17.6618 C   0  0  0  0  0  0  0  0  0  0  0  0
   40.3341   12.0945  -17.0129 C   0  0  0  0  0  0  0  0  0  0  0  0
   41.7194   12.0126  -17.5695 C   0  0  0  0  0  0  0  0  0  0  0  0
   40.1345   12.7946  -15.8190 C   0  0  0  0  0  0  0  0  0  0  0  0
   41.2882   13.4491  -15.1509 C   0  0  0  0  0  0  0  0  0  0  0  0
   36.9052   16.6335   -9.1891 C   0  0  0  0  0  0  0  0  0  0  0  0
   36.8159   15.6262   -8.1173 C   0  0  0  0  0  0  0  0  0  0  0  0
   37.6203   15.8324   -6.8903 C   0  0  0  0  0  0  0  0  0  0  0  0
   37.5968   17.1838   -6.5223 N   0  0  0  0  0  0  0  0  0  0  0  0
   38.0359   18.1247   -7.4824 C   0  0  0  0  0  0  0  0  0  0  0  0
   37.3814   17.9998   -8.8069 C   0  0  0  0  0  0  0  0  0  0  0  0
   37.7970   17.5051   -5.1603 C   0  0  0  0  0  0  0  0  0  0  0  0
   38.9515   18.4595   -4.9252 C   0  0  0  0  0  0  0  0  0  0  0  0
   40.4015   17.4807   -4.6135 S   0  0  0  0  0  0  0  0  0  0  0  0
   41.4697   18.4299   -3.5300 C   0  0  0  0  0  0  0  0  0  0  0  0
   40.0455   16.2155   -3.8974 O   0  0  0  0  0  0  0  0  0  0  0  0
   41.1253   17.1707   -5.9019 O   0  0  0  0  0  0  0  0  0  0  0  0
   35.0655   14.1302  -13.9147 C   0  0  0  0  0  0  0  0  0  0  0  0
   36.1562   13.1650  -13.5114 C   0  0  0  0  0  0  0  0  0  0  0  0
   35.6312   12.0786  -12.6630 C   0  0  0  0  0  0  0  0  0  0  0  0
 34 35  1  0  0  0
 35 36  1  0  0  0
 35  1  1  0  0  0
  1  2  2  0  0  0
  2  3  1  0  0  0
  3  4  1  0  0  0
  4  5  2  0  0  0
  5  6  1  0  0  0
  6  7  2  0  0  0
  7  8  1  0  0  0
  8  9  2  0  0  0
  7 22  1  0  0  0
 22 23  1  0  0  0
 23 24  1  0  0  0
 24 25  1  0  0  0
 25 28  1  0  0  0
 28 29  1  0  0  0
 29 30  1  0  0  0
 30 31  1  0  0  0
 30 32  2  0  0  0
 30 33  2  0  0  0
 25 26  1  0  0  0
 26 27  1  0  0  0
  2 11  1  0  0  0
 11 12  2  0  0  0
 12 13  1  0  0  0
 13 14  1  0  0  0
 14 15  2  0  0  0
 15 16  1  0  0  0
 16 17  2  0  0  0
 17 18  1  0  0  0
 18 19  1  0  0  0
 18 20  2  0  0  0
 20 21  1  0  0  0
  9  1  1  0  0  0
 27 22  1  0  0  0
 20 11  1  0  0  0
  9  4  1  0  0  0
 17 13  1  0  0  0
  3 10  1  0  0  0
M  END
> <minimizedAffinity>
-8.04662

> <CNNscore>
0.4940014780

> <CNNaffinity>
7.2202086449

> <CNN_VS>
3.5667936802

> <CNNaffinity_variance>
0.3644972444

$$$$
[H]c1nc2c(C([H])([H])[H])c(C([H])([H])[H])c(-c3c(C([H])(C([H])([H])[H])C([H])([H])[H])c4c([H])c(C5([H])C([H])([H])C([H])([H])N(C([H])([H])C([H])([H])S(=O)(=O)C([H])([H])[H])C([H])([H])C5([H])[H])c([H])c([H])c4n3[H])c([H])n2n1


 36 40  0  0  0  0  0  0  0  0999 V2000
   37.5864   14.1866  -12.9631 C   0  0  0  0  0  0  0  0  0  0  0  0
   38.6555   13.9149  -13.7694 C   0  0  0  0  0  0  0  0  0  0  0  0
   39.7246   14.6502  -13.3133 N   0  0  0  0  0  0  0  0  0  0  0  0
   39.3696   15.3629  -12.2609 C   0  0  0  0  0  0  0  0  0  0  0  0
   40.1001   16.2439  -11.4986 C   0  0  0  0  0  0  0  0  0  0  0  0
   39.5151   16.9114  -10.4357 C   0  0  0  0  0  0  0  0  0  0  0  0
   38.1904   16.6980  -10.1317 C   0  0  0  0  0  0  0  0  0  0  0  0
   37.5007   15.7905  -10.9430 C   0  0  0  0  0  0  0  0  0  0  0  0
   38.0463   15.1166  -11.9933 C   0  0  0  0  0  0  0  0  0  0  0  0
   40.6680   14.6014  -13.7800 H   0  0  0  0  0  0  0  0  0  0  0  0
   38.7430   13.0837  -14.9445 C   0  0  0  0  0  0  0  0  0  0  0  0
   37.6721   12.4662  -15.5010 C   0  0  0  0  0  0  0  0  0  0  0  0
   37.7445   11.7067  -16.6161 N   0  0  0  0  0  0  0  0  0  0  0  0
   36.8643   11.0222  -17.3267 N   0  0  0  0  0  0  0  0  0  0  0  0
   37.4661   10.4182  -18.3794 C   0  0  0  0  0  0  0  0  0  0  0  0
   38.7604   10.7495  -18.3034 N   0  0  0  0  0  0  0  0  0  0  0  0
   38.9203   11.5416  -17.2161 C   0  0  0  0  0  0  0  0  0  0  0  0
   40.0345   12.1335  -16.7087 C   0  0  0  0  0  0  0  0  0  0  0  0
   41.3576   11.9497  -17.3805 C   0  0  0  0  0  0  0  0  0  0  0  0
   39.9747   12.9231  -15.5562 C   0  0  0  0  0  0  0  0  0  0  0  0
   41.2105   13.5687  -15.0446 C   0  0  0  0  0  0  0  0  0  0  0  0
   37.5375   17.4150   -9.0021 C   0  0  0  0  0  0  0  0  0  0  0  0
   36.1415   16.9596   -8.8777 C   0  0  0  0  0  0  0  0  0  0  0  0
   35.7876   16.0818   -7.7378 C   0  0  0  0  0  0  0  0  0  0  0  0
   36.4406   16.5157   -6.5769 N   0  0  0  0  0  0  0  0  0  0  0  0
   37.8511   16.6068   -6.6224 C   0  0  0  0  0  0  0  0  0  0  0  0
   38.3782   17.3918   -7.7643 C   0  0  0  0  0  0  0  0  0  0  0  0
   35.8500   16.2114   -5.3293 C   0  0  0  0  0  0  0  0  0  0  0  0
   36.6171   15.1752   -4.5311 C   0  0  0  0  0  0  0  0  0  0  0  0
   35.7978   13.6139   -4.7522 S   0  0  0  0  0  0  0  0  0  0  0  0
   34.1111   13.9569   -5.2554 C   0  0  0  0  0  0  0  0  0  0  0  0
   36.4422   12.8256   -5.8492 O   0  0  0  0  0  0  0  0  0  0  0  0
   35.7969   12.8229   -3.4659 O   0  0  0  0  0  0  0  0  0  0  0  0
   35.8001   12.4114  -12.6693 C   0  0  0  0  0  0  0  0  0  0  0  0
   36.1904   13.8166  -13.0654 C   0  0  0  0  0  0  0  0  0  0  0  0
   35.3347   14.3303  -14.1514 C   0  0  0  0  0  0  0  0  0  0  0  0
 34 35  1  0  0  0
 35 36  1  0  0  0
 35  1  1  0  0  0
  1  2  2  0  0  0
  2  3  1  0  0  0
  3  4  1  0  0  0
  4  5  2  0  0  0
  5  6  1  0  0  0
  6  7  2  0  0  0
  7  8  1  0  0  0
  8  9  2  0  0  0
  7 22  1  0  0  0
 22 23  1  0  0  0
 23 24  1  0  0  0
 24 25  1  0  0  0
 25 28  1  0  0  0
 28 29  1  0  0  0
 29 30  1  0  0  0
 30 31  1  0  0  0
 30 32  2  0  0  0
 30 33  2  0  0  0
 25 26  1  0  0  0
 26 27  1  0  0  0
  2 11  1  0  0  0
 11 12  2  0  0  0
 12 13  1  0  0  0
 13 14  1  0  0  0
 14 15  2  0  0  0
 15 16  1  0  0  0
 16 17  2  0  0  0
 17 18  1  0  0  0
 18 19  1  0  0  0
 18 20  2  0  0  0
 20 21  1  0  0  0
  9  1  1  0  0  0
 27 22  1  0  0  0
 20 11  1  0  0  0
  9  4  1  0  0  0
 17 13  1  0  0  0
  3 10  1  0  0  0
M  END
> <minimizedAffinity>
-9.79299

> <CNNscore>
0.4810574949

> <CNNaffinity>
7.2664093971

> <CNN_VS>
3.4955606461

> <CNNaffinity_variance>
0.2135057747

$$$$
[H]c1nc2c(C([H])([H])[H])c(C([H])([H])[H])c(-c3c(C([H])(C([H])([H])[H])C([H])([H])[H])c4c([H])c(C5([H])C([H])([H])C([H])([H])N(C([H])([H])C([H])([H])S(=O)(=O)C([H])([H])[H])C([H])([H])C5([H])[H])c([H])c([H])c4n3[H])c([H])n2n1


 36 40  0  0  0  0  0  0  0  0999 V2000
   36.3282   13.6776  -12.9746 C   0  0  0  0  0  0  0  0  0  0  0  0
   37.5833   13.4970  -13.4836 C   0  0  0  0  0  0  0  0  0  0  0  0
   38.4749   14.1071  -12.6325 N   0  0  0  0  0  0  0  0  0  0  0  0
   37.8322   14.6552  -11.6185 C   0  0  0  0  0  0  0  0  0  0  0  0
   38.3116   15.3731  -10.5481 C   0  0  0  0  0  0  0  0  0  0  0  0
   37.4456   15.8840   -9.5959 C   0  0  0  0  0  0  0  0  0  0  0  0
   36.0906   15.6768   -9.7133 C   0  0  0  0  0  0  0  0  0  0  0  0
   35.6645   14.9389  -10.8230 C   0  0  0  0  0  0  0  0  0  0  0  0
   36.4891   14.4214  -11.7754 C   0  0  0  0  0  0  0  0  0  0  0  0
   39.5119   14.0969  -12.8187 H   0  0  0  0  0  0  0  0  0  0  0  0
   38.0047   12.8623  -14.7079 C   0  0  0  0  0  0  0  0  0  0  0  0
   37.1748   12.1303  -15.4910 C   0  0  0  0  0  0  0  0  0  0  0  0
   37.5582   11.5543  -16.6515 N   0  0  0  0  0  0  0  0  0  0  0  0
   36.9482   10.8144  -17.5617 N   0  0  0  0  0  0  0  0  0  0  0  0
   37.8028   10.4831  -18.5592 C   0  0  0  0  0  0  0  0  0  0  0  0
   38.9754   11.0437  -18.2409 N   0  0  0  0  0  0  0  0  0  0  0  0
   38.8138   11.6998  -17.0667 C   0  0  0  0  0  0  0  0  0  0  0  0
   39.6978   12.4217  -16.3275 C   0  0  0  0  0  0  0  0  0  0  0  0
   41.1096   12.5868  -16.7911 C   0  0  0  0  0  0  0  0  0  0  0  0
   39.3150   13.0243  -15.1251 C   0  0  0  0  0  0  0  0  0  0  0  0
   40.3049   13.8213  -14.3565 C   0  0  0  0  0  0  0  0  0  0  0  0
   35.1404   16.2284   -8.7087 C   0  0  0  0  0  0  0  0  0  0  0  0
   33.8216   16.4182   -9.3383 C   0  0  0  0  0  0  0  0  0  0  0  0
   32.7288   15.4861   -8.9749 C   0  0  0  0  0  0  0  0  0  0  0  0
   32.7655   15.2155   -7.6010 N   0  0  0  0  0  0  0  0  0  0  0  0
   33.9678   14.6871   -7.0764 C   0  0  0  0  0  0  0  0  0  0  0  0
   35.1815   15.4654   -7.4220 C   0  0  0  0  0  0  0  0  0  0  0  0
   31.5600   14.8399   -6.9654 C   0  0  0  0  0  0  0  0  0  0  0  0
   31.0173   15.8950   -6.0213 C   0  0  0  0  0  0  0  0  0  0  0  0
   29.9334   16.9463   -6.9583 S   0  0  0  0  0  0  0  0  0  0  0  0
   28.7427   17.6480   -5.8156 C   0  0  0  0  0  0  0  0  0  0  0  0
   30.6920   18.0822   -7.5702 O   0  0  0  0  0  0  0  0  0  0  0  0
   29.2140   16.1577   -8.0263 O   0  0  0  0  0  0  0  0  0  0  0  0
   34.6111   11.9337  -13.6367 C   0  0  0  0  0  0  0  0  0  0  0  0
   35.0206   13.3840  -13.5221 C   0  0  0  0  0  0  0  0  0  0  0  0
   34.4381   14.1982  -14.6053 C   0  0  0  0  0  0  0  0  0  0  0  0
 34 35  1  0  0  0
 35 36  1  0  0  0
 35  1  1  0  0  0
  1  2  2  0  0  0
  2  3  1  0  0  0
  3  4  1  0  0  0
  4  5  2  0  0  0
  5  6  1  0  0  0
  6  7  2  0  0  0
  7  8  1  0  0  0
  8  9  2  0  0  0
  7 22  1  0  0  0
 22 23  1  0  0  0
 23 24  1  0  0  0
 24 25  1  0  0  0
 25 28  1  0  0  0
 28 29  1  0  0  0
 29 30  1  0  0  0
 30 31  1  0  0  0
 30 32  2  0  0  0
 30 33  2  0  0  0
 25 26  1  0  0  0
 26 27  1  0  0  0
  2 11  1  0  0  0
 11 12  2  0  0  0
 12 13  1  0  0  0
 13 14  1  0  0  0
 14 15  2  0  0  0
 15 16  1  0  0  0
 16 17  2  0  0  0
 17 18  1  0  0  0
 18 19  1  0  0  0
 18 20  2  0  0  0
 20 21  1  0  0  0
  9  1  1  0  0  0
 27 22  1  0  0  0
 20 11  1  0  0  0
  9  4  1  0  0  0
 17 13  1  0  0  0
  3 10  1  0  0  0
M  END
> <minimizedAffinity>
-8.95214

> <CNNscore>
0.4780891240

> <CNNaffinity>
7.3880157471

> <CNN_VS>
3.5321300030

> <CNNaffinity_variance>
0.4313204885

$$$$
[H]c1nc2c(C([H])([H])[H])c(C([H])([H])[H])c(-c3c(C([H])(C([H])([H])[H])C([H])([H])[H])c4c([H])c(C5([H])C([H])([H])C([H])([H])N(C([H])([H])C([H])([H])S(=O)(=O)C([H])([H])[H])C([H])([H])C5([H])[H])c([H])c([H])c4n3[H])c([H])n2n1


 36 40  0  0  0  0  0  0  0  0999 V2000
   37.1161   14.4351  -12.9918 C   0  0  0  0  0  0  0  0  0  0  0  0
   36.7260   13.7339  -14.0977 C   0  0  0  0  0  0  0  0  0  0  0  0
   35.3516   13.6832  -14.1012 N   0  0  0  0  0  0  0  0  0  0  0  0
   34.8711   14.3221  -13.0512 C   0  0  0  0  0  0  0  0  0  0  0  0
   33.5706   14.5110  -12.6464 C   0  0  0  0  0  0  0  0  0  0  0  0
   33.2873   15.2046  -11.4818 C   0  0  0  0  0  0  0  0  0  0  0  0
   34.3103   15.7133  -10.7153 C   0  0  0  0  0  0  0  0  0  0  0  0
   35.6109   15.4889  -11.1794 C   0  0  0  0  0  0  0  0  0  0  0  0
   35.9234   14.8135  -12.3201 C   0  0  0  0  0  0  0  0  0  0  0  0
   34.8188   13.1926  -14.8664 H   0  0  0  0  0  0  0  0  0  0  0  0
   37.5197   13.0701  -15.1022 C   0  0  0  0  0  0  0  0  0  0  0  0
   38.8468   13.2911  -15.2685 C   0  0  0  0  0  0  0  0  0  0  0  0
   39.5999   12.6536  -16.1915 N   0  0  0  0  0  0  0  0  0  0  0  0
   40.8761   12.6988  -16.5342 N   0  0  0  0  0  0  0  0  0  0  0  0
   41.1292   11.8379  -17.5491 C   0  0  0  0  0  0  0  0  0  0  0  0
   39.9614   11.2487  -17.8319 N   0  0  0  0  0  0  0  0  0  0  0  0
   39.0285   11.7572  -16.9915 C   0  0  0  0  0  0  0  0  0  0  0  0
   37.7003   11.4890  -16.8773 C   0  0  0  0  0  0  0  0  0  0  0  0
   37.0550   10.4824  -17.7751 C   0  0  0  0  0  0  0  0  0  0  0  0
   36.9087   12.1400  -15.9261 C   0  0  0  0  0  0  0  0  0  0  0  0
   35.4657   11.8048  -15.8194 C   0  0  0  0  0  0  0  0  0  0  0  0
   34.0293   16.4503   -9.4526 C   0  0  0  0  0  0  0  0  0  0  0  0
   33.0654   15.6826   -8.6444 C   0  0  0  0  0  0  0  0  0  0  0  0
   33.5586   14.9943   -7.4287 C   0  0  0  0  0  0  0  0  0  0  0  0
   34.4756   15.8102   -6.7536 N   0  0  0  0  0  0  0  0  0  0  0  0
   35.6052   16.2539   -7.4796 C   0  0  0  0  0  0  0  0  0  0  0  0
   35.2862   16.8993   -8.7757 C   0  0  0  0  0  0  0  0  0  0  0  0
   34.6316   15.6235   -5.3612 C   0  0  0  0  0  0  0  0  0  0  0  0
   34.3147   14.2149   -4.8983 C   0  0  0  0  0  0  0  0  0  0  0  0
   35.8591   13.3902   -4.5943 S   0  0  0  0  0  0  0  0  0  0  0  0
   36.9079   14.5275   -3.6875 C   0  0  0  0  0  0  0  0  0  0  0  0
   35.6569   12.1824   -3.7338 O   0  0  0  0  0  0  0  0  0  0  0  0
   36.5254   13.0054   -5.8936 O   0  0  0  0  0  0  0  0  0  0  0  0
   38.5023   14.9571  -10.9341 C   0  0  0  0  0  0  0  0  0  0  0  0
   38.4239   14.6651  -12.4148 C   0  0  0  0  0  0  0  0  0  0  0  0
   39.4831   15.3687  -13.1622 C   0  0  0  0  0  0  0  0  0  0  0  0
 34 35  1  0  0  0
 35 36  1  0  0  0
 35  1  1  0  0  0
  1  2  2  0  0  0
  2  3  1  0  0  0
  3  4  1  0  0  0
  4  5  2  0  0  0
  5  6  1  0  0  0
  6  7  2  0  0  0
  7  8  1  0  0  0
  8  9  2  0  0  0
  7 22  1  0  0  0
 22 23  1  0  0  0
 23 24  1  0  0  0
 24 25  1  0  0  0
 25 28  1  0  0  0
 28 29  1  0  0  0
 29 30  1  0  0  0
 30 31  1  0  0  0
 30 32  2  0  0  0
 30 33  2  0  0  0
 25 26  1  0  0  0
 26 27  1  0  0  0
  2 11  1  0  0  0
 11 12  2  0  0  0
 12 13  1  0  0  0
 13 14  1  0  0  0
 14 15  2  0  0  0
 15 16  1  0  0  0
 16 17  2  0  0  0
 17 18  1  0  0  0
 18 19  1  0  0  0
 18 20  2  0  0  0
 20 21  1  0  0  0
  9  1  1  0  0  0
 27 22  1  0  0  0
 20 11  1  0  0  0
  9  4  1  0  0  0
 17 13  1  0  0  0
  3 10  1  0  0  0
M  END
> <minimizedAffinity>
-9.17455

> <CNNscore>
0.4697283506

> <CNNaffinity>
7.3418722153

> <CNN_VS>
3.4486854076

> <CNNaffinity_variance>
0.2158453166

$$$$
[H]c1nc2c(C([H])([H])[H])c(C([H])([H])[H])c(-c3c(C([H])(C([H])([H])[H])C([H])([H])[H])c4c([H])c(C5([H])C([H])([H])C([H])([H])N(C([H])([H])C([H])([H])S(=O)(=O)C([H])([H])[H])C([H])([H])C5([H])[H])c([H])c([H])c4n3[H])c([H])n2n1


 36 40  0  0  0  0  0  0  0  0999 V2000
   38.4523   14.0612  -13.4330 C   0  0  0  0  0  0  0  0  0  0  0  0
   39.6679   14.0261  -14.0561 C   0  0  0  0  0  0  0  0  0  0  0  0
   40.4998   14.9079  -13.4066 N   0  0  0  0  0  0  0  0  0  0  0  0
   39.8583   15.4861  -12.4087 C   0  0  0  0  0  0  0  0  0  0  0  0
   40.2864   16.4348  -11.5100 C   0  0  0  0  0  0  0  0  0  0  0  0
   39.4282   16.9282  -10.5417 C   0  0  0  0  0  0  0  0  0  0  0  0
   38.1325   16.4712  -10.4702 C   0  0  0  0  0  0  0  0  0  0  0  0
   37.7567   15.5064  -11.4111 C   0  0  0  0  0  0  0  0  0  0  0  0
   38.5757   14.9992  -12.3739 C   0  0  0  0  0  0  0  0  0  0  0  0
   41.4987   15.0505  -13.7097 H   0  0  0  0  0  0  0  0  0  0  0  0
   40.0907   13.2920  -15.2231 C   0  0  0  0  0  0  0  0  0  0  0  0
   39.2300   12.8210  -16.1586 C   0  0  0  0  0  0  0  0  0  0  0  0
   39.6228   12.1544  -17.2662 N   0  0  0  0  0  0  0  0  0  0  0  0
   38.9889   11.6129  -18.2924 N   0  0  0  0  0  0  0  0  0  0  0  0
   39.8689   11.0483  -19.1538 C   0  0  0  0  0  0  0  0  0  0  0  0
   41.0823   11.2558  -18.6292 N   0  0  0  0  0  0  0  0  0  0  0  0
   40.9194   11.9365  -17.4693 C   0  0  0  0  0  0  0  0  0  0  0  0
   41.8356   12.3824  -16.5689 C   0  0  0  0  0  0  0  0  0  0  0  0
   43.2936   12.1389  -16.7940 C   0  0  0  0  0  0  0  0  0  0  0  0
   41.4440   13.0746  -15.4187 C   0  0  0  0  0  0  0  0  0  0  0  0
   42.4765   13.5627  -14.4692 C   0  0  0  0  0  0  0  0  0  0  0  0
   37.1889   16.9976   -9.4461 C   0  0  0  0  0  0  0  0  0  0  0  0
   36.0155   16.1100   -9.3627 C   0  0  0  0  0  0  0  0  0  0  0  0
   35.8775   15.2377   -8.1731 C   0  0  0  0  0  0  0  0  0  0  0  0
   36.2528   15.9369   -7.0188 N   0  0  0  0  0  0  0  0  0  0  0  0
   37.5532   16.4917   -6.9913 C   0  0  0  0  0  0  0  0  0  0  0  0
   37.8849   17.3348   -8.1649 C   0  0  0  0  0  0  0  0  0  0  0  0
   35.6942   15.5312   -5.7852 C   0  0  0  0  0  0  0  0  0  0  0  0
   34.8579   14.2702   -5.8829 C   0  0  0  0  0  0  0  0  0  0  0  0
   33.3551   14.5520   -4.9773 S   0  0  0  0  0  0  0  0  0  0  0  0
   32.6861   16.1249   -5.5197 C   0  0  0  0  0  0  0  0  0  0  0  0
   32.3390   13.4992   -5.2921 O   0  0  0  0  0  0  0  0  0  0  0  0
   33.6252   14.5959   -3.4923 O   0  0  0  0  0  0  0  0  0  0  0  0
   36.1376   14.3403  -14.4292 C   0  0  0  0  0  0  0  0  0  0  0  0
   37.1807   13.4615  -13.7784 C   0  0  0  0  0  0  0  0  0  0  0  0
   36.5625   12.4241  -12.9314 C   0  0  0  0  0  0  0  0  0  0  0  0
 34 35  1  0  0  0
 35 36  1  0  0  0
 35  1  1  0  0  0
  1  2  2  0  0  0
  2  3  1  0  0  0
  3  4  1  0  0  0
  4  5  2  0  0  0
  5  6  1  0  0  0
  6  7  2  0  0  0
  7  8  1  0  0  0
  8  9  2  0  0  0
  7 22  1  0  0  0
 22 23  1  0  0  0
 23 24  1  0  0  0
 24 25  1  0  0  0
 25 28  1  0  0  0
 28 29  1  0  0  0
 29 30  1  0  0  0
 30 31  1  0  0  0
 30 32  2  0  0  0
 30 33  2  0  0  0
 25 26  1  0  0  0
 26 27  1  0  0  0
  2 11  1  0  0  0
 11 12  2  0  0  0
 12 13  1  0  0  0
 13 14  1  0  0  0
 14 15  2  0  0  0
 15 16  1  0  0  0
 16 17  2  0  0  0
 17 18  1  0  0  0
 18 19  1  0  0  0
 18 20  2  0  0  0
 20 21  1  0  0  0
  9  1  1  0  0  0
 27 22  1  0  0  0
 20 11  1  0  0  0
  9  4  1  0  0  0
 17 13  1  0  0  0
  3 10  1  0  0  0
M  END
> <minimizedAffinity>
-9.37596

> <CNNscore>
0.4253554642

> <CNNaffinity>
7.0273451805

> <CNN_VS>
2.9891197681

> <CNNaffinity_variance>
0.2297665775

$$$$
[H]c1nc2c(C([H])([H])[H])c(C([H])([H])[H])c(-c3c(C([H])(C([H])([H])[H])C([H])([H])[H])c4c([H])c(C5([H])C([H])([H])C([H])([H])N(C([H])([H])C([H])([H])S(=O)(=O)C([H])([H])[H])C([H])([H])C5([H])[H])c([H])c([H])c4n3[H])c([H])n2n1


 36 40  0  0  0  0  0  0  0  0999 V2000
   36.9032   14.2651  -13.2295 C   0  0  0  0  0  0  0  0  0  0  0  0
   36.6224   13.5671  -14.3701 C   0  0  0  0  0  0  0  0  0  0  0  0
   35.2546   13.4913  -14.4917 N   0  0  0  0  0  0  0  0  0  0  0  0
   34.6740   14.1116  -13.4819 C   0  0  0  0  0  0  0  0  0  0  0  0
   33.3403   14.2729  -13.1884 C   0  0  0  0  0  0  0  0  0  0  0  0
   32.9453   14.9504  -12.0471 C   0  0  0  0  0  0  0  0  0  0  0  0
   33.8892   15.4706  -11.1919 C   0  0  0  0  0  0  0  0  0  0  0  0
   35.2288   15.2743  -11.5447 C   0  0  0  0  0  0  0  0  0  0  0  0
   35.6504   14.6154  -12.6596 C   0  0  0  0  0  0  0  0  0  0  0  0
   34.7986   12.9981  -15.3034 H   0  0  0  0  0  0  0  0  0  0  0  0
   37.5115   12.9272  -15.3079 C   0  0  0  0  0  0  0  0  0  0  0  0
   38.8391   13.1933  -15.3757 C   0  0  0  0  0  0  0  0  0  0  0  0
   39.6808   12.5786  -16.2355 N   0  0  0  0  0  0  0  0  0  0  0  0
   40.9768   12.6665  -16.4818 N   0  0  0  0  0  0  0  0  0  0  0  0
   41.3347   11.8110  -17.4693 C   0  0  0  0  0  0  0  0  0  0  0  0
   40.2123   11.1808  -17.8351 N   0  0  0  0  0  0  0  0  0  0  0  0
   39.2020   11.6600  -17.0704 C   0  0  0  0  0  0  0  0  0  0  0  0
   37.8790   11.3465  -17.0543 C   0  0  0  0  0  0  0  0  0  0  0  0
   37.3377   10.3149  -17.9916 C   0  0  0  0  0  0  0  0  0  0  0  0
   36.9963   11.9735  -16.1694 C   0  0  0  0  0  0  0  0  0  0  0  0
   35.5617   11.5891  -16.1691 C   0  0  0  0  0  0  0  0  0  0  0  0
   33.4874   16.1906   -9.9524 C   0  0  0  0  0  0  0  0  0  0  0  0
   32.0175   16.1977   -9.8477 C   0  0  0  0  0  0  0  0  0  0  0  0
   31.3812   15.3277   -8.8312 C   0  0  0  0  0  0  0  0  0  0  0  0
   32.1223   15.3565   -7.6428 N   0  0  0  0  0  0  0  0  0  0  0  0
   33.4866   14.9926   -7.7209 C   0  0  0  0  0  0  0  0  0  0  0  0
   34.2567   15.7202   -8.7580 C   0  0  0  0  0  0  0  0  0  0  0  0
   31.4464   15.0841   -6.4316 C   0  0  0  0  0  0  0  0  0  0  0  0
   31.6137   13.6557   -5.9511 C   0  0  0  0  0  0  0  0  0  0  0  0
   30.3486   12.6776   -6.7263 S   0  0  0  0  0  0  0  0  0  0  0  0
   28.8714   13.6893   -6.8271 C   0  0  0  0  0  0  0  0  0  0  0  0
   30.7397   12.3133   -8.1243 O   0  0  0  0  0  0  0  0  0  0  0  0
   30.0629   11.4343   -5.9185 O   0  0  0  0  0  0  0  0  0  0  0  0
   38.1032   14.7444  -11.0481 C   0  0  0  0  0  0  0  0  0  0  0  0
   38.1522   14.5135  -12.5409 C   0  0  0  0  0  0  0  0  0  0  0  0
   39.2404   15.2834  -13.1722 C   0  0  0  0  0  0  0  0  0  0  0  0
 34 35  1  0  0  0
 35 36  1  0  0  0
 35  1  1  0  0  0
  1  2  2  0  0  0
  2  3  1  0  0  0
  3  4  1  0  0  0
  4  5  2  0  0  0
  5  6  1  0  0  0
  6  7  2  0  0  0
  7  8  1  0  0  0
  8  9  2  0  0  0
  7 22  1  0  0  0
 22 23  1  0  0  0
 23 24  1  0  0  0
 24 25  1  0  0  0
 25 28  1  0  0  0
 28 29  1  0  0  0
 29 30  1  0  0  0
 30 31  1  0  0  0
 30 32  2  0  0  0
 30 33  2  0  0  0
 25 26  1  0  0  0
 26 27  1  0  0  0
  2 11  1  0  0  0
 11 12  2  0  0  0
 12 13  1  0  0  0
 13 14  1  0  0  0
 14 15  2  0  0  0
 15 16  1  0  0  0
 16 17  2  0  0  0
 17 18  1  0  0  0
 18 19  1  0  0  0
 18 20  2  0  0  0
 20 21  1  0  0  0
  9  1  1  0  0  0
 27 22  1  0  0  0
 20 11  1  0  0  0
  9  4  1  0  0  0
 17 13  1  0  0  0
  3 10  1  0  0  0
M  END
> <minimizedAffinity>
-8.75902

> <CNNscore>
0.4221668839

> <CNNaffinity>
7.2299642563

> <CNN_VS>
3.0522515774

> <CNNaffinity_variance>
0.2705790699

$$$$
[H]c1nc(C(F)(F)C([H])([H])[H])c([H])c(C(=O)N([H])c2c([H])nc(C([H])([H])[H])c(-c3c([H])nc(OC([H])([H])[H])c(N4C([H])([H])C([H])([H])OC([H])([H])C4([H])[H])c3[H])c2[H])c1[H]


 35 38  0  0  0  0  0  0  0  0999 V2000
   36.3081   12.1712  -15.7392 C   0  0  0  0  0  0  0  0  0  0  0  0
   37.6584   12.4690  -15.7541 C   0  0  0  0  0  0  0  0  0  0  0  0
   38.5346   11.8696  -16.6199 C   0  0  0  0  0  0  0  0  0  0  0  0
   37.9934   10.9383  -17.4986 C   0  0  0  0  0  0  0  0  0  0  0  0
   36.6900   10.6661  -17.4625 N   0  0  0  0  0  0  0  0  0  0  0  0
   35.8453   11.2374  -16.6285 C   0  0  0  0  0  0  0  0  0  0  0  0
   34.4234   10.8137  -16.6572 C   0  0  0  0  0  0  0  0  0  0  0  0
   33.7401   14.1397  -13.0647 C   0  0  0  0  0  0  0  0  0  0  0  0
   33.2829   13.5353  -14.1700 N   0  0  0  0  0  0  0  0  0  0  0  0
   34.1206   12.9131  -15.0050 C   0  0  0  0  0  0  0  0  0  0  0  0
   35.4850   12.8567  -14.7863 C   0  0  0  0  0  0  0  0  0  0  0  0
   35.9233   13.4963  -13.6260 C   0  0  0  0  0  0  0  0  0  0  0  0
   35.0971   14.1480  -12.7397 C   0  0  0  0  0  0  0  0  0  0  0  0
   35.5452   14.7858  -11.6100 N   0  0  0  0  0  0  0  0  0  0  0  0
   36.5776   14.1638  -10.7472 C   0  0  0  0  0  0  0  0  0  0  0  0
   37.8182   14.9906  -11.0868 C   0  0  0  0  0  0  0  0  0  0  0  0
   37.5073   16.1508  -11.8003 O   0  0  0  0  0  0  0  0  0  0  0  0
   36.4725   16.9026  -11.1818 C   0  0  0  0  0  0  0  0  0  0  0  0
   35.1918   16.0907  -11.0844 C   0  0  0  0  0  0  0  0  0  0  0  0
   31.5310   14.3711  -12.0276 C   0  0  0  0  0  0  0  0  0  0  0  0
   32.8583   14.7582  -12.2491 O   0  0  0  0  0  0  0  0  0  0  0  0
   39.9452   12.1635  -16.5918 N   0  0  0  0  0  0  0  0  0  0  0  0
   40.4556   12.8560  -15.4864 C   0  0  0  0  0  0  0  0  0  0  0  0
   39.5687   13.1899  -14.5634 O   0  0  0  0  0  0  0  0  0  0  0  0
   40.5122   11.8584  -17.3916 H   0  0  0  0  0  0  0  0  0  0  0  0
   41.7782   13.2789  -15.1550 C   0  0  0  0  0  0  0  0  0  0  0  0
   42.8001   13.0449  -16.0869 C   0  0  0  0  0  0  0  0  0  0  0  0
   44.0861   13.3858  -15.7880 C   0  0  0  0  0  0  0  0  0  0  0  0
   44.4195   13.9404  -14.6280 N   0  0  0  0  0  0  0  0  0  0  0  0
   43.4637   14.1876  -13.6933 C   0  0  0  0  0  0  0  0  0  0  0  0
   42.1688   13.8606  -13.9584 C   0  0  0  0  0  0  0  0  0  0  0  0
   43.9276   14.7819  -12.4398 C   0  0  0  0  0  0  0  0  0  0  0  0
   44.2476   16.2434  -12.4960 C   0  0  0  0  0  0  0  0  0  0  0  0
   45.0407   14.0864  -11.9933 F   0  0  0  0  0  0  0  0  0  0  0  0
   42.9276   14.5531  -11.4910 F   0  0  0  0  0  0  0  0  0  0  0  0
 20 21  1  0  0  0
 21  8  1  0  0  0
  8  9  2  0  0  0
  9 10  1  0  0  0
 10 11  2  0  0  0
 11 12  1  0  0  0
 12 13  2  0  0  0
 13 14  1  0  0  0
 14 15  1  0  0  0
 15 16  1  0  0  0
 16 17  1  0  0  0
 17 18  1  0  0  0
 18 19  1  0  0  0
 11  1  1  0  0  0
  1  2  2  0  0  0
  2  3  1  0  0  0
  3 22  1  0  0  0
 22 23  1  0  0  0
 23 24  2  0  0  0
 23 26  1  0  0  0
 26 27  2  0  0  0
 27 28  1  0  0  0
 28 29  2  0  0  0
 29 30  1  0  0  0
 30 31  2  0  0  0
 30 32  1  0  0  0
 32 33  1  0  0  0
 32 34  1  0  0  0
 32 35  1  0  0  0
  3  4  2  0  0  0
  4  5  1  0  0  0
  5  6  2  0  0  0
  6  7  1  0  0  0
 13  8  1  0  0  0
 19 14  1  0  0  0
  6  1  1  0  0  0
 31 26  1  0  0  0
 22 25  1  0  0  0
M  END
> <minimizedAffinity>
-9.61964

> <CNNscore>
0.2006599009

> <CNNaffinity>
6.9775528908

> <CNN_VS>
1.4001150131

> <CNNaffinity_variance>
0.2081200182

$$$$
[H]c1nc(C(F)(F)C([H])([H])[H])c([H])c(C(=O)N([H])c2c([H])nc(C([H])([H])[H])c(-c3c([H])nc(OC([H])([H])[H])c(N4C([H])([H])C([H])([H])OC([H])([H])C4([H])[H])c3[H])c2[H])c1[H]


 35 38  0  0  0  0  0  0  0  0999 V2000
   38.7145   13.2911  -14.9912 C   0  0  0  0  0  0  0  0  0  0  0  0
   38.2133   14.2126  -14.0902 C   0  0  0  0  0  0  0  0  0  0  0  0
   36.8712   14.3610  -13.8592 C   0  0  0  0  0  0  0  0  0  0  0  0
   36.0253   13.5262  -14.5801 C   0  0  0  0  0  0  0  0  0  0  0  0
   36.5321   12.6488  -15.4448 N   0  0  0  0  0  0  0  0  0  0  0  0
   37.8218   12.5063  -15.6726 C   0  0  0  0  0  0  0  0  0  0  0  0
   38.2576   11.5235  -16.6955 C   0  0  0  0  0  0  0  0  0  0  0  0
   42.8509   13.0158  -15.6519 C   0  0  0  0  0  0  0  0  0  0  0  0
   41.9593   12.6223  -16.5719 N   0  0  0  0  0  0  0  0  0  0  0  0
   40.6472   12.7222  -16.3386 C   0  0  0  0  0  0  0  0  0  0  0  0
   40.1372   13.2260  -15.1560 C   0  0  0  0  0  0  0  0  0  0  0  0
   41.0953   13.6256  -14.2233 C   0  0  0  0  0  0  0  0  0  0  0  0
   42.4541   13.5406  -14.4214 C   0  0  0  0  0  0  0  0  0  0  0  0
   43.3844   13.9239  -13.4880 N   0  0  0  0  0  0  0  0  0  0  0  0
   43.9941   15.2740  -13.5352 C   0  0  0  0  0  0  0  0  0  0  0  0
   43.2917   15.9826  -12.3765 C   0  0  0  0  0  0  0  0  0  0  0  0
   42.6038   15.0941  -11.5462 O   0  0  0  0  0  0  0  0  0  0  0  0
   43.4139   14.0002  -11.1390 C   0  0  0  0  0  0  0  0  0  0  0  0
   43.8921   13.1994  -12.3385 C   0  0  0  0  0  0  0  0  0  0  0  0
   44.7304   12.0697  -16.9096 C   0  0  0  0  0  0  0  0  0  0  0  0
   44.1678   12.8956  -15.9287 O   0  0  0  0  0  0  0  0  0  0  0  0
   36.3668   15.3557  -12.9464 N   0  0  0  0  0  0  0  0  0  0  0  0
   36.0767   14.9633  -11.6334 C   0  0  0  0  0  0  0  0  0  0  0  0
   36.2877   13.6863  -11.3600 O   0  0  0  0  0  0  0  0  0  0  0  0
   36.2338   16.3086  -13.3048 H   0  0  0  0  0  0  0  0  0  0  0  0
   35.5882   15.6922  -10.5073 C   0  0  0  0  0  0  0  0  0  0  0  0
   36.4655   16.5745   -9.8597 C   0  0  0  0  0  0  0  0  0  0  0  0
   36.0550   17.2506   -8.7489 C   0  0  0  0  0  0  0  0  0  0  0  0
   34.8355   17.1057   -8.2430 N   0  0  0  0  0  0  0  0  0  0  0  0
   33.9493   16.2627   -8.8365 C   0  0  0  0  0  0  0  0  0  0  0  0
   34.3251   15.5718   -9.9480 C   0  0  0  0  0  0  0  0  0  0  0  0
   32.6380   16.1533   -8.1976 C   0  0  0  0  0  0  0  0  0  0  0  0
   31.4596   16.3187   -9.1062 C   0  0  0  0  0  0  0  0  0  0  0  0
   32.5565   17.0793   -7.1690 F   0  0  0  0  0  0  0  0  0  0  0  0
   32.5910   14.8976   -7.5863 F   0  0  0  0  0  0  0  0  0  0  0  0
 20 21  1  0  0  0
 21  8  1  0  0  0
  8  9  2  0  0  0
  9 10  1  0  0  0
 10 11  2  0  0  0
 11 12  1  0  0  0
 12 13  2  0  0  0
 13 14  1  0  0  0
 14 15  1  0  0  0
 15 16  1  0  0  0
 16 17  1  0  0  0
 17 18  1  0  0  0
 18 19  1  0  0  0
 11  1  1  0  0  0
  1  2  2  0  0  0
  2  3  1  0  0  0
  3 22  1  0  0  0
 22 23  1  0  0  0
 23 24  2  0  0  0
 23 26  1  0  0  0
 26 27  2  0  0  0
 27 28  1  0  0  0
 28 29  2  0  0  0
 29 30  1  0  0  0
 30 31  2  0  0  0
 30 32  1  0  0  0
 32 33  1  0  0  0
 32 34  1  0  0  0
 32 35  1  0  0  0
  3  4  2  0  0  0
  4  5  1  0  0  0
  5  6  2  0  0  0
  6  7  1  0  0  0
 13  8  1  0  0  0
 19 14  1  0  0  0
  6  1  1  0  0  0
 31 26  1  0  0  0
 22 25  1  0  0  0
M  END
> <minimizedAffinity>
-8.65015

> <CNNscore>
0.1608102769

> <CNNaffinity>
6.1666383743

> <CNN_VS>
0.9916588068

> <CNNaffinity_variance>
0.2701083422

$$$$
[H]c1nc(C(F)(F)C([H])([H])[H])c([H])c(C(=O)N([H])c2c([H])nc(C([H])([H])[H])c(-c3c([H])nc(OC([H])([H])[H])c(N4C([H])([H])C([H])([H])OC([H])([H])C4([H])[H])c3[H])c2[H])c1[H]


 35 38  0  0  0  0  0  0  0  0999 V2000
   38.6930   13.5873  -14.6709 C   0  0  0  0  0  0  0  0  0  0  0  0
   38.3095   14.5687  -13.7753 C   0  0  0  0  0  0  0  0  0  0  0  0
   36.9979   14.8027  -13.4571 C   0  0  0  0  0  0  0  0  0  0  0  0
   36.0576   13.9919  -14.0823 C   0  0  0  0  0  0  0  0  0  0  0  0
   36.4517   13.0556  -14.9439 N   0  0  0  0  0  0  0  0  0  0  0  0
   37.7117   12.8307  -15.2554 C   0  0  0  0  0  0  0  0  0  0  0  0
   38.0179   11.7874  -16.2653 C   0  0  0  0  0  0  0  0  0  0  0  0
   42.7498   13.0610  -15.6133 C   0  0  0  0  0  0  0  0  0  0  0  0
   41.7756   12.7485  -16.4790 N   0  0  0  0  0  0  0  0  0  0  0  0
   40.4911   12.9274  -16.1561 C   0  0  0  0  0  0  0  0  0  0  0  0
   40.0944   13.4342  -14.9321 C   0  0  0  0  0  0  0  0  0  0  0  0
   41.1360   13.7483  -14.0581 C   0  0  0  0  0  0  0  0  0  0  0  0
   42.4703   13.5804  -14.3487 C   0  0  0  0  0  0  0  0  0  0  0  0
   43.4833   13.8798  -13.4723 N   0  0  0  0  0  0  0  0  0  0  0  0
   44.2401   15.1485  -13.5932 C   0  0  0  0  0  0  0  0  0  0  0  0
   43.6813   15.9661  -12.4283 C   0  0  0  0  0  0  0  0  0  0  0  0
   42.9383   15.1872  -11.5377 O   0  0  0  0  0  0  0  0  0  0  0  0
   43.6373   14.0190  -11.1312 C   0  0  0  0  0  0  0  0  0  0  0  0
   43.9611   13.1344  -12.3235 C   0  0  0  0  0  0  0  0  0  0  0  0
   44.4992   11.8617  -16.8424 C   0  0  0  0  0  0  0  0  0  0  0  0
   44.0348   12.8626  -15.9803 O   0  0  0  0  0  0  0  0  0  0  0  0
   36.6160   15.8577  -12.5526 N   0  0  0  0  0  0  0  0  0  0  0  0
   36.5759   15.5726  -11.1818 C   0  0  0  0  0  0  0  0  0  0  0  0
   36.8876   14.3311  -10.8481 O   0  0  0  0  0  0  0  0  0  0  0  0
   36.3807   16.7715  -12.9575 H   0  0  0  0  0  0  0  0  0  0  0  0
   36.2585   16.3820  -10.0495 C   0  0  0  0  0  0  0  0  0  0  0  0
   35.0897   16.0866   -9.3324 C   0  0  0  0  0  0  0  0  0  0  0  0
   34.7226   16.8672   -8.2764 C   0  0  0  0  0  0  0  0  0  0  0  0
   35.4385   17.9173   -7.8903 N   0  0  0  0  0  0  0  0  0  0  0  0
   36.5797   18.2427   -8.5535 C   0  0  0  0  0  0  0  0  0  0  0  0
   36.9768   17.4847   -9.6127 C   0  0  0  0  0  0  0  0  0  0  0  0
   37.2906   19.4259   -8.0693 C   0  0  0  0  0  0  0  0  0  0  0  0
   38.0823   19.2360   -6.8128 C   0  0  0  0  0  0  0  0  0  0  0  0
   36.3822   20.4571   -7.8865 F   0  0  0  0  0  0  0  0  0  0  0  0
   38.1357   19.8392   -9.1026 F   0  0  0  0  0  0  0  0  0  0  0  0
 20 21  1  0  0  0
 21  8  1  0  0  0
  8  9  2  0  0  0
  9 10  1  0  0  0
 10 11  2  0  0  0
 11 12  1  0  0  0
 12 13  2  0  0  0
 13 14  1  0  0  0
 14 15  1  0  0  0
 15 16  1  0  0  0
 16 17  1  0  0  0
 17 18  1  0  0  0
 18 19  1  0  0  0
 11  1  1  0  0  0
  1  2  2  0  0  0
  2  3  1  0  0  0
  3 22  1  0  0  0
 22 23  1  0  0  0
 23 24  2  0  0  0
 23 26  1  0  0  0
 26 27  2  0  0  0
 27 28  1  0  0  0
 28 29  2  0  0  0
 29 30  1  0  0  0
 30 31  2  0  0  0
 30 32  1  0  0  0
 32 33  1  0  0  0
 32 34  1  0  0  0
 32 35  1  0  0  0
  3  4  2  0  0  0
  4  5  1  0  0  0
  5  6  2  0  0  0
  6  7  1  0  0  0
 13  8  1  0  0  0
 19 14  1  0  0  0
  6  1  1  0  0  0
 31 26  1  0  0  0
 22 25  1  0  0  0
M  END
> <minimizedAffinity>
-8.64387

> <CNNscore>
0.1397511065

> <CNNaffinity>
6.0693712234

> <CNN_VS>
0.8482013345

> <CNNaffinity_variance>
0.2508933842

$$$$
[H]c1nc(C(F)(F)C([H])([H])[H])c([H])c(C(=O)N([H])c2c([H])nc(C([H])([H])[H])c(-c3c([H])nc(OC([H])([H])[H])c(N4C([H])([H])C([H])([H])OC([H])([H])C4([H])[H])c3[H])c2[H])c1[H]


 35 38  0  0  0  0  0  0  0  0999 V2000
   34.7444   15.7413  -10.0601 C   0  0  0  0  0  0  0  0  0  0  0  0
   35.3243   15.3843  -11.2637 C   0  0  0  0  0  0  0  0  0  0  0  0
   34.5839   15.0662  -12.3715 C   0  0  0  0  0  0  0  0  0  0  0  0
   33.2025   15.1251  -12.2278 C   0  0  0  0  0  0  0  0  0  0  0  0
   32.6678   15.4684  -11.0571 N   0  0  0  0  0  0  0  0  0  0  0  0
   33.3766   15.7708   -9.9887 C   0  0  0  0  0  0  0  0  0  0  0  0
   32.6604   16.0932   -8.7296 C   0  0  0  0  0  0  0  0  0  0  0  0
   37.3408   16.4490   -6.8383 C   0  0  0  0  0  0  0  0  0  0  0  0
   37.1518   15.2200   -7.3385 N   0  0  0  0  0  0  0  0  0  0  0  0
   36.3213   15.0208   -8.3664 C   0  0  0  0  0  0  0  0  0  0  0  0
   35.6173   16.0495   -8.9653 C   0  0  0  0  0  0  0  0  0  0  0  0
   35.8402   17.3137   -8.4180 C   0  0  0  0  0  0  0  0  0  0  0  0
   36.6851   17.5641   -7.3614 C   0  0  0  0  0  0  0  0  0  0  0  0
   36.8824   18.8115   -6.8242 N   0  0  0  0  0  0  0  0  0  0  0  0
   37.8993   19.7289   -7.3909 C   0  0  0  0  0  0  0  0  0  0  0  0
   37.0330   20.7467   -8.1336 C   0  0  0  0  0  0  0  0  0  0  0  0
   35.6821   20.6482   -7.7912 O   0  0  0  0  0  0  0  0  0  0  0  0
   35.4815   20.6469   -6.3846 C   0  0  0  0  0  0  0  0  0  0  0  0
   36.1863   19.4683   -5.7342 C   0  0  0  0  0  0  0  0  0  0  0  0
   39.5848   16.5215   -5.8541 C   0  0  0  0  0  0  0  0  0  0  0  0
   38.1882   16.6048   -5.7976 O   0  0  0  0  0  0  0  0  0  0  0  0
   35.2068   14.6566  -13.6049 N   0  0  0  0  0  0  0  0  0  0  0  0
   35.2984   13.2857  -13.8773 C   0  0  0  0  0  0  0  0  0  0  0  0
   34.8038   12.4852  -12.9475 O   0  0  0  0  0  0  0  0  0  0  0  0
   35.5648   15.3918  -14.2258 H   0  0  0  0  0  0  0  0  0  0  0  0
   35.8326   12.5694  -14.9906 C   0  0  0  0  0  0  0  0  0  0  0  0
   34.9570   11.7795  -15.7502 C   0  0  0  0  0  0  0  0  0  0  0  0
   35.4359   11.0383  -16.7898 C   0  0  0  0  0  0  0  0  0  0  0  0
   36.7225   11.0313  -17.1200 N   0  0  0  0  0  0  0  0  0  0  0  0
   37.6094   11.7817  -16.4139 C   0  0  0  0  0  0  0  0  0  0  0  0
   37.1659   12.5347  -15.3697 C   0  0  0  0  0  0  0  0  0  0  0  0
   39.0067   11.6954  -16.8379 C   0  0  0  0  0  0  0  0  0  0  0  0
   39.9712   12.5389  -16.0635 C   0  0  0  0  0  0  0  0  0  0  0  0
   39.0927   12.0196  -18.1831 F   0  0  0  0  0  0  0  0  0  0  0  0
   39.3739   10.3504  -16.7444 F   0  0  0  0  0  0  0  0  0  0  0  0
 20 21  1  0  0  0
 21  8  1  0  0  0
  8  9  2  0  0  0
  9 10  1  0  0  0
 10 11  2  0  0  0
 11 12  1  0  0  0
 12 13  2  0  0  0
 13 14  1  0  0  0
 14 15  1  0  0  0
 15 16  1  0  0  0
 16 17  1  0  0  0
 17 18  1  0  0  0
 18 19  1  0  0  0
 11  1  1  0  0  0
  1  2  2  0  0  0
  2  3  1  0  0  0
  3 22  1  0  0  0
 22 23  1  0  0  0
 23 24  2  0  0  0
 23 26  1  0  0  0
 26 27  2  0  0  0
 27 28  1  0  0  0
 28 29  2  0  0  0
 29 30  1  0  0  0
 30 31  2  0  0  0
 30 32  1  0  0  0
 32 33  1  0  0  0
 32 34  1  0  0  0
 32 35  1  0  0  0
  3  4  2  0  0  0
  4  5  1  0  0  0
  5  6  2  0  0  0
  6  7  1  0  0  0
 13  8  1  0  0  0
 19 14  1  0  0  0
  6  1  1  0  0  0
 31 26  1  0  0  0
 22 25  1  0  0  0
M  END
> <minimizedAffinity>
-8.38175

> <CNNscore>
0.1134672984

> <CNNaffinity>
6.0100049973

> <CNN_VS>
0.6819390059

> <CNNaffinity_variance>
0.2965288758

$$$$
[H]c1nc(C(F)(F)C([H])([H])[H])c([H])c(C(=O)N([H])c2c([H])nc(C([H])([H])[H])c(-c3c([H])nc(OC([H])([H])[H])c(N4C([H])([H])C([H])([H])OC([H])([H])C4([H])[H])c3[H])c2[H])c1[H]


 35 38  0  0  0  0  0  0  0  0999 V2000
   34.4908   16.0029   -9.6923 C   0  0  0  0  0  0  0  0  0  0  0  0
   35.2289   15.7048  -10.8231 C   0  0  0  0  0  0  0  0  0  0  0  0
   34.6475   15.3023  -11.9963 C   0  0  0  0  0  0  0  0  0  0  0  0
   33.2605   15.2110  -11.9978 C   0  0  0  0  0  0  0  0  0  0  0  0
   32.5718   15.5002  -10.8948 N   0  0  0  0  0  0  0  0  0  0  0  0
   33.1278   15.8835   -9.7637 C   0  0  0  0  0  0  0  0  0  0  0  0
   32.2528   16.1325   -8.5913 C   0  0  0  0  0  0  0  0  0  0  0  0
   36.6631   17.3439   -6.3599 C   0  0  0  0  0  0  0  0  0  0  0  0
   36.7014   17.9867   -7.5353 N   0  0  0  0  0  0  0  0  0  0  0  0
   35.9988   17.5409   -8.5812 C   0  0  0  0  0  0  0  0  0  0  0  0
   35.2055   16.4099   -8.5181 C   0  0  0  0  0  0  0  0  0  0  0  0
   35.1905   15.7684   -7.2788 C   0  0  0  0  0  0  0  0  0  0  0  0
   35.8974   16.1918   -6.1770 C   0  0  0  0  0  0  0  0  0  0  0  0
   35.8843   15.5412   -4.9686 N   0  0  0  0  0  0  0  0  0  0  0  0
   34.9379   15.9434   -3.9012 C   0  0  0  0  0  0  0  0  0  0  0  0
   33.9101   14.8121   -3.9424 C   0  0  0  0  0  0  0  0  0  0  0  0
   34.3486   13.7202   -4.6956 O   0  0  0  0  0  0  0  0  0  0  0  0
   35.6508   13.2944   -4.3195 C   0  0  0  0  0  0  0  0  0  0  0  0
   36.6678   14.4049   -4.5230 C   0  0  0  0  0  0  0  0  0  0  0  0
   37.2261   19.0799   -4.7233 C   0  0  0  0  0  0  0  0  0  0  0  0
   37.3901   17.8283   -5.3293 O   0  0  0  0  0  0  0  0  0  0  0  0
   35.4369   14.9566  -13.1515 N   0  0  0  0  0  0  0  0  0  0  0  0
   35.9257   13.6478  -13.2521 C   0  0  0  0  0  0  0  0  0  0  0  0
   35.6171   12.8449  -12.2471 O   0  0  0  0  0  0  0  0  0  0  0  0
   35.6135   15.6918  -13.8462 H   0  0  0  0  0  0  0  0  0  0  0  0
   36.7084   12.9977  -14.2534 C   0  0  0  0  0  0  0  0  0  0  0  0
   38.1007   13.1644  -14.2159 C   0  0  0  0  0  0  0  0  0  0  0  0
   38.8804   12.6037  -15.1839 C   0  0  0  0  0  0  0  0  0  0  0  0
   38.3675   11.8928  -16.1818 N   0  0  0  0  0  0  0  0  0  0  0  0
   37.0236   11.7027  -16.2601 C   0  0  0  0  0  0  0  0  0  0  0  0
   36.2147   12.2477  -15.3101 C   0  0  0  0  0  0  0  0  0  0  0  0
   36.5493   10.9235  -17.4037 C   0  0  0  0  0  0  0  0  0  0  0  0
   37.6136   10.4089  -18.3223 C   0  0  0  0  0  0  0  0  0  0  0  0
   35.6480   11.6870  -18.1295 F   0  0  0  0  0  0  0  0  0  0  0  0
   35.8143    9.8539  -16.8855 F   0  0  0  0  0  0  0  0  0  0  0  0
 20 21  1  0  0  0
 21  8  1  0  0  0
  8  9  2  0  0  0
  9 10  1  0  0  0
 10 11  2  0  0  0
 11 12  1  0  0  0
 12 13  2  0  0  0
 13 14  1  0  0  0
 14 15  1  0  0  0
 15 16  1  0  0  0
 16 17  1  0  0  0
 17 18  1  0  0  0
 18 19  1  0  0  0
 11  1  1  0  0  0
  1  2  2  0  0  0
  2  3  1  0  0  0
  3 22  1  0  0  0
 22 23  1  0  0  0
 23 24  2  0  0  0
 23 26  1  0  0  0
 26 27  2  0  0  0
 27 28  1  0  0  0
 28 29  2  0  0  0
 29 30  1  0  0  0
 30 31  2  0  0  0
 30 32  1  0  0  0
 32 33  1  0  0  0
 32 34  1  0  0  0
 32 35  1  0  0  0
  3  4  2  0  0  0
  4  5  1  0  0  0
  5  6  2  0  0  0
  6  7  1  0  0  0
 13  8  1  0  0  0
 19 14  1  0  0  0
  6  1  1  0  0  0
 31 26  1  0  0  0
 22 25  1  0  0  0
M  END
> <minimizedAffinity>
-8.65760

> <CNNscore>
0.1062499732

> <CNNaffinity>
6.1237359047

> <CNN_VS>
0.6506467462

> <CNNaffinity_variance>
0.2203029394

$$$$
[H]c1nc(C(F)(F)C([H])([H])[H])c([H])c(C(=O)N([H])c2c([H])nc(C([H])([H])[H])c(-c3c([H])nc(OC([H])([H])[H])c(N4C([H])([H])C([H])([H])OC([H])([H])C4([H])[H])c3[H])c2[H])c1[H]


 35 38  0  0  0  0  0  0  0  0999 V2000
   37.6988   15.5856  -10.0200 C   0  0  0  0  0  0  0  0  0  0  0  0
   37.1451   14.6338  -10.8565 C   0  0  0  0  0  0  0  0  0  0  0  0
   36.2802   14.9571  -11.8683 C   0  0  0  0  0  0  0  0  0  0  0  0
   35.9852   16.3070  -12.0197 C   0  0  0  0  0  0  0  0  0  0  0  0
   36.5286   17.2046  -11.1991 N   0  0  0  0  0  0  0  0  0  0  0  0
   37.3573   16.8969  -10.2224 C   0  0  0  0  0  0  0  0  0  0  0  0
   37.8592   17.9856   -9.3478 C   0  0  0  0  0  0  0  0  0  0  0  0
   40.1444   14.2040   -6.9003 C   0  0  0  0  0  0  0  0  0  0  0  0
   38.8092   14.0971   -6.8536 N   0  0  0  0  0  0  0  0  0  0  0  0
   38.0523   14.5427   -7.8608 C   0  0  0  0  0  0  0  0  0  0  0  0
   38.5884   15.1322   -8.9911 C   0  0  0  0  0  0  0  0  0  0  0  0
   39.9808   15.2254   -9.0039 C   0  0  0  0  0  0  0  0  0  0  0  0
   40.7977   14.7805   -7.9902 C   0  0  0  0  0  0  0  0  0  0  0  0
   42.1654   14.8929   -8.0106 N   0  0  0  0  0  0  0  0  0  0  0  0
   43.0040   13.8360   -8.6241 C   0  0  0  0  0  0  0  0  0  0  0  0
   43.4419   14.4948   -9.9326 C   0  0  0  0  0  0  0  0  0  0  0  0
   43.1786   15.8667   -9.9533 O   0  0  0  0  0  0  0  0  0  0  0  0
   43.6640   16.5261   -8.7923 C   0  0  0  0  0  0  0  0  0  0  0  0
   43.0105   15.9726   -7.5371 C   0  0  0  0  0  0  0  0  0  0  0  0
   41.1236   12.3962   -5.5653 C   0  0  0  0  0  0  0  0  0  0  0  0
   40.8711   13.7417   -5.8593 O   0  0  0  0  0  0  0  0  0  0  0  0
   35.6817   13.9461  -12.7031 N   0  0  0  0  0  0  0  0  0  0  0  0
   36.2791   13.6692  -13.9394 C   0  0  0  0  0  0  0  0  0  0  0  0
   37.3504   14.3891  -14.2292 O   0  0  0  0  0  0  0  0  0  0  0  0
   34.8355   13.4798  -12.3555 H   0  0  0  0  0  0  0  0  0  0  0  0
   35.9488   12.7376  -14.9695 C   0  0  0  0  0  0  0  0  0  0  0  0
   34.6292   12.2665  -15.0366 C   0  0  0  0  0  0  0  0  0  0  0  0
   34.2845   11.3365  -15.9723 C   0  0  0  0  0  0  0  0  0  0  0  0
   35.1629   10.8467  -16.8400 N   0  0  0  0  0  0  0  0  0  0  0  0
   36.4535   11.2734  -16.8147 C   0  0  0  0  0  0  0  0  0  0  0  0
   36.8327   12.2021  -15.8939 C   0  0  0  0  0  0  0  0  0  0  0  0
   37.3523   10.6640  -17.7946 C   0  0  0  0  0  0  0  0  0  0  0  0
   38.8122   10.9161  -17.5784 C   0  0  0  0  0  0  0  0  0  0  0  0
   36.9968   11.0932  -19.0640 F   0  0  0  0  0  0  0  0  0  0  0  0
   37.1015    9.2895  -17.7714 F   0  0  0  0  0  0  0  0  0  0  0  0
 20 21  1  0  0  0
 21  8  1  0  0  0
  8  9  2  0  0  0
  9 10  1  0  0  0
 10 11  2  0  0  0
 11 12  1  0  0  0
 12 13  2  0  0  0
 13 14  1  0  0  0
 14 15  1  0  0  0
 15 16  1  0  0  0
 16 17  1  0  0  0
 17 18  1  0  0  0
 18 19  1  0  0  0
 11  1  1  0  0  0
  1  2  2  0  0  0
  2  3  1  0  0  0
  3 22  1  0  0  0
 22 23  1  0  0  0
 23 24  2  0  0  0
 23 26  1  0  0  0
 26 27  2  0  0  0
 27 28  1  0  0  0
 28 29  2  0  0  0
 29 30  1  0  0  0
 30 31  2  0  0  0
 30 32  1  0  0  0
 32 33  1  0  0  0
 32 34  1  0  0  0
 32 35  1  0  0  0
  3  4  2  0  0  0
  4  5  1  0  0  0
  5  6  2  0  0  0
  6  7  1  0  0  0
 13  8  1  0  0  0
 19 14  1  0  0  0
  6  1  1  0  0  0
 31 26  1  0  0  0
 22 25  1  0  0  0
M  END
> <minimizedAffinity>
-8.29315

> <CNNscore>
0.0881742835

> <CNNaffinity>
6.0239458084

> <CNN_VS>
0.5311570764

> <CNNaffinity_variance>
0.1447803080

$$$$
[H]c1nc(C(F)(F)C([H])([H])[H])c([H])c(C(=O)N([H])c2c([H])nc(C([H])([H])[H])c(-c3c([H])nc(OC([H])([H])[H])c(N4C([H])([H])C([H])([H])OC([H])([H])C4([H])[H])c3[H])c2[H])c1[H]


 35 38  0  0  0  0  0  0  0  0999 V2000
   36.0500   15.5904   -9.5283 C   0  0  0  0  0  0  0  0  0  0  0  0
   35.7849   14.8641  -10.6748 C   0  0  0  0  0  0  0  0  0  0  0  0
   36.0523   15.3454  -11.9291 C   0  0  0  0  0  0  0  0  0  0  0  0
   36.6154   16.6146  -11.9955 C   0  0  0  0  0  0  0  0  0  0  0  0
   36.8582   17.2960  -10.8769 N   0  0  0  0  0  0  0  0  0  0  0  0
   36.5984   16.8380   -9.6694 C   0  0  0  0  0  0  0  0  0  0  0  0
   36.8735   17.7140   -8.5036 C   0  0  0  0  0  0  0  0  0  0  0  0
   35.2813   13.7533   -5.8328 C   0  0  0  0  0  0  0  0  0  0  0  0
   36.4813   13.6781   -6.4247 N   0  0  0  0  0  0  0  0  0  0  0  0
   36.7018   14.2736   -7.6007 C   0  0  0  0  0  0  0  0  0  0  0  0
   35.7245   14.9890   -8.2682 C   0  0  0  0  0  0  0  0  0  0  0  0
   34.4893   15.0457   -7.6211 C   0  0  0  0  0  0  0  0  0  0  0  0
   34.2187   14.4482   -6.4117 C   0  0  0  0  0  0  0  0  0  0  0  0
   32.9937   14.5001   -5.7948 N   0  0  0  0  0  0  0  0  0  0  0  0
   32.7079   15.5238   -4.7617 C   0  0  0  0  0  0  0  0  0  0  0  0
   31.7979   16.4937   -5.5160 C   0  0  0  0  0  0  0  0  0  0  0  0
   31.3355   15.9624   -6.7226 O   0  0  0  0  0  0  0  0  0  0  0  0
   30.7782   14.6654   -6.5618 C   0  0  0  0  0  0  0  0  0  0  0  0
   31.8110   13.6913   -6.0203 C   0  0  0  0  0  0  0  0  0  0  0  0
   35.7668   13.4383   -3.4507 C   0  0  0  0  0  0  0  0  0  0  0  0
   35.1017   13.1351   -4.6450 O   0  0  0  0  0  0  0  0  0  0  0  0
   35.7306   14.5896  -13.1132 N   0  0  0  0  0  0  0  0  0  0  0  0
   36.7258   13.7769  -13.6710 C   0  0  0  0  0  0  0  0  0  0  0  0
   37.8924   13.7948  -13.0477 O   0  0  0  0  0  0  0  0  0  0  0  0
   34.7850   14.6895  -13.5008 H   0  0  0  0  0  0  0  0  0  0  0  0
   36.7235   12.9119  -14.8066 C   0  0  0  0  0  0  0  0  0  0  0  0
   35.5146   12.2997  -15.1691 C   0  0  0  0  0  0  0  0  0  0  0  0
   35.4802   11.4259  -16.2153 C   0  0  0  0  0  0  0  0  0  0  0  0
   36.5646   11.1226  -16.9197 N   0  0  0  0  0  0  0  0  0  0  0  0
   37.7591   11.6915  -16.6070 C   0  0  0  0  0  0  0  0  0  0  0  0
   37.8303   12.5692  -15.5685 C   0  0  0  0  0  0  0  0  0  0  0  0
   38.9007   11.2825  -17.4251 C   0  0  0  0  0  0  0  0  0  0  0  0
   40.0217   12.2710  -17.5121 C   0  0  0  0  0  0  0  0  0  0  0  0
   38.4569   10.9800  -18.7032 F   0  0  0  0  0  0  0  0  0  0  0  0
   39.3707   10.0806  -16.8890 F   0  0  0  0  0  0  0  0  0  0  0  0
 20 21  1  0  0  0
 21  8  1  0  0  0
  8  9  2  0  0  0
  9 10  1  0  0  0
 10 11  2  0  0  0
 11 12  1  0  0  0
 12 13  2  0  0  0
 13 14  1  0  0  0
 14 15  1  0  0  0
 15 16  1  0  0  0
 16 17  1  0  0  0
 17 18  1  0  0  0
 18 19  1  0  0  0
 11  1  1  0  0  0
  1  2  2  0  0  0
  2  3  1  0  0  0
  3 22  1  0  0  0
 22 23  1  0  0  0
 23 24  2  0  0  0
 23 26  1  0  0  0
 26 27  2  0  0  0
 27 28  1  0  0  0
 28 29  2  0  0  0
 29 30  1  0  0  0
 30 31  2  0  0  0
 30 32  1  0  0  0
 32 33  1  0  0  0
 32 34  1  0  0  0
 32 35  1  0  0  0
  3  4  2  0  0  0
  4  5  1  0  0  0
  5  6  2  0  0  0
  6  7  1  0  0  0
 13  8  1  0  0  0
 19 14  1  0  0  0
  6  1  1  0  0  0
 31 26  1  0  0  0
 22 25  1  0  0  0
M  END
> <minimizedAffinity>
-8.68108

> <CNNscore>
0.0853867978

> <CNNaffinity>
5.8130531311

> <CNN_VS>
0.4963579774

> <CNNaffinity_variance>
0.3780657649

$$$$
[H]c1nc(C(F)(F)C([H])([H])[H])c([H])c(C(=O)N([H])c2c([H])nc(C([H])([H])[H])c(-c3c([H])nc(OC([H])([H])[H])c(N4C([H])([H])C([H])([H])OC([H])([H])C4([H])[H])c3[H])c2[H])c1[H]


 35 38  0  0  0  0  0  0  0  0999 V2000
   37.0487   15.6145  -10.0254 C   0  0  0  0  0  0  0  0  0  0  0  0
   37.3513   15.1717  -11.3001 C   0  0  0  0  0  0  0  0  0  0  0  0
   36.4147   15.1050  -12.2975 C   0  0  0  0  0  0  0  0  0  0  0  0
   35.1286   15.5138  -11.9643 C   0  0  0  0  0  0  0  0  0  0  0  0
   34.8612   15.9331  -10.7285 N   0  0  0  0  0  0  0  0  0  0  0  0
   35.7583   15.9946   -9.7658 C   0  0  0  0  0  0  0  0  0  0  0  0
   35.3235   16.4369   -8.4176 C   0  0  0  0  0  0  0  0  0  0  0  0
   40.2797   15.6943   -7.3465 C   0  0  0  0  0  0  0  0  0  0  0  0
   40.4562   15.7902   -8.6716 N   0  0  0  0  0  0  0  0  0  0  0  0
   39.4109   15.7645   -9.5039 C   0  0  0  0  0  0  0  0  0  0  0  0
   38.1076   15.6378   -9.0592 C   0  0  0  0  0  0  0  0  0  0  0  0
   37.9636   15.5413   -7.6744 C   0  0  0  0  0  0  0  0  0  0  0  0
   39.0104   15.5632   -6.7819 C   0  0  0  0  0  0  0  0  0  0  0  0
   38.8539   15.4519   -5.4229 N   0  0  0  0  0  0  0  0  0  0  0  0
   38.6994   16.6585   -4.5761 C   0  0  0  0  0  0  0  0  0  0  0  0
   37.2091   16.6215   -4.2359 C   0  0  0  0  0  0  0  0  0  0  0  0
   36.6193   15.3960   -4.5554 O   0  0  0  0  0  0  0  0  0  0  0  0
   37.3506   14.2943   -4.0358 C   0  0  0  0  0  0  0  0  0  0  0  0
   38.7618   14.2622   -4.5982 C   0  0  0  0  0  0  0  0  0  0  0  0
   42.2365   16.8059   -6.3745 C   0  0  0  0  0  0  0  0  0  0  0  0
   41.3645   15.7231   -6.5417 O   0  0  0  0  0  0  0  0  0  0  0  0
   36.7407   14.6017  -13.6080 N   0  0  0  0  0  0  0  0  0  0  0  0
   36.3700   13.2885  -13.9243 C   0  0  0  0  0  0  0  0  0  0  0  0
   35.7547   12.6220  -12.9614 O   0  0  0  0  0  0  0  0  0  0  0  0
   37.2405   15.2288  -14.2493 H   0  0  0  0  0  0  0  0  0  0  0  0
   36.5297   12.5136  -15.1126 C   0  0  0  0  0  0  0  0  0  0  0  0
   35.4047   11.8518  -15.6265 C   0  0  0  0  0  0  0  0  0  0  0  0
   35.5253   11.0592  -16.7295 C   0  0  0  0  0  0  0  0  0  0  0  0
   36.6862   10.8826  -17.3502 N   0  0  0  0  0  0  0  0  0  0  0  0
   37.8043   11.5040  -16.8900 C   0  0  0  0  0  0  0  0  0  0  0  0
   37.7206   12.3035  -15.7910 C   0  0  0  0  0  0  0  0  0  0  0  0
   39.0396   11.2346  -17.6258 C   0  0  0  0  0  0  0  0  0  0  0  0
   40.0765   12.3128  -17.5663 C   0  0  0  0  0  0  0  0  0  0  0  0
   38.7292   10.9705  -18.9509 F   0  0  0  0  0  0  0  0  0  0  0  0
   39.5637   10.0457  -17.1115 F   0  0  0  0  0  0  0  0  0  0  0  0
 20 21  1  0  0  0
 21  8  1  0  0  0
  8  9  2  0  0  0
  9 10  1  0  0  0
 10 11  2  0  0  0
 11 12  1  0  0  0
 12 13  2  0  0  0
 13 14  1  0  0  0
 14 15  1  0  0  0
 15 16  1  0  0  0
 16 17  1  0  0  0
 17 18  1  0  0  0
 18 19  1  0  0  0
 11  1  1  0  0  0
  1  2  2  0  0  0
  2  3  1  0  0  0
  3 22  1  0  0  0
 22 23  1  0  0  0
 23 24  2  0  0  0
 23 26  1  0  0  0
 26 27  2  0  0  0
 27 28  1  0  0  0
 28 29  2  0  0  0
 29 30  1  0  0  0
 30 31  2  0  0  0
 30 32  1  0  0  0
 32 33  1  0  0  0
 32 34  1  0  0  0
 32 35  1  0  0  0
  3  4  2  0  0  0
  4  5  1  0  0  0
  5  6  2  0  0  0
  6  7  1  0  0  0
 13  8  1  0  0  0
 19 14  1  0  0  0
  6  1  1  0  0  0
 31 26  1  0  0  0
 22 25  1  0  0  0
M  END
> <minimizedAffinity>
-8.17599

> <CNNscore>
0.0796078891

> <CNNaffinity>
5.7008237839

> <CNN_VS>
0.4538305402

> <CNNaffinity_variance>
0.3765469491

$$$$
[H]c1nc(C(F)(F)C([H])([H])[H])c([H])c(C(=O)N([H])c2c([H])nc(C([H])([H])[H])c(-c3c([H])nc(OC([H])([H])[H])c(N4C([H])([H])C([H])([H])OC([H])([H])C4([H])[H])c3[H])c2[H])c1[H]


 35 38  0  0  0  0  0  0  0  0999 V2000
   34.7489   16.0056   -9.6305 C   0  0  0  0  0  0  0  0  0  0  0  0
   35.4751   15.6956  -10.7657 C   0  0  0  0  0  0  0  0  0  0  0  0
   34.8791   15.3278  -11.9430 C   0  0  0  0  0  0  0  0  0  0  0  0
   33.4897   15.2854  -11.9439 C   0  0  0  0  0  0  0  0  0  0  0  0
   32.8125   15.5852  -10.8367 N   0  0  0  0  0  0  0  0  0  0  0  0
   33.3825   15.9351   -9.7017 C   0  0  0  0  0  0  0  0  0  0  0  0
   32.5177   16.2005   -8.5253 C   0  0  0  0  0  0  0  0  0  0  0  0
   36.9001   16.8880   -6.1355 C   0  0  0  0  0  0  0  0  0  0  0  0
   36.6487   15.6268   -6.5125 N   0  0  0  0  0  0  0  0  0  0  0  0
   35.9633   15.3717   -7.6311 C   0  0  0  0  0  0  0  0  0  0  0  0
   35.4784   16.3731   -8.4523 C   0  0  0  0  0  0  0  0  0  0  0  0
   35.7602   17.6723   -8.0277 C   0  0  0  0  0  0  0  0  0  0  0  0
   36.4613   17.9803   -6.8847 C   0  0  0  0  0  0  0  0  0  0  0  0
   36.7175   19.2640   -6.4722 N   0  0  0  0  0  0  0  0  0  0  0  0
   37.8481   20.0329   -7.0445 C   0  0  0  0  0  0  0  0  0  0  0  0
   37.1299   21.0180   -7.9674 C   0  0  0  0  0  0  0  0  0  0  0  0
   35.7527   21.0585   -7.7362 O   0  0  0  0  0  0  0  0  0  0  0  0
   35.4422   21.2351   -6.3611 C   0  0  0  0  0  0  0  0  0  0  0  0
   35.9940   20.0918   -5.5261 C   0  0  0  0  0  0  0  0  0  0  0  0
   38.9835   16.9928   -4.8478 C   0  0  0  0  0  0  0  0  0  0  0  0
   37.5954   17.1005   -4.9966 O   0  0  0  0  0  0  0  0  0  0  0  0
   35.6550   14.9686  -13.1032 N   0  0  0  0  0  0  0  0  0  0  0  0
   35.9576   13.6159  -13.3047 C   0  0  0  0  0  0  0  0  0  0  0  0
   35.5010   12.7857  -12.3816 O   0  0  0  0  0  0  0  0  0  0  0  0
   35.9596   15.7255  -13.7265 H   0  0  0  0  0  0  0  0  0  0  0  0
   36.6781   12.9448  -14.3383 C   0  0  0  0  0  0  0  0  0  0  0  0
   38.0664   13.1337  -14.4064 C   0  0  0  0  0  0  0  0  0  0  0  0
   38.7847   12.5530  -15.4095 C   0  0  0  0  0  0  0  0  0  0  0  0
   38.2144   11.8016  -16.3445 N   0  0  0  0  0  0  0  0  0  0  0  0
   36.8719   11.5887  -16.3199 C   0  0  0  0  0  0  0  0  0  0  0  0
   36.1234   12.1527  -15.3321 C   0  0  0  0  0  0  0  0  0  0  0  0
   36.3308   10.7648  -17.4008 C   0  0  0  0  0  0  0  0  0  0  0  0
   35.3165    9.7431  -16.9900 C   0  0  0  0  0  0  0  0  0  0  0  0
   37.3767   10.1337  -18.0564 F   0  0  0  0  0  0  0  0  0  0  0  0
   35.7685   11.6412  -18.3327 F   0  0  0  0  0  0  0  0  0  0  0  0
 20 21  1  0  0  0
 21  8  1  0  0  0
  8  9  2  0  0  0
  9 10  1  0  0  0
 10 11  2  0  0  0
 11 12  1  0  0  0
 12 13  2  0  0  0
 13 14  1  0  0  0
 14 15  1  0  0  0
 15 16  1  0  0  0
 16 17  1  0  0  0
 17 18  1  0  0  0
 18 19  1  0  0  0
 11  1  1  0  0  0
  1  2  2  0  0  0
  2  3  1  0  0  0
  3 22  1  0  0  0
 22 23  1  0  0  0
 23 24  2  0  0  0
 23 26  1  0  0  0
 26 27  2  0  0  0
 27 28  1  0  0  0
 28 29  2  0  0  0
 29 30  1  0  0  0
 30 31  2  0  0  0
 30 32  1  0  0  0
 32 33  1  0  0  0
 32 34  1  0  0  0
 32 35  1  0  0  0
  3  4  2  0  0  0
  4  5  1  0  0  0
  5  6  2  0  0  0
  6  7  1  0  0  0
 13  8  1  0  0  0
 19 14  1  0  0  0
  6  1  1  0  0  0
 31 26  1  0  0  0
 22 25  1  0  0  0
M  END
> <minimizedAffinity>
-7.70690

> <CNNscore>
0.0767441243

> <CNNaffinity>
6.1094174385

> <CNN_VS>
0.4688618779

> <CNNaffinity_variance>
0.2309662849

$$$$
[H]OC(=O)c1c([H])c([H])c(/C([H])=C(\[H])C(=O)N([H])[C@]([H])(c2c([H])c([H])c([H])c(-c3c([H])c([H])c([H])c([H])c3[H])c2[H])C([H])([H])[H])c([H])c1[H]


 30 32  0  0  0  0  0  0  0  0999 V2000
   38.2337   14.0591  -12.2356 N   0  0  0  0  0  0  0  0  0  0  0  0
   38.9180   14.7999  -13.2082 C   0  0  0  0  0  0  0  0  0  0  0  0
   38.2990   15.6111  -13.9836 O   0  0  0  0  0  0  0  0  0  0  0  0
   38.7222   13.4071  -11.6096 H   0  0  0  0  0  0  0  0  0  0  0  0
   36.4838   15.6931  -12.2773 C   0  0  0  0  0  0  0  0  0  0  0  0
   36.8020   14.2129  -12.1057 C   0  0  0  0  0  0  0  0  0  0  0  0
   36.1357   13.4715  -13.2108 C   0  0  0  0  0  0  0  0  0  0  0  0
   34.7472   13.3069  -13.2078 C   0  0  0  0  0  0  0  0  0  0  0  0
   34.1732   12.6255  -14.2354 C   0  0  0  0  0  0  0  0  0  0  0  0
   34.9235   12.0991  -15.2687 C   0  0  0  0  0  0  0  0  0  0  0  0
   36.2954   12.2433  -15.3023 C   0  0  0  0  0  0  0  0  0  0  0  0
   36.8743   12.9449  -14.2420 C   0  0  0  0  0  0  0  0  0  0  0  0
   37.1075   11.6973  -16.3840 C   0  0  0  0  0  0  0  0  0  0  0  0
   38.4675   11.9209  -16.4067 C   0  0  0  0  0  0  0  0  0  0  0  0
   39.2484   11.4020  -17.4365 C   0  0  0  0  0  0  0  0  0  0  0  0
   38.6999   10.6611  -18.4501 C   0  0  0  0  0  0  0  0  0  0  0  0
   37.3427   10.4333  -18.4350 C   0  0  0  0  0  0  0  0  0  0  0  0
   36.5849   10.9484  -17.4172 C   0  0  0  0  0  0  0  0  0  0  0  0
   40.3712   14.6777  -13.3793 C   0  0  0  0  0  0  0  0  0  0  0  0
   40.9741   13.7724  -14.1006 C   0  0  0  0  0  0  0  0  0  0  0  0
   42.4127   13.6746  -14.2522 C   0  0  0  0  0  0  0  0  0  0  0  0
   43.3040   13.9716  -13.2599 C   0  0  0  0  0  0  0  0  0  0  0  0
   44.6852   13.8556  -13.4745 C   0  0  0  0  0  0  0  0  0  0  0  0
   45.1970   13.4415  -14.6817 C   0  0  0  0  0  0  0  0  0  0  0  0
   44.3078   13.1390  -15.6909 C   0  0  0  0  0  0  0  0  0  0  0  0
   42.9562   13.2555  -15.4720 C   0  0  0  0  0  0  0  0  0  0  0  0
   46.6429   13.3312  -14.8722 C   0  0  0  0  0  0  0  0  0  0  0  0
   47.5480   14.0211  -14.0871 O   0  0  0  0  0  0  0  0  0  0  0  0
   47.0766   12.5833  -15.7816 O   0  0  0  0  0  0  0  0  0  0  0  0
   47.4665   15.0047  -13.8635 H   0  0  0  0  0  0  0  0  0  0  0  0
  5  6  1  0  0  0
  6  1  1  0  0  0
  1  2  1  0  0  0
  2  3  2  0  0  0
  2 19  1  0  0  0
 19 20  2  0  0  0
 20 21  1  0  0  0
 21 22  2  0  0  0
 22 23  1  0  0  0
 23 24  2  0  0  0
 24 25  1  0  0  0
 25 26  2  0  0  0
 24 27  1  0  0  0
 27 28  1  0  0  0
 27 29  2  0  0  0
  6  7  1  0  0  0
  7  8  2  0  0  0
  8  9  1  0  0  0
  9 10  2  0  0  0
 10 11  1  0  0  0
 11 12  2  0  0  0
 11 13  1  0  0  0
 13 14  2  0  0  0
 14 15  1  0  0  0
 15 16  2  0  0  0
 16 17  1  0  0  0
 17 18  2  0  0  0
 26 21  1  0  0  0
 12  7  1  0  0  0
 18 13  1  0  0  0
  1  4  1  0  0  0
 28 30  1  0  0  0
M  END
> <minimizedAffinity>
-9.08098

> <CNNscore>
0.4499829113

> <CNNaffinity>
6.2378001213

> <CNN_VS>
2.8069033623

> <CNNaffinity_variance>
0.0812053829

$$$$
[H]OC(=O)c1c([H])c([H])c(/C([H])=C(\[H])C(=O)N([H])[C@]([H])(c2c([H])c([H])c([H])c(-c3c([H])c([H])c([H])c([H])c3[H])c2[H])C([H])([H])[H])c([H])c1[H]


 30 32  0  0  0  0  0  0  0  0999 V2000
   38.8616   11.5456  -17.0312 N   0  0  0  0  0  0  0  0  0  0  0  0
   39.9999   11.7926  -17.8099 C   0  0  0  0  0  0  0  0  0  0  0  0
   39.9170   11.9415  -19.0801 O   0  0  0  0  0  0  0  0  0  0  0  0
   38.9190   11.4256  -16.0125 H   0  0  0  0  0  0  0  0  0  0  0  0
   37.3898   10.0172  -18.1410 C   0  0  0  0  0  0  0  0  0  0  0  0
   37.5696   11.4563  -17.6741 C   0  0  0  0  0  0  0  0  0  0  0  0
   36.5106   11.7462  -16.6693 C   0  0  0  0  0  0  0  0  0  0  0  0
   35.2687   11.1097  -16.7557 C   0  0  0  0  0  0  0  0  0  0  0  0
   34.3263   11.3979  -15.8185 C   0  0  0  0  0  0  0  0  0  0  0  0
   34.5670   12.2949  -14.7961 C   0  0  0  0  0  0  0  0  0  0  0  0
   35.7813   12.9403  -14.6818 C   0  0  0  0  0  0  0  0  0  0  0  0
   36.7418   12.6367  -15.6497 C   0  0  0  0  0  0  0  0  0  0  0  0
   36.0581   13.8899  -13.6098 C   0  0  0  0  0  0  0  0  0  0  0  0
   37.3474   14.3244  -13.3884 C   0  0  0  0  0  0  0  0  0  0  0  0
   37.6183   15.2312  -12.3667 C   0  0  0  0  0  0  0  0  0  0  0  0
   36.6262   15.7171  -11.5562 C   0  0  0  0  0  0  0  0  0  0  0  0
   35.3361   15.2883  -11.7705 C   0  0  0  0  0  0  0  0  0  0  0  0
   35.0817   14.3965  -12.7782 C   0  0  0  0  0  0  0  0  0  0  0  0
   41.3336   11.8910  -17.2035 C   0  0  0  0  0  0  0  0  0  0  0  0
   41.7084   12.7992  -16.3446 C   0  0  0  0  0  0  0  0  0  0  0  0
   43.0336   12.8732  -15.7610 C   0  0  0  0  0  0  0  0  0  0  0  0
   44.1677   12.4462  -16.3924 C   0  0  0  0  0  0  0  0  0  0  0  0
   45.4200   12.5466  -15.7690 C   0  0  0  0  0  0  0  0  0  0  0  0
   45.5591   13.0742  -14.5069 C   0  0  0  0  0  0  0  0  0  0  0  0
   44.4220   13.5085  -13.8592 C   0  0  0  0  0  0  0  0  0  0  0  0
   43.1991   13.4063  -14.4775 C   0  0  0  0  0  0  0  0  0  0  0  0
   46.8799   13.1646  -13.8853 C   0  0  0  0  0  0  0  0  0  0  0  0
   47.2531   14.2332  -13.0914 O   0  0  0  0  0  0  0  0  0  0  0  0
   47.7034   12.2383  -14.0804 O   0  0  0  0  0  0  0  0  0  0  0  0
   47.1006   15.2020  -13.3409 H   0  0  0  0  0  0  0  0  0  0  0  0
  5  6  1  0  0  0
  6  1  1  0  0  0
  1  2  1  0  0  0
  2  3  2  0  0  0
  2 19  1  0  0  0
 19 20  2  0  0  0
 20 21  1  0  0  0
 21 22  2  0  0  0
 22 23  1  0  0  0
 23 24  2  0  0  0
 24 25  1  0  0  0
 25 26  2  0  0  0
 24 27  1  0  0  0
 27 28  1  0  0  0
 27 29  2  0  0  0
  6  7  1  0  0  0
  7  8  2  0  0  0
  8  9  1  0  0  0
  9 10  2  0  0  0
 10 11  1  0  0  0
 11 12  2  0  0  0
 11 13  1  0  0  0
 13 14  2  0  0  0
 14 15  1  0  0  0
 15 16  2  0  0  0
 16 17  1  0  0  0
 17 18  2  0  0  0
 26 21  1  0  0  0
 12  7  1  0  0  0
 18 13  1  0  0  0
  1  4  1  0  0  0
 28 30  1  0  0  0
M  END
> <minimizedAffinity>
-8.86133

> <CNNscore>
0.4116383791

> <CNNaffinity>
6.1721820831

> <CNN_VS>
2.5407071114

> <CNNaffinity_variance>
0.1392931938

$$$$
[H]OC(=O)c1c([H])c([H])c(/C([H])=C(\[H])C(=O)N([H])[C@]([H])(c2c([H])c([H])c([H])c(-c3c([H])c([H])c([H])c([H])c3[H])c2[H])C([H])([H])[H])c([H])c1[H]


 30 32  0  0  0  0  0  0  0  0999 V2000
   38.4534   11.4422  -17.0947 N   0  0  0  0  0  0  0  0  0  0  0  0
   39.5028   11.4448  -18.0230 C   0  0  0  0  0  0  0  0  0  0  0  0
   39.2918   11.2122  -19.2656 O   0  0  0  0  0  0  0  0  0  0  0  0
   38.6136   11.6282  -16.0971 H   0  0  0  0  0  0  0  0  0  0  0  0
   36.9718    9.6609  -17.6997 C   0  0  0  0  0  0  0  0  0  0  0  0
   37.1076   11.1709  -17.5481 C   0  0  0  0  0  0  0  0  0  0  0  0
   36.1479   11.6128  -16.4998 C   0  0  0  0  0  0  0  0  0  0  0  0
   34.8425   11.1120  -16.4879 C   0  0  0  0  0  0  0  0  0  0  0  0
   33.9943   11.5369  -15.5135 C   0  0  0  0  0  0  0  0  0  0  0  0
   34.3902   12.4414  -14.5476 C   0  0  0  0  0  0  0  0  0  0  0  0
   35.6708   12.9551  -14.5304 C   0  0  0  0  0  0  0  0  0  0  0  0
   36.5334   12.5118  -15.5358 C   0  0  0  0  0  0  0  0  0  0  0  0
   36.1111   13.9099  -13.5194 C   0  0  0  0  0  0  0  0  0  0  0  0
   37.4509   14.2052  -13.3858 C   0  0  0  0  0  0  0  0  0  0  0  0
   37.8776   15.1161  -12.4227 C   0  0  0  0  0  0  0  0  0  0  0  0
   36.9928   15.7426  -11.5849 C   0  0  0  0  0  0  0  0  0  0  0  0
   35.6533   15.4533  -11.7116 C   0  0  0  0  0  0  0  0  0  0  0  0
   35.2453   14.5560  -12.6623 C   0  0  0  0  0  0  0  0  0  0  0  0
   40.8863   11.7139  -17.6113 C   0  0  0  0  0  0  0  0  0  0  0  0
   41.2423   12.4097  -16.5662 C   0  0  0  0  0  0  0  0  0  0  0  0
   42.6178   12.6603  -16.1824 C   0  0  0  0  0  0  0  0  0  0  0  0
   42.9833   13.4932  -15.1626 C   0  0  0  0  0  0  0  0  0  0  0  0
   44.3348   13.6914  -14.8442 C   0  0  0  0  0  0  0  0  0  0  0  0
   45.3410   13.0616  -15.5383 C   0  0  0  0  0  0  0  0  0  0  0  0
   44.9850   12.2188  -16.5697 C   0  0  0  0  0  0  0  0  0  0  0  0
   43.6584   12.0305  -16.8749 C   0  0  0  0  0  0  0  0  0  0  0  0
   46.7405   13.2902  -15.1804 C   0  0  0  0  0  0  0  0  0  0  0  0
   47.2838   14.5583  -15.0893 O   0  0  0  0  0  0  0  0  0  0  0  0
   47.4738   12.2990  -14.9480 O   0  0  0  0  0  0  0  0  0  0  0  0
   47.1519   15.2802  -15.7861 H   0  0  0  0  0  0  0  0  0  0  0  0
  5  6  1  0  0  0
  6  1  1  0  0  0
  1  2  1  0  0  0
  2  3  2  0  0  0
  2 19  1  0  0  0
 19 20  2  0  0  0
 20 21  1  0  0  0
 21 22  2  0  0  0
 22 23  1  0  0  0
 23 24  2  0  0  0
 24 25  1  0  0  0
 25 26  2  0  0  0
 24 27  1  0  0  0
 27 28  1  0  0  0
 27 29  2  0  0  0
  6  7  1  0  0  0
  7  8  2  0  0  0
  8  9  1  0  0  0
  9 10  2  0  0  0
 10 11  1  0  0  0
 11 12  2  0  0  0
 11 13  1  0  0  0
 13 14  2  0  0  0
 14 15  1  0  0  0
 15 16  2  0  0  0
 16 17  1  0  0  0
 17 18  2  0  0  0
 26 21  1  0  0  0
 12  7  1  0  0  0
 18 13  1  0  0  0
  1  4  1  0  0  0
 28 30  1  0  0  0
M  END
> <minimizedAffinity>
-9.18937

> <CNNscore>
0.3496410549

> <CNNaffinity>
6.2018041611

> <CNN_VS>
2.1684052944

> <CNNaffinity_variance>
0.0677813813

$$$$
[H]OC(=O)c1c([H])c([H])c(/C([H])=C(\[H])C(=O)N([H])[C@]([H])(c2c([H])c([H])c([H])c(-c3c([H])c([H])c([H])c([H])c3[H])c2[H])C([H])([H])[H])c([H])c1[H]


 30 32  0  0  0  0  0  0  0  0999 V2000
   38.7451   11.4323  -17.2470 N   0  0  0  0  0  0  0  0  0  0  0  0
   39.8056   11.5888  -18.1491 C   0  0  0  0  0  0  0  0  0  0  0  0
   39.6191   11.5095  -19.4146 O   0  0  0  0  0  0  0  0  0  0  0  0
   38.8856   11.4950  -16.2311 H   0  0  0  0  0  0  0  0  0  0  0  0
   37.2830    9.6703  -17.9479 C   0  0  0  0  0  0  0  0  0  0  0  0
   37.4158   11.1758  -17.7544 C   0  0  0  0  0  0  0  0  0  0  0  0
   36.4202   11.5941  -16.7302 C   0  0  0  0  0  0  0  0  0  0  0  0
   35.1173   11.0884  -16.7708 C   0  0  0  0  0  0  0  0  0  0  0  0
   34.2356   11.4916  -15.8171 C   0  0  0  0  0  0  0  0  0  0  0  0
   34.5956   12.3792  -14.8218 C   0  0  0  0  0  0  0  0  0  0  0  0
   35.8727   12.8972  -14.7527 C   0  0  0  0  0  0  0  0  0  0  0  0
   36.7698   12.4762  -15.7373 C   0  0  0  0  0  0  0  0  0  0  0  0
   36.2753   13.8343  -13.7100 C   0  0  0  0  0  0  0  0  0  0  0  0
   35.3304   14.3714  -12.8622 C   0  0  0  0  0  0  0  0  0  0  0  0
   35.7085   15.2664  -11.8644 C   0  0  0  0  0  0  0  0  0  0  0  0
   37.0154   15.6401  -11.6926 C   0  0  0  0  0  0  0  0  0  0  0  0
   37.9651   15.1085  -12.5350 C   0  0  0  0  0  0  0  0  0  0  0  0
   37.5816   14.2293  -13.5123 C   0  0  0  0  0  0  0  0  0  0  0  0
   41.1732   11.8498  -17.6826 C   0  0  0  0  0  0  0  0  0  0  0  0
   41.4906   12.4186  -16.5518 C   0  0  0  0  0  0  0  0  0  0  0  0
   42.8512   12.6646  -16.1155 C   0  0  0  0  0  0  0  0  0  0  0  0
   43.1744   13.4021  -15.0115 C   0  0  0  0  0  0  0  0  0  0  0  0
   44.5137   13.6018  -14.6459 C   0  0  0  0  0  0  0  0  0  0  0  0
   45.5496   13.0686  -15.3761 C   0  0  0  0  0  0  0  0  0  0  0  0
   45.2364   12.3225  -16.4924 C   0  0  0  0  0  0  0  0  0  0  0  0
   43.9216   12.1320  -16.8434 C   0  0  0  0  0  0  0  0  0  0  0  0
   46.9354   13.2958  -14.9672 C   0  0  0  0  0  0  0  0  0  0  0  0
   47.8418   12.2628  -14.8165 O   0  0  0  0  0  0  0  0  0  0  0  0
   47.3142   14.4712  -14.7452 O   0  0  0  0  0  0  0  0  0  0  0  0
   47.6417   11.4045  -14.3192 H   0  0  0  0  0  0  0  0  0  0  0  0
  5  6  1  0  0  0
  6  1  1  0  0  0
  1  2  1  0  0  0
  2  3  2  0  0  0
  2 19  1  0  0  0
 19 20  2  0  0  0
 20 21  1  0  0  0
 21 22  2  0  0  0
 22 23  1  0  0  0
 23 24  2  0  0  0
 24 25  1  0  0  0
 25 26  2  0  0  0
 24 27  1  0  0  0
 27 28  1  0  0  0
 27 29  2  0  0  0
  6  7  1  0  0  0
  7  8  2  0  0  0
  8  9  1  0  0  0
  9 10  2  0  0  0
 10 11  1  0  0  0
 11 12  2  0  0  0
 11 13  1  0  0  0
 13 14  2  0  0  0
 14 15  1  0  0  0
 15 16  2  0  0  0
 16 17  1  0  0  0
 17 18  2  0  0  0
 26 21  1  0  0  0
 12  7  1  0  0  0
 18 13  1  0  0  0
  1  4  1  0  0  0
 28 30  1  0  0  0
M  END
> <minimizedAffinity>
-9.01819

> <CNNscore>
0.3136138916

> <CNNaffinity>
6.1471028328

> <CNN_VS>
1.9278168678

> <CNNaffinity_variance>
0.1201688051

$$$$
[H]OC(=O)c1c([H])c([H])c(/C([H])=C(\[H])C(=O)N([H])[C@]([H])(c2c([H])c([H])c([H])c(-c3c([H])c([H])c([H])c([H])c3[H])c2[H])C([H])([H])[H])c([H])c1[H]


 30 32  0  0  0  0  0  0  0  0999 V2000
   42.3840   13.0463  -14.5375 N   0  0  0  0  0  0  0  0  0  0  0  0
   43.3421   13.7925  -13.8387 C   0  0  0  0  0  0  0  0  0  0  0  0
   44.1751   14.5474  -14.4539 O   0  0  0  0  0  0  0  0  0  0  0  0
   41.7121   12.4392  -14.0522 H   0  0  0  0  0  0  0  0  0  0  0  0
   43.4804   12.2850  -16.5255 C   0  0  0  0  0  0  0  0  0  0  0  0
   42.3357   13.1298  -15.9801 C   0  0  0  0  0  0  0  0  0  0  0  0
   41.0590   12.5300  -16.4548 C   0  0  0  0  0  0  0  0  0  0  0  0
   41.0028   11.8934  -17.6984 C   0  0  0  0  0  0  0  0  0  0  0  0
   39.8195   11.3551  -18.0979 C   0  0  0  0  0  0  0  0  0  0  0  0
   38.6863   11.4234  -17.3111 C   0  0  0  0  0  0  0  0  0  0  0  0
   38.7071   12.0443  -16.0790 C   0  0  0  0  0  0  0  0  0  0  0  0
   39.9277   12.5936  -15.6788 C   0  0  0  0  0  0  0  0  0  0  0  0
   37.5234   12.1269  -15.2309 C   0  0  0  0  0  0  0  0  0  0  0  0
   37.6563   12.1327  -13.8589 C   0  0  0  0  0  0  0  0  0  0  0  0
   36.5299   12.2118  -13.0436 C   0  0  0  0  0  0  0  0  0  0  0  0
   35.2668   12.2854  -13.5692 C   0  0  0  0  0  0  0  0  0  0  0  0
   35.1253   12.2800  -14.9382 C   0  0  0  0  0  0  0  0  0  0  0  0
   36.2400   12.2021  -15.7298 C   0  0  0  0  0  0  0  0  0  0  0  0
   43.4314   13.7404  -12.3740 C   0  0  0  0  0  0  0  0  0  0  0  0
   44.1834   12.9211  -11.6910 C   0  0  0  0  0  0  0  0  0  0  0  0
   44.2522   12.8911  -10.2431 C   0  0  0  0  0  0  0  0  0  0  0  0
   43.3792   13.5528   -9.4262 C   0  0  0  0  0  0  0  0  0  0  0  0
   43.5037   13.4814   -8.0311 C   0  0  0  0  0  0  0  0  0  0  0  0
   44.5006   12.7490   -7.4307 C   0  0  0  0  0  0  0  0  0  0  0  0
   45.3880   12.0770   -8.2442 C   0  0  0  0  0  0  0  0  0  0  0  0
   45.2586   12.1525   -9.6102 C   0  0  0  0  0  0  0  0  0  0  0  0
   44.6022   12.6956   -5.9727 C   0  0  0  0  0  0  0  0  0  0  0  0
   43.7031   13.3404   -5.1436 O   0  0  0  0  0  0  0  0  0  0  0  0
   45.5398   12.0406   -5.4565 O   0  0  0  0  0  0  0  0  0  0  0  0
   43.4040   14.2986   -5.2721 H   0  0  0  0  0  0  0  0  0  0  0  0
  5  6  1  0  0  0
  6  1  1  0  0  0
  1  2  1  0  0  0
  2  3  2  0  0  0
  2 19  1  0  0  0
 19 20  2  0  0  0
 20 21  1  0  0  0
 21 22  2  0  0  0
 22 23  1  0  0  0
 23 24  2  0  0  0
 24 25  1  0  0  0
 25 26  2  0  0  0
 24 27  1  0  0  0
 27 28  1  0  0  0
 27 29  2  0  0  0
  6  7  1  0  0  0
  7  8  2  0  0  0
  8  9  1  0  0  0
  9 10  2  0  0  0
 10 11  1  0  0  0
 11 12  2  0  0  0
 11 13  1  0  0  0
 13 14  2  0  0  0
 14 15  1  0  0  0
 15 16  2  0  0  0
 16 17  1  0  0  0
 17 18  2  0  0  0
 26 21  1  0  0  0
 12  7  1  0  0  0
 18 13  1  0  0  0
  1  4  1  0  0  0
 28 30  1  0  0  0
M  END
> <minimizedAffinity>
-8.47706

> <CNNscore>
0.2935264707

> <CNNaffinity>
5.6289734840

> <CNN_VS>
1.6522526741

> <CNNaffinity_variance>
0.1323485970

$$$$
[H]OC(=O)c1c([H])c([H])c(/C([H])=C(\[H])C(=O)N([H])[C@]([H])(c2c([H])c([H])c([H])c(-c3c([H])c([H])c([H])c([H])c3[H])c2[H])C([H])([H])[H])c([H])c1[H]


 30 32  0  0  0  0  0  0  0  0999 V2000
   39.6542   14.1725  -13.4324 N   0  0  0  0  0  0  0  0  0  0  0  0
   39.6647   15.3786  -12.7195 C   0  0  0  0  0  0  0  0  0  0  0  0
   40.3675   16.3762  -13.1110 O   0  0  0  0  0  0  0  0  0  0  0  0
   39.0932   13.3681  -13.1260 H   0  0  0  0  0  0  0  0  0  0  0  0
   41.7987   13.4642  -14.2279 C   0  0  0  0  0  0  0  0  0  0  0  0
   40.4523   14.0520  -14.6319 C   0  0  0  0  0  0  0  0  0  0  0  0
   39.7922   13.0891  -15.5550 C   0  0  0  0  0  0  0  0  0  0  0  0
   40.5366   12.4489  -16.5505 C   0  0  0  0  0  0  0  0  0  0  0  0
   39.8998   11.5738  -17.3741 C   0  0  0  0  0  0  0  0  0  0  0  0
   38.5502   11.3077  -17.2495 C   0  0  0  0  0  0  0  0  0  0  0  0
   37.7864   11.9221  -16.2784 C   0  0  0  0  0  0  0  0  0  0  0  0
   38.4507   12.8189  -15.4381 C   0  0  0  0  0  0  0  0  0  0  0  0
   36.3604   11.6553  -16.1275 C   0  0  0  0  0  0  0  0  0  0  0  0
   35.7221   10.7998  -16.9998 C   0  0  0  0  0  0  0  0  0  0  0  0
   34.3608   10.5406  -16.8609 C   0  0  0  0  0  0  0  0  0  0  0  0
   33.6176   11.1192  -15.8659 C   0  0  0  0  0  0  0  0  0  0  0  0
   34.2472   11.9747  -14.9907 C   0  0  0  0  0  0  0  0  0  0  0  0
   35.5862   12.2219  -15.1370 C   0  0  0  0  0  0  0  0  0  0  0  0
   38.8718   15.5494  -11.4955 C   0  0  0  0  0  0  0  0  0  0  0  0
   37.5834   15.3662  -11.3976 C   0  0  0  0  0  0  0  0  0  0  0  0
   36.8245   15.5424  -10.1748 C   0  0  0  0  0  0  0  0  0  0  0  0
   35.6863   16.2935  -10.0874 C   0  0  0  0  0  0  0  0  0  0  0  0
   35.0005   16.4225   -8.8708 C   0  0  0  0  0  0  0  0  0  0  0  0
   35.4400   15.8040   -7.7240 C   0  0  0  0  0  0  0  0  0  0  0  0
   36.5874   15.0434   -7.7993 C   0  0  0  0  0  0  0  0  0  0  0  0
   37.2531   14.9225   -8.9953 C   0  0  0  0  0  0  0  0  0  0  0  0
   34.7011   15.9591   -6.4714 C   0  0  0  0  0  0  0  0  0  0  0  0
   34.6606   14.9682   -5.5081 O   0  0  0  0  0  0  0  0  0  0  0  0
   34.0816   17.0305   -6.2647 O   0  0  0  0  0  0  0  0  0  0  0  0
   34.4797   13.9930   -5.7088 H   0  0  0  0  0  0  0  0  0  0  0  0
  5  6  1  0  0  0
  6  1  1  0  0  0
  1  2  1  0  0  0
  2  3  2  0  0  0
  2 19  1  0  0  0
 19 20  2  0  0  0
 20 21  1  0  0  0
 21 22  2  0  0  0
 22 23  1  0  0  0
 23 24  2  0  0  0
 24 25  1  0  0  0
 25 26  2  0  0  0
 24 27  1  0  0  0
 27 28  1  0  0  0
 27 29  2  0  0  0
  6  7  1  0  0  0
  7  8  2  0  0  0
  8  9  1  0  0  0
  9 10  2  0  0  0
 10 11  1  0  0  0
 11 12  2  0  0  0
 11 13  1  0  0  0
 13 14  2  0  0  0
 14 15  1  0  0  0
 15 16  2  0  0  0
 16 17  1  0  0  0
 17 18  2  0  0  0
 26 21  1  0  0  0
 12  7  1  0  0  0
 18 13  1  0  0  0
  1  4  1  0  0  0
 28 30  1  0  0  0
M  END
> <minimizedAffinity>
-9.30922

> <CNNscore>
0.2614172995

> <CNNaffinity>
5.5616202354

> <CNN_VS>
1.4539037943

> <CNNaffinity_variance>
0.3616711497

$$$$
[H]OC(=O)c1c([H])c([H])c(/C([H])=C(\[H])C(=O)N([H])[C@]([H])(c2c([H])c([H])c([H])c(-c3c([H])c([H])c([H])c([H])c3[H])c2[H])C([H])([H])[H])c([H])c1[H]


 30 32  0  0  0  0  0  0  0  0999 V2000
   38.9343   14.5620  -12.3301 N   0  0  0  0  0  0  0  0  0  0  0  0
   38.7790   15.5371  -11.3361 C   0  0  0  0  0  0  0  0  0  0  0  0
   39.2224   16.7286  -11.4985 O   0  0  0  0  0  0  0  0  0  0  0  0
   38.5814   13.6048  -12.2084 H   0  0  0  0  0  0  0  0  0  0  0  0
   41.1072   14.8467  -13.2950 C   0  0  0  0  0  0  0  0  0  0  0  0
   39.6083   14.9074  -13.5617 C   0  0  0  0  0  0  0  0  0  0  0  0
   39.2858   13.8821  -14.5912 C   0  0  0  0  0  0  0  0  0  0  0  0
   40.2879   13.3992  -15.4383 C   0  0  0  0  0  0  0  0  0  0  0  0
   39.9562   12.4612  -16.3655 C   0  0  0  0  0  0  0  0  0  0  0  0
   38.6666   11.9816  -16.4864 C   0  0  0  0  0  0  0  0  0  0  0  0
   37.6541   12.4367  -15.6668 C   0  0  0  0  0  0  0  0  0  0  0  0
   38.0061   13.4000  -14.7182 C   0  0  0  0  0  0  0  0  0  0  0  0
   36.2858   11.9435  -15.7756 C   0  0  0  0  0  0  0  0  0  0  0  0
   35.3316   12.3487  -14.8670 C   0  0  0  0  0  0  0  0  0  0  0  0
   34.0233   11.8817  -14.9657 C   0  0  0  0  0  0  0  0  0  0  0  0
   33.6433   11.0144  -15.9559 C   0  0  0  0  0  0  0  0  0  0  0  0
   34.5899   10.6048  -16.8672 C   0  0  0  0  0  0  0  0  0  0  0  0
   35.8732   11.0707  -16.7603 C   0  0  0  0  0  0  0  0  0  0  0  0
   38.1027   15.2347  -10.0683 C   0  0  0  0  0  0  0  0  0  0  0  0
   36.8106   15.1652   -9.8986 C   0  0  0  0  0  0  0  0  0  0  0  0
   36.1685   14.8644   -8.6339 C   0  0  0  0  0  0  0  0  0  0  0  0
   36.8034   14.2670   -7.5816 C   0  0  0  0  0  0  0  0  0  0  0  0
   36.1214   14.0037   -6.3847 C   0  0  0  0  0  0  0  0  0  0  0  0
   34.7965   14.3327   -6.2201 C   0  0  0  0  0  0  0  0  0  0  0  0
   34.1447   14.9360   -7.2747 C   0  0  0  0  0  0  0  0  0  0  0  0
   34.8206   15.1901   -8.4438 C   0  0  0  0  0  0  0  0  0  0  0  0
   34.1149   14.0444   -4.9587 C   0  0  0  0  0  0  0  0  0  0  0  0
   34.7810   14.0127   -3.7475 O   0  0  0  0  0  0  0  0  0  0  0  0
   32.8810   13.8175   -4.9774 O   0  0  0  0  0  0  0  0  0  0  0  0
   35.6572   13.5291   -3.5978 H   0  0  0  0  0  0  0  0  0  0  0  0
  5  6  1  0  0  0
  6  1  1  0  0  0
  1  2  1  0  0  0
  2  3  2  0  0  0
  2 19  1  0  0  0
 19 20  2  0  0  0
 20 21  1  0  0  0
 21 22  2  0  0  0
 22 23  1  0  0  0
 23 24  2  0  0  0
 24 25  1  0  0  0
 25 26  2  0  0  0
 24 27  1  0  0  0
 27 28  1  0  0  0
 27 29  2  0  0  0
  6  7  1  0  0  0
  7  8  2  0  0  0
  8  9  1  0  0  0
  9 10  2  0  0  0
 10 11  1  0  0  0
 11 12  2  0  0  0
 11 13  1  0  0  0
 13 14  2  0  0  0
 14 15  1  0  0  0
 15 16  2  0  0  0
 16 17  1  0  0  0
 17 18  2  0  0  0
 26 21  1  0  0  0
 12  7  1  0  0  0
 18 13  1  0  0  0
  1  4  1  0  0  0
 28 30  1  0  0  0
M  END
> <minimizedAffinity>
-9.45552

> <CNNscore>
0.2311775982

> <CNNaffinity>
5.4836235046

> <CNN_VS>
1.2676908970

> <CNNaffinity_variance>
0.2478337288

$$$$
[H]OC(=O)c1c([H])c([H])c(/C([H])=C(\[H])C(=O)N([H])[C@]([H])(c2c([H])c([H])c([H])c(-c3c([H])c([H])c([H])c([H])c3[H])c2[H])C([H])([H])[H])c([H])c1[H]


 30 32  0  0  0  0  0  0  0  0999 V2000
   40.7798   12.5083  -15.8713 N   0  0  0  0  0  0  0  0  0  0  0  0
   40.8090   13.6844  -15.1105 C   0  0  0  0  0  0  0  0  0  0  0  0
   40.2519   14.7604  -15.5282 O   0  0  0  0  0  0  0  0  0  0  0  0
   41.2232   11.6413  -15.5438 H   0  0  0  0  0  0  0  0  0  0  0  0
   40.8506   11.5346  -18.0578 C   0  0  0  0  0  0  0  0  0  0  0  0
   40.1090   12.5099  -17.1521 C   0  0  0  0  0  0  0  0  0  0  0  0
   38.7225   12.0003  -16.9703 C   0  0  0  0  0  0  0  0  0  0  0  0
   38.2734   10.9071  -17.7175 C   0  0  0  0  0  0  0  0  0  0  0  0
   37.0011   10.4680  -17.5229 C   0  0  0  0  0  0  0  0  0  0  0  0
   36.1538   11.0716  -16.6142 C   0  0  0  0  0  0  0  0  0  0  0  0
   36.5651   12.1522  -15.8610 C   0  0  0  0  0  0  0  0  0  0  0  0
   37.8737   12.5947  -16.0691 C   0  0  0  0  0  0  0  0  0  0  0  0
   35.6883   12.8041  -14.8948 C   0  0  0  0  0  0  0  0  0  0  0  0
   34.3288   12.5796  -14.9348 C   0  0  0  0  0  0  0  0  0  0  0  0
   33.4863   13.1988  -14.0148 C   0  0  0  0  0  0  0  0  0  0  0  0
   33.9722   14.0420  -13.0505 C   0  0  0  0  0  0  0  0  0  0  0  0
   35.3284   14.2718  -13.0036 C   0  0  0  0  0  0  0  0  0  0  0  0
   36.1471   13.6572  -13.9133 C   0  0  0  0  0  0  0  0  0  0  0  0
   41.4783   13.7329  -13.8044 C   0  0  0  0  0  0  0  0  0  0  0  0
   42.7695   13.7623  -13.6173 C   0  0  0  0  0  0  0  0  0  0  0  0
   43.4045   13.8099  -12.3147 C   0  0  0  0  0  0  0  0  0  0  0  0
   43.2603   14.8460  -11.4356 C   0  0  0  0  0  0  0  0  0  0  0  0
   43.9045   14.8282  -10.1899 C   0  0  0  0  0  0  0  0  0  0  0  0
   44.7017   13.7767   -9.8032 C   0  0  0  0  0  0  0  0  0  0  0  0
   44.8553   12.7252  -10.6817 C   0  0  0  0  0  0  0  0  0  0  0  0
   44.2205   12.7509  -11.9001 C   0  0  0  0  0  0  0  0  0  0  0  0
   45.3593   13.7895   -8.4969 C   0  0  0  0  0  0  0  0  0  0  0  0
   45.3937   14.9163   -7.6964 O   0  0  0  0  0  0  0  0  0  0  0  0
   45.9120   12.7396   -8.0890 O   0  0  0  0  0  0  0  0  0  0  0  0
   45.6340   15.8401   -8.0323 H   0  0  0  0  0  0  0  0  0  0  0  0
  5  6  1  0  0  0
  6  1  1  0  0  0
  1  2  1  0  0  0
  2  3  2  0  0  0
  2 19  1  0  0  0
 19 20  2  0  0  0
 20 21  1  0  0  0
 21 22  2  0  0  0
 22 23  1  0  0  0
 23 24  2  0  0  0
 24 25  1  0  0  0
 25 26  2  0  0  0
 24 27  1  0  0  0
 27 28  1  0  0  0
 27 29  2  0  0  0
  6  7  1  0  0  0
  7  8  2  0  0  0
  8  9  1  0  0  0
  9 10  2  0  0  0
 10 11  1  0  0  0
 11 12  2  0  0  0
 11 13  1  0  0  0
 13 14  2  0  0  0
 14 15  1  0  0  0
 15 16  2  0  0  0
 16 17  1  0  0  0
 17 18  2  0  0  0
 26 21  1  0  0  0
 12  7  1  0  0  0
 18 13  1  0  0  0
  1  4  1  0  0  0
 28 30  1  0  0  0
M  END
> <minimizedAffinity>
-7.85741

> <CNNscore>
0.2178710699

> <CNNaffinity>
5.6435365677

> <CNN_VS>
1.2295633554

> <CNNaffinity_variance>
0.1999797672

$$$$
[H]OC(=O)c1c([H])c([H])c(/C([H])=C(\[H])C(=O)N([H])[C@]([H])(c2c([H])c([H])c([H])c(-c3c([H])c([H])c([H])c([H])c3[H])c2[H])C([H])([H])[H])c([H])c1[H]


 30 32  0  0  0  0  0  0  0  0999 V2000
   42.2858   13.3239  -14.9442 N   0  0  0  0  0  0  0  0  0  0  0  0
   43.3039   14.1227  -14.4072 C   0  0  0  0  0  0  0  0  0  0  0  0
   44.2557   14.5687  -15.1405 O   0  0  0  0  0  0  0  0  0  0  0  0
   41.5189   12.9627  -14.3637 H   0  0  0  0  0  0  0  0  0  0  0  0
   43.3940   11.9448  -16.5579 C   0  0  0  0  0  0  0  0  0  0  0  0
   42.3109   12.9965  -16.3523 C   0  0  0  0  0  0  0  0  0  0  0  0
   41.0060   12.3878  -16.7286 C   0  0  0  0  0  0  0  0  0  0  0  0
   40.8742   11.7051  -17.9417 C   0  0  0  0  0  0  0  0  0  0  0  0
   39.6672   11.1601  -18.2508 C   0  0  0  0  0  0  0  0  0  0  0  0
   38.5823   11.2655  -17.4024 C   0  0  0  0  0  0  0  0  0  0  0  0
   38.6780   11.9322  -16.1981 C   0  0  0  0  0  0  0  0  0  0  0  0
   39.9223   12.4881  -15.8908 C   0  0  0  0  0  0  0  0  0  0  0  0
   37.5463   12.0547  -15.2861 C   0  0  0  0  0  0  0  0  0  0  0  0
   37.7580   12.0931  -13.9245 C   0  0  0  0  0  0  0  0  0  0  0  0
   36.6817   12.2102  -13.0485 C   0  0  0  0  0  0  0  0  0  0  0  0
   35.3915   12.2900  -13.5027 C   0  0  0  0  0  0  0  0  0  0  0  0
   35.1714   12.2523  -14.8608 C   0  0  0  0  0  0  0  0  0  0  0  0
   36.2375   12.1371  -15.7126 C   0  0  0  0  0  0  0  0  0  0  0  0
   43.3227   14.4815  -12.9835 C   0  0  0  0  0  0  0  0  0  0  0  0
   43.4441   15.6917  -12.5104 C   0  0  0  0  0  0  0  0  0  0  0  0
   43.4598   16.0181  -11.0978 C   0  0  0  0  0  0  0  0  0  0  0  0
   44.5387   16.5539  -10.4528 C   0  0  0  0  0  0  0  0  0  0  0  0
   44.4862   16.8454   -9.0819 C   0  0  0  0  0  0  0  0  0  0  0  0
   43.3568   16.6068   -8.3348 C   0  0  0  0  0  0  0  0  0  0  0  0
   42.2615   16.0661   -8.9741 C   0  0  0  0  0  0  0  0  0  0  0  0
   42.3217   15.7835  -10.3175 C   0  0  0  0  0  0  0  0  0  0  0  0
   43.3353   16.9225   -6.9068 C   0  0  0  0  0  0  0  0  0  0  0  0
   43.1127   18.2029   -6.4349 O   0  0  0  0  0  0  0  0  0  0  0  0
   43.5260   15.9973   -6.0811 O   0  0  0  0  0  0  0  0  0  0  0  0
   43.5747   19.0266   -6.7985 H   0  0  0  0  0  0  0  0  0  0  0  0
  5  6  1  0  0  0
  6  1  1  0  0  0
  1  2  1  0  0  0
  2  3  2  0  0  0
  2 19  1  0  0  0
 19 20  2  0  0  0
 20 21  1  0  0  0
 21 22  2  0  0  0
 22 23  1  0  0  0
 23 24  2  0  0  0
 24 25  1  0  0  0
 25 26  2  0  0  0
 24 27  1  0  0  0
 27 28  1  0  0  0
 27 29  2  0  0  0
  6  7  1  0  0  0
  7  8  2  0  0  0
  8  9  1  0  0  0
  9 10  2  0  0  0
 10 11  1  0  0  0
 11 12  2  0  0  0
 11 13  1  0  0  0
 13 14  2  0  0  0
 14 15  1  0  0  0
 15 16  2  0  0  0
 16 17  1  0  0  0
 17 18  2  0  0  0
 26 21  1  0  0  0
 12  7  1  0  0  0
 18 13  1  0  0  0
  1  4  1  0  0  0
 28 30  1  0  0  0
M  END
> <minimizedAffinity>
-8.80902

> <CNNscore>
0.2155611515

> <CNNaffinity>
5.4584589005

> <CNN_VS>
1.1766316891

> <CNNaffinity_variance>
0.1689243466

$$$$
[H]C1=C(C(=O)[O-])N2C(=O)/C(=C(\[H])c3sc4c(c3[H])OC([H])([H])C4=O)[C@@]2([H])S1


 21 24  0  0  0  0  0  0  0  0999 V2000
   42.5572   13.0053  -15.7490 C   0  0  0  0  0  0  0  0  0  0  0  0
   42.1782   13.5704  -14.6283 C   0  0  0  0  0  0  0  0  0  0  0  0
   40.3987   13.7130  -14.6859 S   0  0  0  0  0  0  0  0  0  0  0  0
   40.2902   13.3850  -16.4907 C   0  0  0  0  0  0  0  0  0  0  0  0
   41.5361   12.6436  -16.6263 N   0  0  0  0  0  0  0  0  0  0  0  0
   40.8524   11.9236  -17.6855 C   0  0  0  0  0  0  0  0  0  0  0  0
   41.1433   11.3967  -18.7871 O   0  0  0  0  0  0  0  0  0  0  0  0
   39.6483   12.1073  -16.8453 C   0  0  0  0  0  0  0  0  0  0  0  0
   38.6063   11.3497  -16.6418 C   0  0  0  0  0  0  0  0  0  0  0  0
   37.5974   11.8850  -15.6958 C   0  0  0  0  0  0  0  0  0  0  0  0
   37.6856   11.9306  -14.3289 C   0  0  0  0  0  0  0  0  0  0  0  0
   36.6251   12.4530  -13.6665 C   0  0  0  0  0  0  0  0  0  0  0  0
   36.2900   12.6936  -12.3055 O   0  0  0  0  0  0  0  0  0  0  0  0
   35.2560   13.6614  -12.2344 C   0  0  0  0  0  0  0  0  0  0  0  0
   34.5176   13.4125  -13.5086 C   0  0  0  0  0  0  0  0  0  0  0  0
   33.3372   13.5753  -13.8175 O   0  0  0  0  0  0  0  0  0  0  0  0
   35.5707   12.8840  -14.4118 C   0  0  0  0  0  0  0  0  0  0  0  0
   36.0643   12.5608  -16.0095 S   0  0  0  0  0  0  0  0  0  0  0  0
   44.2751   11.6679  -16.8911 O   0  0  0  0  0  0  0  0  0  0  0  0
   43.9693   12.7268  -16.0578 C   0  0  0  0  0  0  0  0  0  0  0  0
   44.9216   13.4030  -15.6054 O   0  0  0  0  0  0  0  0  0  0  0  0
 19 20  1  0  0  0
 20 21  2  0  0  0
 20  1  1  0  0  0
  1  2  2  0  0  0
  2  3  1  0  0  0
  3  4  1  0  0  0
  4  5  1  0  0  0
  5  6  1  0  0  0
  6  7  2  0  0  0
  6  8  1  0  0  0
  8  9  2  0  0  0
  9 10  1  0  0  0
 10 11  2  0  0  0
 11 12  1  0  0  0
 12 13  1  0  0  0
 13 14  1  0  0  0
 14 15  1  0  0  0
 15 16  2  0  0  0
 15 17  1  0  0  0
 17 18  1  0  0  0
  5  1  1  0  0  0
 18 10  1  0  0  0
  8  4  1  0  0  0
 17 12  2  0  0  0
M  CHG 1  19  -1
M  END
> <minimizedAffinity>
-8.28112

> <CNNscore>
0.6419032812

> <CNNaffinity>
5.9548535347

> <CNN_VS>
3.8224399090

> <CNNaffinity_variance>
0.1146410480

$$$$
[H]C1=C(C(=O)[O-])N2C(=O)/C(=C(\[H])c3sc4c(c3[H])OC([H])([H])C4=O)[C@@]2([H])S1


 21 24  0  0  0  0  0  0  0  0999 V2000
   42.6419   12.8669  -15.8911 C   0  0  0  0  0  0  0  0  0  0  0  0
   42.3762   13.4281  -14.7364 C   0  0  0  0  0  0  0  0  0  0  0  0
   40.6113   13.6950  -14.6741 S   0  0  0  0  0  0  0  0  0  0  0  0
   40.3645   13.4214  -16.4744 C   0  0  0  0  0  0  0  0  0  0  0  0
   41.5437   12.5992  -16.7069 N   0  0  0  0  0  0  0  0  0  0  0  0
   40.7444   11.9555  -17.7338 C   0  0  0  0  0  0  0  0  0  0  0  0
   40.9263   11.4380  -18.8629 O   0  0  0  0  0  0  0  0  0  0  0  0
   39.6126   12.2006  -16.8128 C   0  0  0  0  0  0  0  0  0  0  0  0
   38.5348   11.5120  -16.5573 C   0  0  0  0  0  0  0  0  0  0  0  0
   37.6288   12.0915  -15.5362 C   0  0  0  0  0  0  0  0  0  0  0  0
   36.4849   12.8132  -15.7576 C   0  0  0  0  0  0  0  0  0  0  0  0
   35.8234   13.2589  -14.6621 C   0  0  0  0  0  0  0  0  0  0  0  0
   34.6416   14.0119  -14.4200 O   0  0  0  0  0  0  0  0  0  0  0  0
   34.2006   13.7902  -13.0906 C   0  0  0  0  0  0  0  0  0  0  0  0
   35.4892   13.5309  -12.3815 C   0  0  0  0  0  0  0  0  0  0  0  0
   35.8354   13.7186  -11.2151 O   0  0  0  0  0  0  0  0  0  0  0  0
   36.3497   12.9534  -13.4445 C   0  0  0  0  0  0  0  0  0  0  0  0
   37.7442   12.0575  -13.8359 S   0  0  0  0  0  0  0  0  0  0  0  0
   45.0756   12.9730  -15.5593 O   0  0  0  0  0  0  0  0  0  0  0  0
   44.0080   12.4994  -16.2977 C   0  0  0  0  0  0  0  0  0  0  0  0
   44.2626   11.7719  -17.2850 O   0  0  0  0  0  0  0  0  0  0  0  0
 19 20  1  0  0  0
 20 21  2  0  0  0
 20  1  1  0  0  0
  1  2  2  0  0  0
  2  3  1  0  0  0
  3  4  1  0  0  0
  4  5  1  0  0  0
  5  6  1  0  0  0
  6  7  2  0  0  0
  6  8  1  0  0  0
  8  9  2  0  0  0
  9 10  1  0  0  0
 10 11  2  0  0  0
 11 12  1  0  0  0
 12 13  1  0  0  0
 13 14  1  0  0  0
 14 15  1  0  0  0
 15 16  2  0  0  0
 15 17  1  0  0  0
 17 18  1  0  0  0
  5  1  1  0  0  0
 18 10  1  0  0  0
  8  4  1  0  0  0
 17 12  2  0  0  0
M  CHG 1  19  -1
M  END
> <minimizedAffinity>
-8.58575

> <CNNscore>
0.6219660044

> <CNNaffinity>
5.9206380844

> <CNN_VS>
3.6824355125

> <CNNaffinity_variance>
0.1009587869

$$$$
[H]C1=C(C(=O)[O-])N2C(=O)/C(=C(\[H])c3sc4c(c3[H])OC([H])([H])C4=O)[C@@]2([H])S1


 21 24  0  0  0  0  0  0  0  0999 V2000
   43.1950   12.7209  -15.7982 C   0  0  0  0  0  0  0  0  0  0  0  0
   43.1826   13.3270  -14.6357 C   0  0  0  0  0  0  0  0  0  0  0  0
   41.5157   13.9069  -14.3616 S   0  0  0  0  0  0  0  0  0  0  0  0
   40.9967   13.6722  -16.1087 C   0  0  0  0  0  0  0  0  0  0  0  0
   41.9717   12.6504  -16.4629 N   0  0  0  0  0  0  0  0  0  0  0  0
   40.9465   12.1551  -17.3637 C   0  0  0  0  0  0  0  0  0  0  0  0
   40.8880   11.6072  -18.4916 O   0  0  0  0  0  0  0  0  0  0  0  0
   40.0031   12.6046  -16.3161 C   0  0  0  0  0  0  0  0  0  0  0  0
   38.8617   12.1221  -15.9091 C   0  0  0  0  0  0  0  0  0  0  0  0
   38.2108   12.8605  -14.7998 C   0  0  0  0  0  0  0  0  0  0  0  0
   37.4531   12.3339  -13.7864 C   0  0  0  0  0  0  0  0  0  0  0  0
   36.9427   13.2105  -12.8878 C   0  0  0  0  0  0  0  0  0  0  0  0
   36.1356   13.1210  -11.7204 O   0  0  0  0  0  0  0  0  0  0  0  0
   36.2920   14.2967  -10.9430 C   0  0  0  0  0  0  0  0  0  0  0  0
   36.5762   15.3204  -11.9928 C   0  0  0  0  0  0  0  0  0  0  0  0
   36.3607   16.5316  -12.0366 O   0  0  0  0  0  0  0  0  0  0  0  0
   37.2249   14.5297  -13.0689 C   0  0  0  0  0  0  0  0  0  0  0  0
   38.1884   14.5333  -14.4733 S   0  0  0  0  0  0  0  0  0  0  0  0
   45.5163   11.9509  -15.5479 O   0  0  0  0  0  0  0  0  0  0  0  0
   44.4110   12.1118  -16.3612 C   0  0  0  0  0  0  0  0  0  0  0  0
   44.5030   11.7243  -17.5487 O   0  0  0  0  0  0  0  0  0  0  0  0
 19 20  1  0  0  0
 20 21  2  0  0  0
 20  1  1  0  0  0
  1  2  2  0  0  0
  2  3  1  0  0  0
  3  4  1  0  0  0
  4  5  1  0  0  0
  5  6  1  0  0  0
  6  7  2  0  0  0
  6  8  1  0  0  0
  8  9  2  0  0  0
  9 10  1  0  0  0
 10 11  2  0  0  0
 11 12  1  0  0  0
 12 13  1  0  0  0
 13 14  1  0  0  0
 14 15  1  0  0  0
 15 16  2  0  0  0
 15 17  1  0  0  0
 17 18  1  0  0  0
  5  1  1  0  0  0
 18 10  1  0  0  0
  8  4  1  0  0  0
 17 12  2  0  0  0
M  CHG 1  19  -1
M  END
> <minimizedAffinity>
-7.99654

> <CNNscore>
0.4558318555

> <CNNaffinity>
5.5771055222

> <CNN_VS>
2.5422222614

> <CNNaffinity_variance>
0.1807705462

$$$$
[H]C1=C(C(=O)[O-])N2C(=O)/C(=C(\[H])c3sc4c(c3[H])OC([H])([H])C4=O)[C@@]2([H])S1


 21 24  0  0  0  0  0  0  0  0999 V2000
   36.1106   14.6113  -11.8637 C   0  0  0  0  0  0  0  0  0  0  0  0
   35.4092   13.8519  -12.6699 C   0  0  0  0  0  0  0  0  0  0  0  0
   36.3678   13.6413  -14.1621 S   0  0  0  0  0  0  0  0  0  0  0  0
   37.5302   15.0113  -13.7765 C   0  0  0  0  0  0  0  0  0  0  0  0
   37.3652   15.0013  -12.3297 N   0  0  0  0  0  0  0  0  0  0  0  0
   38.7494   15.4376  -12.2895 C   0  0  0  0  0  0  0  0  0  0  0  0
   39.4672   16.1827  -11.5788 O   0  0  0  0  0  0  0  0  0  0  0  0
   38.9097   14.5831  -13.4868 C   0  0  0  0  0  0  0  0  0  0  0  0
   39.9052   13.8525  -13.9064 C   0  0  0  0  0  0  0  0  0  0  0  0
   39.6713   13.1122  -15.1701 C   0  0  0  0  0  0  0  0  0  0  0  0
   40.3259   13.2809  -16.3623 C   0  0  0  0  0  0  0  0  0  0  0  0
   39.9275   12.4965  -17.3930 C   0  0  0  0  0  0  0  0  0  0  0  0
   40.3061   12.3294  -18.7536 O   0  0  0  0  0  0  0  0  0  0  0  0
   39.8581   11.0674  -19.2201 C   0  0  0  0  0  0  0  0  0  0  0  0
   38.6271   10.8591  -18.4004 C   0  0  0  0  0  0  0  0  0  0  0  0
   37.5897   10.2350  -18.6231 O   0  0  0  0  0  0  0  0  0  0  0  0
   38.9178   11.6149  -17.1561 C   0  0  0  0  0  0  0  0  0  0  0  0
   38.5400   11.8855  -15.5176 S   0  0  0  0  0  0  0  0  0  0  0  0
   36.1223   14.3379   -9.4204 O   0  0  0  0  0  0  0  0  0  0  0  0
   35.6321   15.0031  -10.5279 C   0  0  0  0  0  0  0  0  0  0  0  0
   34.7975   15.9166  -10.3337 O   0  0  0  0  0  0  0  0  0  0  0  0
 19 20  1  0  0  0
 20 21  2  0  0  0
 20  1  1  0  0  0
  1  2  2  0  0  0
  2  3  1  0  0  0
  3  4  1  0  0  0
  4  5  1  0  0  0
  5  6  1  0  0  0
  6  7  2  0  0  0
  6  8  1  0  0  0
  8  9  2  0  0  0
  9 10  1  0  0  0
 10 11  2  0  0  0
 11 12  1  0  0  0
 12 13  1  0  0  0
 13 14  1  0  0  0
 14 15  1  0  0  0
 15 16  2  0  0  0
 15 17  1  0  0  0
 17 18  1  0  0  0
  5  1  1  0  0  0
 18 10  1  0  0  0
  8  4  1  0  0  0
 17 12  2  0  0  0
M  CHG 1  19  -1
M  END
> <minimizedAffinity>
-7.38568

> <CNNscore>
0.3723054826

> <CNNaffinity>
5.6718626022

> <CNN_VS>
2.1116654873

> <CNNaffinity_variance>
0.3408490121

$$$$
[H]C1=C(C(=O)[O-])N2C(=O)/C(=C(\[H])c3sc4c(c3[H])OC([H])([H])C4=O)[C@@]2([H])S1


 21 24  0  0  0  0  0  0  0  0999 V2000
   39.4419   16.2269  -10.0784 C   0  0  0  0  0  0  0  0  0  0  0  0
   38.3610   16.9665  -10.1368 C   0  0  0  0  0  0  0  0  0  0  0  0
   37.3059   16.4650   -8.7858 S   0  0  0  0  0  0  0  0  0  0  0  0
   38.2290   14.9105   -8.4567 C   0  0  0  0  0  0  0  0  0  0  0  0
   39.5073   15.3239   -9.0184 N   0  0  0  0  0  0  0  0  0  0  0  0
   40.0933   14.4552   -8.0136 C   0  0  0  0  0  0  0  0  0  0  0  0
   41.0903   13.6999   -7.9072 O   0  0  0  0  0  0  0  0  0  0  0  0
   38.9535   14.8863   -7.1743 C   0  0  0  0  0  0  0  0  0  0  0  0
   38.8503   15.1000   -5.8918 C   0  0  0  0  0  0  0  0  0  0  0  0
   37.5179   15.5495   -5.4204 C   0  0  0  0  0  0  0  0  0  0  0  0
   36.3944   14.7816   -5.2579 C   0  0  0  0  0  0  0  0  0  0  0  0
   35.2778   15.4179   -4.8278 C   0  0  0  0  0  0  0  0  0  0  0  0
   33.9399   15.0405   -4.5281 O   0  0  0  0  0  0  0  0  0  0  0  0
   33.3425   16.0246   -3.7001 C   0  0  0  0  0  0  0  0  0  0  0  0
   34.0501   17.2639   -4.1409 C   0  0  0  0  0  0  0  0  0  0  0  0
   33.7025   18.4447   -4.1571 O   0  0  0  0  0  0  0  0  0  0  0  0
   35.3687   16.7562   -4.5965 C   0  0  0  0  0  0  0  0  0  0  0  0
   36.9913   17.1084   -4.9758 S   0  0  0  0  0  0  0  0  0  0  0  0
   40.2499   16.6475  -12.3619 O   0  0  0  0  0  0  0  0  0  0  0  0
   40.5457   16.3593  -11.0433 C   0  0  0  0  0  0  0  0  0  0  0  0
   41.7523   16.2259  -10.7350 O   0  0  0  0  0  0  0  0  0  0  0  0
 19 20  1  0  0  0
 20 21  2  0  0  0
 20  1  1  0  0  0
  1  2  2  0  0  0
  2  3  1  0  0  0
  3  4  1  0  0  0
  4  5  1  0  0  0
  5  6  1  0  0  0
  6  7  2  0  0  0
  6  8  1  0  0  0
  8  9  2  0  0  0
  9 10  1  0  0  0
 10 11  2  0  0  0
 11 12  1  0  0  0
 12 13  1  0  0  0
 13 14  1  0  0  0
 14 15  1  0  0  0
 15 16  2  0  0  0
 15 17  1  0  0  0
 17 18  1  0  0  0
  5  1  1  0  0  0
 18 10  1  0  0  0
  8  4  1  0  0  0
 17 12  2  0  0  0
M  CHG 1  19  -1
M  END
> <minimizedAffinity>
-4.62722

> <CNNscore>
0.2818664312

> <CNNaffinity>
4.3586511612

> <CNN_VS>
1.2285574675

> <CNNaffinity_variance>
1.0105441809

$$$$
[H]C1=C(C(=O)[O-])N2C(=O)/C(=C(\[H])c3sc4c(c3[H])OC([H])([H])C4=O)[C@@]2([H])S1


 21 24  0  0  0  0  0  0  0  0999 V2000
   42.2850   13.1194  -15.4061 C   0  0  0  0  0  0  0  0  0  0  0  0
   42.0907   13.8109  -14.3094 C   0  0  0  0  0  0  0  0  0  0  0  0
   40.3382   14.1361  -14.1952 S   0  0  0  0  0  0  0  0  0  0  0  0
   39.9962   13.6753  -15.9410 C   0  0  0  0  0  0  0  0  0  0  0  0
   41.1416   12.7975  -16.1356 N   0  0  0  0  0  0  0  0  0  0  0  0
   40.2769   12.0701  -17.0471 C   0  0  0  0  0  0  0  0  0  0  0  0
   40.3898   11.4273  -18.1194 O   0  0  0  0  0  0  0  0  0  0  0  0
   39.1983   12.4482  -16.1073 C   0  0  0  0  0  0  0  0  0  0  0  0
   38.1176   11.8244  -15.7278 C   0  0  0  0  0  0  0  0  0  0  0  0
   37.2778   12.5389  -14.7360 C   0  0  0  0  0  0  0  0  0  0  0  0
   37.4371   12.5562  -13.3750 C   0  0  0  0  0  0  0  0  0  0  0  0
   36.5311   13.2703  -12.6639 C   0  0  0  0  0  0  0  0  0  0  0  0
   36.3134   13.5613  -11.2890 O   0  0  0  0  0  0  0  0  0  0  0  0
   35.4924   14.7115  -11.1707 C   0  0  0  0  0  0  0  0  0  0  0  0
   34.6609   14.6207  -12.4081 C   0  0  0  0  0  0  0  0  0  0  0  0
   33.5217   15.0128  -12.6609 O   0  0  0  0  0  0  0  0  0  0  0  0
   35.5473   13.9040  -13.3591 C   0  0  0  0  0  0  0  0  0  0  0  0
   35.8929   13.5028  -14.9779 S   0  0  0  0  0  0  0  0  0  0  0  0
   44.7228   13.0535  -15.0946 O   0  0  0  0  0  0  0  0  0  0  0  0
   43.6199   12.6686  -15.8325 C   0  0  0  0  0  0  0  0  0  0  0  0
   43.8168   11.9461  -16.8365 O   0  0  0  0  0  0  0  0  0  0  0  0
 19 20  1  0  0  0
 20 21  2  0  0  0
 20  1  1  0  0  0
  1  2  2  0  0  0
  2  3  1  0  0  0
  3  4  1  0  0  0
  4  5  1  0  0  0
  5  6  1  0  0  0
  6  7  2  0  0  0
  6  8  1  0  0  0
  8  9  2  0  0  0
  9 10  1  0  0  0
 10 11  2  0  0  0
 11 12  1  0  0  0
 12 13  1  0  0  0
 13 14  1  0  0  0
 14 15  1  0  0  0
 15 16  2  0  0  0
 15 17  1  0  0  0
 17 18  1  0  0  0
  5  1  1  0  0  0
 18 10  1  0  0  0
  8  4  1  0  0  0
 17 12  2  0  0  0
M  CHG 1  19  -1
M  END
> <minimizedAffinity>
-7.61750

> <CNNscore>
0.2468892336

> <CNNaffinity>
5.3301720619

> <CNN_VS>
1.3159620762

> <CNNaffinity_variance>
0.2178101540

$$$$
[H]C1=C(C(=O)[O-])N2C(=O)/C(=C(\[H])c3sc4c(c3[H])OC([H])([H])C4=O)[C@@]2([H])S1


 21 24  0  0  0  0  0  0  0  0999 V2000
   35.9737   13.1348  -14.0963 C   0  0  0  0  0  0  0  0  0  0  0  0
   36.8721   13.7405  -13.3583 C   0  0  0  0  0  0  0  0  0  0  0  0
   38.4739   13.1662  -13.9011 S   0  0  0  0  0  0  0  0  0  0  0  0
   37.7991   11.7427  -14.8472 C   0  0  0  0  0  0  0  0  0  0  0  0
   36.4676   12.2830  -15.0831 N   0  0  0  0  0  0  0  0  0  0  0  0
   36.5098   11.5241  -16.3201 C   0  0  0  0  0  0  0  0  0  0  0  0
   35.7062   10.8947  -17.0506 O   0  0  0  0  0  0  0  0  0  0  0  0
   37.9536   11.8479  -16.3085 C   0  0  0  0  0  0  0  0  0  0  0  0
   38.7975   12.0925  -17.2724 C   0  0  0  0  0  0  0  0  0  0  0  0
   40.1854   12.3991  -16.8492 C   0  0  0  0  0  0  0  0  0  0  0  0
   41.3224   11.7058  -17.1729 C   0  0  0  0  0  0  0  0  0  0  0  0
   42.4861   12.1659  -16.6528 C   0  0  0  0  0  0  0  0  0  0  0  0
   43.8543   11.7833  -16.7172 O   0  0  0  0  0  0  0  0  0  0  0  0
   44.6727   12.8812  -16.3485 C   0  0  0  0  0  0  0  0  0  0  0  0
   43.7911   13.6092  -15.3876 C   0  0  0  0  0  0  0  0  0  0  0  0
   44.0483   14.3288  -14.4225 O   0  0  0  0  0  0  0  0  0  0  0  0
   42.4248   13.2697  -15.8586 C   0  0  0  0  0  0  0  0  0  0  0  0
   40.7647   13.6501  -15.8467 S   0  0  0  0  0  0  0  0  0  0  0  0
   34.0802   14.0200  -12.8020 O   0  0  0  0  0  0  0  0  0  0  0  0
   34.5287   13.3617  -13.9310 C   0  0  0  0  0  0  0  0  0  0  0  0
   33.6713   12.9900  -14.7650 O   0  0  0  0  0  0  0  0  0  0  0  0
 19 20  1  0  0  0
 20 21  2  0  0  0
 20  1  1  0  0  0
  1  2  2  0  0  0
  2  3  1  0  0  0
  3  4  1  0  0  0
  4  5  1  0  0  0
  5  6  1  0  0  0
  6  7  2  0  0  0
  6  8  1  0  0  0
  8  9  2  0  0  0
  9 10  1  0  0  0
 10 11  2  0  0  0
 11 12  1  0  0  0
 12 13  1  0  0  0
 13 14  1  0  0  0
 14 15  1  0  0  0
 15 16  2  0  0  0
 15 17  1  0  0  0
 17 18  1  0  0  0
  5  1  1  0  0  0
 18 10  1  0  0  0
  8  4  1  0  0  0
 17 12  2  0  0  0
M  CHG 1  19  -1
M  END
> <minimizedAffinity>
-7.20765

> <CNNscore>
0.2223755121

> <CNNaffinity>
5.6292757988

> <CNN_VS>
1.2518130541

> <CNNaffinity_variance>
0.0985303968

$$$$
[H]C1=C(C(=O)[O-])N2C(=O)/C(=C(\[H])c3sc4c(c3[H])OC([H])([H])C4=O)[C@@]2([H])S1


 21 24  0  0  0  0  0  0  0  0999 V2000
   37.7185   13.9447   -6.6580 C   0  0  0  0  0  0  0  0  0  0  0  0
   36.7591   13.1444   -6.2608 C   0  0  0  0  0  0  0  0  0  0  0  0
   35.2734   14.1272   -6.1304 S   0  0  0  0  0  0  0  0  0  0  0  0
   36.1619   15.7342   -6.2016 C   0  0  0  0  0  0  0  0  0  0  0  0
   37.3490   15.2663   -6.9032 N   0  0  0  0  0  0  0  0  0  0  0  0
   37.3909   16.6006   -7.4737 C   0  0  0  0  0  0  0  0  0  0  0  0
   38.2625   17.4277   -7.8367 O   0  0  0  0  0  0  0  0  0  0  0  0
   35.9143   16.5194   -7.4232 C   0  0  0  0  0  0  0  0  0  0  0  0
   34.9901   16.9919   -8.2129 C   0  0  0  0  0  0  0  0  0  0  0  0
   33.5929   16.6779   -7.8273 C   0  0  0  0  0  0  0  0  0  0  0  0
   32.7356   15.8112   -8.4535 C   0  0  0  0  0  0  0  0  0  0  0  0
   31.4918   15.6972   -7.9277 C   0  0  0  0  0  0  0  0  0  0  0  0
   30.3206   14.9497   -8.2306 O   0  0  0  0  0  0  0  0  0  0  0  0
   29.4827   14.8951   -7.0878 C   0  0  0  0  0  0  0  0  0  0  0  0
   29.8032   16.1885   -6.4131 C   0  0  0  0  0  0  0  0  0  0  0  0
   29.1353   16.9189   -5.6811 O   0  0  0  0  0  0  0  0  0  0  0  0
   31.2038   16.4493   -6.8303 C   0  0  0  0  0  0  0  0  0  0  0  0
   32.6538   17.2964   -6.5463 S   0  0  0  0  0  0  0  0  0  0  0  0
   39.9035   14.1687   -7.7626 O   0  0  0  0  0  0  0  0  0  0  0  0
   39.0985   13.4805   -6.8751 C   0  0  0  0  0  0  0  0  0  0  0  0
   39.5924   12.4870   -6.2940 O   0  0  0  0  0  0  0  0  0  0  0  0
 19 20  1  0  0  0
 20 21  2  0  0  0
 20  1  1  0  0  0
  1  2  2  0  0  0
  2  3  1  0  0  0
  3  4  1  0  0  0
  4  5  1  0  0  0
  5  6  1  0  0  0
  6  7  2  0  0  0
  6  8  1  0  0  0
  8  9  2  0  0  0
  9 10  1  0  0  0
 10 11  2  0  0  0
 11 12  1  0  0  0
 12 13  1  0  0  0
 13 14  1  0  0  0
 14 15  1  0  0  0
 15 16  2  0  0  0
 15 17  1  0  0  0
 17 18  1  0  0  0
  5  1  1  0  0  0
 18 10  1  0  0  0
  8  4  1  0  0  0
 17 12  2  0  0  0
M  CHG 1  19  -1
M  END
> <minimizedAffinity>
-4.96035

> <CNNscore>
0.2204950601

> <CNNaffinity>
4.1737585068

> <CNN_VS>
0.9202931523

> <CNNaffinity_variance>
0.8195172548

$$$$
[H]C1=C(C(=O)[O-])N2C(=O)/C(=C(\[H])c3sc4c(c3[H])OC([H])([H])C4=O)[C@@]2([H])S1


 21 24  0  0  0  0  0  0  0  0999 V2000
   35.8075   11.8908  -15.3006 C   0  0  0  0  0  0  0  0  0  0  0  0
   35.6686   12.5393  -14.1697 C   0  0  0  0  0  0  0  0  0  0  0  0
   37.3093   12.9250  -13.5786 S   0  0  0  0  0  0  0  0  0  0  0  0
   38.1483   11.7550  -14.7206 C   0  0  0  0  0  0  0  0  0  0  0  0
   37.1164   11.7158  -15.7473 N   0  0  0  0  0  0  0  0  0  0  0  0
   38.2149   11.5084  -16.6736 C   0  0  0  0  0  0  0  0  0  0  0  0
   38.4241   10.8781  -17.7388 O   0  0  0  0  0  0  0  0  0  0  0  0
   38.9701   12.3958  -15.7617 C   0  0  0  0  0  0  0  0  0  0  0  0
   39.8988   13.2841  -15.9847 C   0  0  0  0  0  0  0  0  0  0  0  0
   40.4077   13.9962  -14.7875 C   0  0  0  0  0  0  0  0  0  0  0  0
   39.7681   14.9738  -14.0710 C   0  0  0  0  0  0  0  0  0  0  0  0
   40.4402   15.4954  -13.0161 C   0  0  0  0  0  0  0  0  0  0  0  0
   40.1797   16.4851  -12.0288 O   0  0  0  0  0  0  0  0  0  0  0  0
   41.0472   16.2938  -10.9234 C   0  0  0  0  0  0  0  0  0  0  0  0
   42.2517   15.7034  -11.5802 C   0  0  0  0  0  0  0  0  0  0  0  0
   43.4463   15.7378  -11.2848 O   0  0  0  0  0  0  0  0  0  0  0  0
   41.6847   15.0061  -12.7618 C   0  0  0  0  0  0  0  0  0  0  0  0
   41.9012   13.8373  -13.9815 S   0  0  0  0  0  0  0  0  0  0  0  0
   33.4163   11.3482  -15.4797 O   0  0  0  0  0  0  0  0  0  0  0  0
   34.6582   11.4064  -16.0825 C   0  0  0  0  0  0  0  0  0  0  0  0
   34.7408   11.0410  -17.2777 O   0  0  0  0  0  0  0  0  0  0  0  0
 19 20  1  0  0  0
 20 21  2  0  0  0
 20  1  1  0  0  0
  1  2  2  0  0  0
  2  3  1  0  0  0
  3  4  1  0  0  0
  4  5  1  0  0  0
  5  6  1  0  0  0
  6  7  2  0  0  0
  6  8  1  0  0  0
  8  9  2  0  0  0
  9 10  1  0  0  0
 10 11  2  0  0  0
 11 12  1  0  0  0
 12 13  1  0  0  0
 13 14  1  0  0  0
 14 15  1  0  0  0
 15 16  2  0  0  0
 15 17  1  0  0  0
 17 18  1  0  0  0
  5  1  1  0  0  0
 18 10  1  0  0  0
  8  4  1  0  0  0
 17 12  2  0  0  0
M  CHG 1  19  -1
M  END
> <minimizedAffinity>
-7.44181

> <CNNscore>
0.2058402300

> <CNNaffinity>
5.3457360268

> <CNN_VS>
1.1003675461

> <CNNaffinity_variance>
0.1460889727

$$$$
[H]c1c([H])c([H])c(C([H])([H])n2c(=O)n(C3([H])C([H])([H])C([H])([H])N(C(=O)c4c([H])c(OC([H])([H])[H])c(OC([H])([H])[H])c(OC([H])([H])[H])c4[H])C([H])([H])C3([H])[H])c3c([H])c([H])c([H])c([H])c32)c([H])c1[H]


 37 41  0  0  0  0  0  0  0  0999 V2000
   38.2092   14.4290  -13.4482 C   0  0  0  0  0  0  0  0  0  0  0  0
   39.2892   14.9265  -14.0097 O   0  0  0  0  0  0  0  0  0  0  0  0
   38.0694   14.7977  -12.0738 N   0  0  0  0  0  0  0  0  0  0  0  0
   37.0000   14.4063  -11.2112 C   0  0  0  0  0  0  0  0  0  0  0  0
   37.0169   14.9056   -9.7918 C   0  0  0  0  0  0  0  0  0  0  0  0
   37.8493   16.1065   -9.6592 C   0  0  0  0  0  0  0  0  0  0  0  0
   39.2408   15.6389  -10.1396 C   0  0  0  0  0  0  0  0  0  0  0  0
   39.1869   15.6733  -11.6142 C   0  0  0  0  0  0  0  0  0  0  0  0
   37.9010   16.7247   -8.3765 N   0  0  0  0  0  0  0  0  0  0  0  0
   37.7787   18.0471   -8.1935 C   0  0  0  0  0  0  0  0  0  0  0  0
   37.5799   19.1301   -9.0437 C   0  0  0  0  0  0  0  0  0  0  0  0
   37.4891   20.3876   -8.4948 C   0  0  0  0  0  0  0  0  0  0  0  0
   37.5836   20.6423   -7.1440 C   0  0  0  0  0  0  0  0  0  0  0  0
   37.7797   19.5625   -6.3174 C   0  0  0  0  0  0  0  0  0  0  0  0
   37.8764   18.2822   -6.8369 C   0  0  0  0  0  0  0  0  0  0  0  0
   38.0579   17.0713   -6.2463 N   0  0  0  0  0  0  0  0  0  0  0  0
   38.0712   16.1137   -7.2034 C   0  0  0  0  0  0  0  0  0  0  0  0
   38.2183   14.8786   -6.9864 O   0  0  0  0  0  0  0  0  0  0  0  0
   38.2158   16.7931   -4.8466 C   0  0  0  0  0  0  0  0  0  0  0  0
   39.6029   16.9845   -4.4226 C   0  0  0  0  0  0  0  0  0  0  0  0
   39.9875   18.1297   -3.7526 C   0  0  0  0  0  0  0  0  0  0  0  0
   41.3039   18.2800   -3.3615 C   0  0  0  0  0  0  0  0  0  0  0  0
   42.2483   17.3140   -3.6221 C   0  0  0  0  0  0  0  0  0  0  0  0
   41.8486   16.1885   -4.2853 C   0  0  0  0  0  0  0  0  0  0  0  0
   40.5389   15.9989   -4.6946 C   0  0  0  0  0  0  0  0  0  0  0  0
   37.3938   12.0972  -16.1722 C   0  0  0  0  0  0  0  0  0  0  0  0
   38.0912   12.8804  -15.2969 C   0  0  0  0  0  0  0  0  0  0  0  0
   37.4172   13.6349  -14.3292 C   0  0  0  0  0  0  0  0  0  0  0  0
   36.0549   13.5209  -14.3396 C   0  0  0  0  0  0  0  0  0  0  0  0
   35.3553   12.7185  -15.2374 C   0  0  0  0  0  0  0  0  0  0  0  0
   36.0302   11.9933  -16.1703 C   0  0  0  0  0  0  0  0  0  0  0  0
   39.5124   11.5663  -17.3103 C   0  0  0  0  0  0  0  0  0  0  0  0
   38.1354   11.3639  -17.1213 O   0  0  0  0  0  0  0  0  0  0  0  0
   33.9844   12.6638  -15.1753 O   0  0  0  0  0  0  0  0  0  0  0  0
   33.2799   13.4282  -14.2240 C   0  0  0  0  0  0  0  0  0  0  0  0
   35.3669   11.1897  -17.0732 O   0  0  0  0  0  0  0  0  0  0  0  0
   34.6655   10.0424  -16.6318 C   0  0  0  0  0  0  0  0  0  0  0  0
 32 33  1  0  0  0
 33 26  1  0  0  0
 26 27  2  0  0  0
 27 28  1  0  0  0
 28 29  2  0  0  0
 29 30  1  0  0  0
 30 34  1  0  0  0
 34 35  1  0  0  0
 30 31  2  0  0  0
 31 36  1  0  0  0
 36 37  1  0  0  0
 28  1  1  0  0  0
  1  2  2  0  0  0
  1  3  1  0  0  0
  3  4  1  0  0  0
  4  5  1  0  0  0
  5  6  1  0  0  0
  6  7  1  0  0  0
  7  8  1  0  0  0
  6  9  1  0  0  0
  9 10  1  0  0  0
 10 11  2  0  0  0
 11 12  1  0  0  0
 12 13  2  0  0  0
 13 14  1  0  0  0
 14 15  2  0  0  0
 15 16  1  0  0  0
 16 19  1  0  0  0
 19 20  1  0  0  0
 20 21  2  0  0  0
 21 22  1  0  0  0
 22 23  2  0  0  0
 23 24  1  0  0  0
 24 25  2  0  0  0
 16 17  1  0  0  0
 17 18  2  0  0  0
 31 26  1  0  0  0
  8  3  1  0  0  0
 17  9  1  0  0  0
 15 10  1  0  0  0
 25 20  1  0  0  0
M  END
> <minimizedAffinity>
-7.74618

> <CNNscore>
0.2703572810

> <CNNaffinity>
6.3236188889

> <CNN_VS>
1.7096364498

> <CNNaffinity_variance>
0.2777650654

$$$$
[H]c1c([H])c([H])c(C([H])([H])n2c(=O)n(C3([H])C([H])([H])C([H])([H])N(C(=O)c4c([H])c(OC([H])([H])[H])c(OC([H])([H])[H])c(OC([H])([H])[H])c4[H])C([H])([H])C3([H])[H])c3c([H])c([H])c([H])c([H])c32)c([H])c1[H]


 37 41  0  0  0  0  0  0  0  0999 V2000
   38.5261   14.5526  -13.5979 C   0  0  0  0  0  0  0  0  0  0  0  0
   39.5526   15.1610  -14.1504 O   0  0  0  0  0  0  0  0  0  0  0  0
   38.3584   14.8760  -12.2152 N   0  0  0  0  0  0  0  0  0  0  0  0
   37.3338   14.3674  -11.3594 C   0  0  0  0  0  0  0  0  0  0  0  0
   37.3101   14.8343   -9.9291 C   0  0  0  0  0  0  0  0  0  0  0  0
   38.0274   16.1045   -9.7713 C   0  0  0  0  0  0  0  0  0  0  0  0
   39.4544   15.7797  -10.2651 C   0  0  0  0  0  0  0  0  0  0  0  0
   39.3912   15.8416  -11.7384 C   0  0  0  0  0  0  0  0  0  0  0  0
   38.0266   16.6961   -8.4752 N   0  0  0  0  0  0  0  0  0  0  0  0
   37.8667   18.0110   -8.2685 C   0  0  0  0  0  0  0  0  0  0  0  0
   37.6662   19.1069   -9.1016 C   0  0  0  0  0  0  0  0  0  0  0  0
   37.5286   20.3498   -8.5297 C   0  0  0  0  0  0  0  0  0  0  0  0
   37.5776   20.5777   -7.1717 C   0  0  0  0  0  0  0  0  0  0  0  0
   37.7760   19.4855   -6.3622 C   0  0  0  0  0  0  0  0  0  0  0  0
   37.9191   18.2192   -6.9050 C   0  0  0  0  0  0  0  0  0  0  0  0
   38.1131   17.0008   -6.3345 N   0  0  0  0  0  0  0  0  0  0  0  0
   38.1777   16.0644   -7.3104 C   0  0  0  0  0  0  0  0  0  0  0  0
   38.3487   14.8289   -7.1147 O   0  0  0  0  0  0  0  0  0  0  0  0
   38.2370   16.6965   -4.9368 C   0  0  0  0  0  0  0  0  0  0  0  0
   39.6041   16.9202   -4.4662 C   0  0  0  0  0  0  0  0  0  0  0  0
   40.5910   15.9781   -4.6821 C   0  0  0  0  0  0  0  0  0  0  0  0
   41.8736   16.2195   -4.2294 C   0  0  0  0  0  0  0  0  0  0  0  0
   42.1973   17.3804   -3.5656 C   0  0  0  0  0  0  0  0  0  0  0  0
   41.2080   18.3002   -3.3620 C   0  0  0  0  0  0  0  0  0  0  0  0
   39.9096   18.0967   -3.7998 C   0  0  0  0  0  0  0  0  0  0  0  0
   35.6604   12.9580  -15.2614 C   0  0  0  0  0  0  0  0  0  0  0  0
   36.4098   13.7413  -14.4303 C   0  0  0  0  0  0  0  0  0  0  0  0
   37.8079   13.7077  -14.4949 C   0  0  0  0  0  0  0  0  0  0  0  0
   38.3325   12.8557  -15.4264 C   0  0  0  0  0  0  0  0  0  0  0  0
   37.5574   12.0621  -16.2684 C   0  0  0  0  0  0  0  0  0  0  0  0
   36.1998   12.1101  -16.1889 C   0  0  0  0  0  0  0  0  0  0  0  0
   33.6348   13.5436  -13.9888 C   0  0  0  0  0  0  0  0  0  0  0  0
   34.2577   13.0409  -15.1430 O   0  0  0  0  0  0  0  0  0  0  0  0
   38.1700   11.2339  -17.1766 O   0  0  0  0  0  0  0  0  0  0  0  0
   39.5341   11.3985  -17.4892 C   0  0  0  0  0  0  0  0  0  0  0  0
   35.4046   11.3370  -17.0080 O   0  0  0  0  0  0  0  0  0  0  0  0
   34.7589   10.1845  -16.5003 C   0  0  0  0  0  0  0  0  0  0  0  0
 32 33  1  0  0  0
 33 26  1  0  0  0
 26 27  2  0  0  0
 27 28  1  0  0  0
 28 29  2  0  0  0
 29 30  1  0  0  0
 30 34  1  0  0  0
 34 35  1  0  0  0
 30 31  2  0  0  0
 31 36  1  0  0  0
 36 37  1  0  0  0
 28  1  1  0  0  0
  1  2  2  0  0  0
  1  3  1  0  0  0
  3  4  1  0  0  0
  4  5  1  0  0  0
  5  6  1  0  0  0
  6  7  1  0  0  0
  7  8  1  0  0  0
  6  9  1  0  0  0
  9 10  1  0  0  0
 10 11  2  0  0  0
 11 12  1  0  0  0
 12 13  2  0  0  0
 13 14  1  0  0  0
 14 15  2  0  0  0
 15 16  1  0  0  0
 16 19  1  0  0  0
 19 20  1  0  0  0
 20 21  2  0  0  0
 21 22  1  0  0  0
 22 23  2  0  0  0
 23 24  1  0  0  0
 24 25  2  0  0  0
 16 17  1  0  0  0
 17 18  2  0  0  0
 31 26  1  0  0  0
  8  3  1  0  0  0
 17  9  1  0  0  0
 15 10  1  0  0  0
 25 20  1  0  0  0
M  END
> <minimizedAffinity>
-7.96302

> <CNNscore>
0.2666977346

> <CNNaffinity>
6.2944178581

> <CNN_VS>
1.6787070036

> <CNNaffinity_variance>
0.3304185867

$$$$
[H]c1c([H])c([H])c(C([H])([H])n2c(=O)n(C3([H])C([H])([H])C([H])([H])N(C(=O)c4c([H])c(OC([H])([H])[H])c(OC([H])([H])[H])c(OC([H])([H])[H])c4[H])C([H])([H])C3([H])[H])c3c([H])c([H])c([H])c([H])c32)c([H])c1[H]


 37 41  0  0  0  0  0  0  0  0999 V2000
   38.6130   14.7392  -13.1615 C   0  0  0  0  0  0  0  0  0  0  0  0
   39.7346   15.2827  -13.5805 O   0  0  0  0  0  0  0  0  0  0  0  0
   38.2966   15.0750  -11.8081 N   0  0  0  0  0  0  0  0  0  0  0  0
   37.1456   14.6316  -11.0874 C   0  0  0  0  0  0  0  0  0  0  0  0
   36.9748   15.1020   -9.6682 C   0  0  0  0  0  0  0  0  0  0  0  0
   37.7433   16.3263   -9.4165 C   0  0  0  0  0  0  0  0  0  0  0  0
   39.1978   15.9138   -9.7332 C   0  0  0  0  0  0  0  0  0  0  0  0
   39.3199   15.9767  -11.2028 C   0  0  0  0  0  0  0  0  0  0  0  0
   37.6194   16.9194   -8.1270 N   0  0  0  0  0  0  0  0  0  0  0  0
   37.5345   18.2431   -7.9330 C   0  0  0  0  0  0  0  0  0  0  0  0
   37.5279   19.3491   -8.7767 C   0  0  0  0  0  0  0  0  0  0  0  0
   37.4123   20.6003   -8.2182 C   0  0  0  0  0  0  0  0  0  0  0  0
   37.3018   20.8271   -6.8636 C   0  0  0  0  0  0  0  0  0  0  0  0
   37.3097   19.7249   -6.0435 C   0  0  0  0  0  0  0  0  0  0  0  0
   37.4252   18.4501   -6.5726 C   0  0  0  0  0  0  0  0  0  0  0  0
   37.4502   17.2217   -5.9910 N   0  0  0  0  0  0  0  0  0  0  0  0
   37.5694   16.2808   -6.9573 C   0  0  0  0  0  0  0  0  0  0  0  0
   37.6189   15.0363   -6.7504 O   0  0  0  0  0  0  0  0  0  0  0  0
   37.3680   16.9123   -4.5913 C   0  0  0  0  0  0  0  0  0  0  0  0
   35.9798   16.7144   -4.1742 C   0  0  0  0  0  0  0  0  0  0  0  0
   35.1640   17.7929   -3.8920 C   0  0  0  0  0  0  0  0  0  0  0  0
   33.8562   17.5743   -3.5043 C   0  0  0  0  0  0  0  0  0  0  0  0
   33.3404   16.3038   -3.3914 C   0  0  0  0  0  0  0  0  0  0  0  0
   34.1624   15.2501   -3.6752 C   0  0  0  0  0  0  0  0  0  0  0  0
   35.4793   15.4262   -4.0670 C   0  0  0  0  0  0  0  0  0  0  0  0
   38.2079   12.3529  -15.9299 C   0  0  0  0  0  0  0  0  0  0  0  0
   38.7680   13.1449  -14.9681 C   0  0  0  0  0  0  0  0  0  0  0  0
   37.9602   13.9381  -14.1446 C   0  0  0  0  0  0  0  0  0  0  0  0
   36.6165   13.8512  -14.3806 C   0  0  0  0  0  0  0  0  0  0  0  0
   36.0575   13.0395  -15.3645 C   0  0  0  0  0  0  0  0  0  0  0  0
   36.8611   12.2765  -16.1543 C   0  0  0  0  0  0  0  0  0  0  0  0
   40.0551   12.1656  -17.5481 C   0  0  0  0  0  0  0  0  0  0  0  0
   39.0797   11.5800  -16.7243 O   0  0  0  0  0  0  0  0  0  0  0  0
   34.6946   13.0140  -15.5318 O   0  0  0  0  0  0  0  0  0  0  0  0
   33.8346   13.1704  -14.4265 C   0  0  0  0  0  0  0  0  0  0  0  0
   36.3386   11.4628  -17.1371 O   0  0  0  0  0  0  0  0  0  0  0  0
   35.5429   10.3439  -16.7937 C   0  0  0  0  0  0  0  0  0  0  0  0
 32 33  1  0  0  0
 33 26  1  0  0  0
 26 27  2  0  0  0
 27 28  1  0  0  0
 28 29  2  0  0  0
 29 30  1  0  0  0
 30 34  1  0  0  0
 34 35  1  0  0  0
 30 31  2  0  0  0
 31 36  1  0  0  0
 36 37  1  0  0  0
 28  1  1  0  0  0
  1  2  2  0  0  0
  1  3  1  0  0  0
  3  4  1  0  0  0
  4  5  1  0  0  0
  5  6  1  0  0  0
  6  7  1  0  0  0
  7  8  1  0  0  0
  6  9  1  0  0  0
  9 10  1  0  0  0
 10 11  2  0  0  0
 11 12  1  0  0  0
 12 13  2  0  0  0
 13 14  1  0  0  0
 14 15  2  0  0  0
 15 16  1  0  0  0
 16 19  1  0  0  0
 19 20  1  0  0  0
 20 21  2  0  0  0
 21 22  1  0  0  0
 22 23  2  0  0  0
 23 24  1  0  0  0
 24 25  2  0  0  0
 16 17  1  0  0  0
 17 18  2  0  0  0
 31 26  1  0  0  0
  8  3  1  0  0  0
 17  9  1  0  0  0
 15 10  1  0  0  0
 25 20  1  0  0  0
M  END
> <minimizedAffinity>
-8.10711

> <CNNscore>
0.2134743631

> <CNNaffinity>
6.2105703354

> <CNN_VS>
1.3257975578

> <CNNaffinity_variance>
0.3318376243

$$$$
[H]c1c([H])c([H])c(C([H])([H])n2c(=O)n(C3([H])C([H])([H])C([H])([H])N(C(=O)c4c([H])c(OC([H])([H])[H])c(OC([H])([H])[H])c(OC([H])([H])[H])c4[H])C([H])([H])C3([H])[H])c3c([H])c([H])c([H])c([H])c32)c([H])c1[H]


 37 41  0  0  0  0  0  0  0  0999 V2000
   37.4000   13.3884  -13.1743 C   0  0  0  0  0  0  0  0  0  0  0  0
   36.2964   12.6999  -12.9820 O   0  0  0  0  0  0  0  0  0  0  0  0
   37.6853   14.3018  -12.1119 N   0  0  0  0  0  0  0  0  0  0  0  0
   38.8116   15.1781  -12.0470 C   0  0  0  0  0  0  0  0  0  0  0  0
   38.9513   16.0626  -10.8376 C   0  0  0  0  0  0  0  0  0  0  0  0
   38.1918   15.5329   -9.6995 C   0  0  0  0  0  0  0  0  0  0  0  0
   36.7410   15.4744  -10.2266 C   0  0  0  0  0  0  0  0  0  0  0  0
   36.6578   14.2400  -11.0316 C   0  0  0  0  0  0  0  0  0  0  0  0
   38.2895   16.2392   -8.4660 N   0  0  0  0  0  0  0  0  0  0  0  0
   38.1074   17.5632   -8.3619 C   0  0  0  0  0  0  0  0  0  0  0  0
   37.7978   18.5742   -9.2658 C   0  0  0  0  0  0  0  0  0  0  0  0
   37.6733   19.8603   -8.7952 C   0  0  0  0  0  0  0  0  0  0  0  0
   37.8376   20.2112   -7.4730 C   0  0  0  0  0  0  0  0  0  0  0  0
   38.1429   19.2016   -6.5925 C   0  0  0  0  0  0  0  0  0  0  0  0
   38.2763   17.8952   -7.0327 C   0  0  0  0  0  0  0  0  0  0  0  0
   38.5595   16.7382   -6.3778 N   0  0  0  0  0  0  0  0  0  0  0  0
   38.5652   15.7191   -7.2693 C   0  0  0  0  0  0  0  0  0  0  0  0
   38.7921   14.5107   -6.9824 O   0  0  0  0  0  0  0  0  0  0  0  0
   38.8189   16.5647   -4.9762 C   0  0  0  0  0  0  0  0  0  0  0  0
   40.2076   16.8905   -4.6513 C   0  0  0  0  0  0  0  0  0  0  0  0
   40.5482   18.1390   -4.1681 C   0  0  0  0  0  0  0  0  0  0  0  0
   41.8675   18.4157   -3.8664 C   0  0  0  0  0  0  0  0  0  0  0  0
   42.8580   17.4756   -4.0344 C   0  0  0  0  0  0  0  0  0  0  0  0
   42.5015   16.2466   -4.5128 C   0  0  0  0  0  0  0  0  0  0  0  0
   41.1904   15.9290   -4.8273 C   0  0  0  0  0  0  0  0  0  0  0  0
   37.9860   11.8905  -16.4812 C   0  0  0  0  0  0  0  0  0  0  0  0
   37.4036   12.2312  -15.2934 C   0  0  0  0  0  0  0  0  0  0  0  0
   38.0680   13.0742  -14.3947 C   0  0  0  0  0  0  0  0  0  0  0  0
   39.3006   13.5072  -14.7973 C   0  0  0  0  0  0  0  0  0  0  0  0
   39.8836   13.1527  -16.0113 C   0  0  0  0  0  0  0  0  0  0  0  0
   39.2204   12.3319  -16.8704 C   0  0  0  0  0  0  0  0  0  0  0  0
   35.8629   10.9256  -17.2734 C   0  0  0  0  0  0  0  0  0  0  0  0
   37.2615   11.0376  -17.3393 O   0  0  0  0  0  0  0  0  0  0  0  0
   41.1279   13.6356  -16.3349 O   0  0  0  0  0  0  0  0  0  0  0  0
   42.2710   13.1916  -15.6407 C   0  0  0  0  0  0  0  0  0  0  0  0
   39.7703   11.9623  -18.0795 O   0  0  0  0  0  0  0  0  0  0  0  0
   40.6704   10.8727  -18.1547 C   0  0  0  0  0  0  0  0  0  0  0  0
 32 33  1  0  0  0
 33 26  1  0  0  0
 26 27  2  0  0  0
 27 28  1  0  0  0
 28 29  2  0  0  0
 29 30  1  0  0  0
 30 34  1  0  0  0
 34 35  1  0  0  0
 30 31  2  0  0  0
 31 36  1  0  0  0
 36 37  1  0  0  0
 28  1  1  0  0  0
  1  2  2  0  0  0
  1  3  1  0  0  0
  3  4  1  0  0  0
  4  5  1  0  0  0
  5  6  1  0  0  0
  6  7  1  0  0  0
  7  8  1  0  0  0
  6  9  1  0  0  0
  9 10  1  0  0  0
 10 11  2  0  0  0
 11 12  1  0  0  0
 12 13  2  0  0  0
 13 14  1  0  0  0
 14 15  2  0  0  0
 15 16  1  0  0  0
 16 19  1  0  0  0
 19 20  1  0  0  0
 20 21  2  0  0  0
 21 22  1  0  0  0
 22 23  2  0  0  0
 23 24  1  0  0  0
 24 25  2  0  0  0
 16 17  1  0  0  0
 17 18  2  0  0  0
 31 26  1  0  0  0
  8  3  1  0  0  0
 17  9  1  0  0  0
 15 10  1  0  0  0
 25 20  1  0  0  0
M  END
> <minimizedAffinity>
-7.74818

> <CNNscore>
0.1975042522

> <CNNaffinity>
6.0168027878

> <CNN_VS>
1.1883441210

> <CNNaffinity_variance>
0.1967835575

$$$$
[H]c1c([H])c([H])c(C([H])([H])n2c(=O)n(C3([H])C([H])([H])C([H])([H])N(C(=O)c4c([H])c(OC([H])([H])[H])c(OC([H])([H])[H])c(OC([H])([H])[H])c4[H])C([H])([H])C3([H])[H])c3c([H])c([H])c([H])c([H])c32)c([H])c1[H]


 37 41  0  0  0  0  0  0  0  0999 V2000
   38.6510   14.7363  -13.2189 C   0  0  0  0  0  0  0  0  0  0  0  0
   39.7632   15.2954  -13.6427 O   0  0  0  0  0  0  0  0  0  0  0  0
   38.3351   15.0687  -11.8647 N   0  0  0  0  0  0  0  0  0  0  0  0
   37.1933   14.6096  -11.1391 C   0  0  0  0  0  0  0  0  0  0  0  0
   37.0213   15.0787   -9.7197 C   0  0  0  0  0  0  0  0  0  0  0  0
   37.7731   16.3141   -9.4720 C   0  0  0  0  0  0  0  0  0  0  0  0
   39.2322   15.9223   -9.7940 C   0  0  0  0  0  0  0  0  0  0  0  0
   39.3477   15.9855  -11.2641 C   0  0  0  0  0  0  0  0  0  0  0  0
   37.6457   16.9066   -8.1825 N   0  0  0  0  0  0  0  0  0  0  0  0
   37.5612   18.2303   -7.9880 C   0  0  0  0  0  0  0  0  0  0  0  0
   37.5580   19.3367   -8.8311 C   0  0  0  0  0  0  0  0  0  0  0  0
   37.4416   20.5877   -8.2722 C   0  0  0  0  0  0  0  0  0  0  0  0
   37.3271   20.8138   -6.9179 C   0  0  0  0  0  0  0  0  0  0  0  0
   37.3317   19.7111   -6.0983 C   0  0  0  0  0  0  0  0  0  0  0  0
   37.4479   18.4365   -6.6279 C   0  0  0  0  0  0  0  0  0  0  0  0
   37.4702   17.2078   -6.0469 N   0  0  0  0  0  0  0  0  0  0  0  0
   37.5917   16.2674   -7.0134 C   0  0  0  0  0  0  0  0  0  0  0  0
   37.6397   15.0227   -6.8070 O   0  0  0  0  0  0  0  0  0  0  0  0
   37.3836   16.8976   -4.6476 C   0  0  0  0  0  0  0  0  0  0  0  0
   36.0077   16.5867   -4.2593 C   0  0  0  0  0  0  0  0  0  0  0  0
   35.6316   15.2919   -3.9589 C   0  0  0  0  0  0  0  0  0  0  0  0
   34.3259   15.0300   -3.5915 C   0  0  0  0  0  0  0  0  0  0  0  0
   33.3840   16.0300   -3.5153 C   0  0  0  0  0  0  0  0  0  0  0  0
   33.7751   17.3040   -3.8157 C   0  0  0  0  0  0  0  0  0  0  0  0
   35.0740   17.6087   -4.1883 C   0  0  0  0  0  0  0  0  0  0  0  0
   35.9332   13.2807  -15.2233 C   0  0  0  0  0  0  0  0  0  0  0  0
   36.6141   14.0287  -14.3051 C   0  0  0  0  0  0  0  0  0  0  0  0
   38.0061   13.9250  -14.1988 C   0  0  0  0  0  0  0  0  0  0  0  0
   38.5970   13.0442  -15.0614 C   0  0  0  0  0  0  0  0  0  0  0  0
   37.8915   12.2872  -15.9934 C   0  0  0  0  0  0  0  0  0  0  0  0
   36.5385   12.4034  -16.0800 C   0  0  0  0  0  0  0  0  0  0  0  0
   33.7273   13.3402  -14.1295 C   0  0  0  0  0  0  0  0  0  0  0  0
   34.5324   13.4342  -15.2766 O   0  0  0  0  0  0  0  0  0  0  0  0
   38.5680   11.4259  -16.8221 O   0  0  0  0  0  0  0  0  0  0  0  0
   39.7537   11.8341  -17.4649 C   0  0  0  0  0  0  0  0  0  0  0  0
   35.8114   11.6679  -16.9918 O   0  0  0  0  0  0  0  0  0  0  0  0
   35.1818   10.4620  -16.6013 C   0  0  0  0  0  0  0  0  0  0  0  0
 32 33  1  0  0  0
 33 26  1  0  0  0
 26 27  2  0  0  0
 27 28  1  0  0  0
 28 29  2  0  0  0
 29 30  1  0  0  0
 30 34  1  0  0  0
 34 35  1  0  0  0
 30 31  2  0  0  0
 31 36  1  0  0  0
 36 37  1  0  0  0
 28  1  1  0  0  0
  1  2  2  0  0  0
  1  3  1  0  0  0
  3  4  1  0  0  0
  4  5  1  0  0  0
  5  6  1  0  0  0
  6  7  1  0  0  0
  7  8  1  0  0  0
  6  9  1  0  0  0
  9 10  1  0  0  0
 10 11  2  0  0  0
 11 12  1  0  0  0
 12 13  2  0  0  0
 13 14  1  0  0  0
 14 15  2  0  0  0
 15 16  1  0  0  0
 16 19  1  0  0  0
 19 20  1  0  0  0
 20 21  2  0  0  0
 21 22  1  0  0  0
 22 23  2  0  0  0
 23 24  1  0  0  0
 24 25  2  0  0  0
 16 17  1  0  0  0
 17 18  2  0  0  0
 31 26  1  0  0  0
  8  3  1  0  0  0
 17  9  1  0  0  0
 15 10  1  0  0  0
 25 20  1  0  0  0
M  END
> <minimizedAffinity>
-8.23847

> <CNNscore>
0.1908615828

> <CNNaffinity>
6.1771993637

> <CNN_VS>
1.1789900064

> <CNNaffinity_variance>
0.3268933892

$$$$
[H]c1c([H])c([H])c(C([H])([H])n2c(=O)n(C3([H])C([H])([H])C([H])([H])N(C(=O)c4c([H])c(OC([H])([H])[H])c(OC([H])([H])[H])c(OC([H])([H])[H])c4[H])C([H])([H])C3([H])[H])c3c([H])c([H])c([H])c([H])c32)c([H])c1[H]


 37 41  0  0  0  0  0  0  0  0999 V2000
   36.7289   14.2155  -13.7114 C   0  0  0  0  0  0  0  0  0  0  0  0
   35.4797   14.2579  -14.1198 O   0  0  0  0  0  0  0  0  0  0  0  0
   36.9403   14.9037  -12.4761 N   0  0  0  0  0  0  0  0  0  0  0  0
   38.1895   15.0253  -11.7937 C   0  0  0  0  0  0  0  0  0  0  0  0
   38.2144   15.7802  -10.4922 C   0  0  0  0  0  0  0  0  0  0  0  0
   36.8798   15.8401   -9.8855 C   0  0  0  0  0  0  0  0  0  0  0  0
   36.0227   16.5424  -10.9616 C   0  0  0  0  0  0  0  0  0  0  0  0
   35.6783   15.4959  -11.9438 C   0  0  0  0  0  0  0  0  0  0  0  0
   36.7708   16.4710   -8.6126 N   0  0  0  0  0  0  0  0  0  0  0  0
   37.1022   17.7520   -8.3976 C   0  0  0  0  0  0  0  0  0  0  0  0
   37.5872   18.7773   -9.2031 C   0  0  0  0  0  0  0  0  0  0  0  0
   37.8121   20.0087   -8.6340 C   0  0  0  0  0  0  0  0  0  0  0  0
   37.5846   20.2913   -7.3048 C   0  0  0  0  0  0  0  0  0  0  0  0
   37.1054   19.2686   -6.5224 C   0  0  0  0  0  0  0  0  0  0  0  0
   36.8683   18.0156   -7.0630 C   0  0  0  0  0  0  0  0  0  0  0  0
   36.3984   16.8627   -6.5173 N   0  0  0  0  0  0  0  0  0  0  0  0
   36.3400   15.9130   -7.4806 C   0  0  0  0  0  0  0  0  0  0  0  0
   35.9428   14.7279   -7.3022 O   0  0  0  0  0  0  0  0  0  0  0  0
   36.0128   16.6312   -5.1537 C   0  0  0  0  0  0  0  0  0  0  0  0
   34.6152   17.0011   -4.9295 C   0  0  0  0  0  0  0  0  0  0  0  0
   34.2731   18.2873   -4.5595 C   0  0  0  0  0  0  0  0  0  0  0  0
   32.9443   18.6073   -4.3588 C   0  0  0  0  0  0  0  0  0  0  0  0
   31.9458   17.6744   -4.5190 C   0  0  0  0  0  0  0  0  0  0  0  0
   32.3039   16.4080   -4.8856 C   0  0  0  0  0  0  0  0  0  0  0  0
   33.6243   16.0463   -5.0965 C   0  0  0  0  0  0  0  0  0  0  0  0
   37.7769   11.8550  -16.3291 C   0  0  0  0  0  0  0  0  0  0  0  0
   37.0055   12.5780  -15.4641 C   0  0  0  0  0  0  0  0  0  0  0  0
   37.5952   13.4949  -14.5858 C   0  0  0  0  0  0  0  0  0  0  0  0
   38.9559   13.5965  -14.6694 C   0  0  0  0  0  0  0  0  0  0  0  0
   39.7314   12.8537  -15.5561 C   0  0  0  0  0  0  0  0  0  0  0  0
   39.1378   11.9677  -16.4013 C   0  0  0  0  0  0  0  0  0  0  0  0
   35.7327   10.7283  -17.1152 C   0  0  0  0  0  0  0  0  0  0  0  0
   37.1181   10.9491  -17.1858 O   0  0  0  0  0  0  0  0  0  0  0  0
   41.0945   13.0207  -15.5721 O   0  0  0  0  0  0  0  0  0  0  0  0
   41.7685   13.5150  -14.4376 C   0  0  0  0  0  0  0  0  0  0  0  0
   39.8775   11.2173  -17.2905 O   0  0  0  0  0  0  0  0  0  0  0  0
   40.1526   11.7093  -18.5887 C   0  0  0  0  0  0  0  0  0  0  0  0
 32 33  1  0  0  0
 33 26  1  0  0  0
 26 27  2  0  0  0
 27 28  1  0  0  0
 28 29  2  0  0  0
 29 30  1  0  0  0
 30 34  1  0  0  0
 34 35  1  0  0  0
 30 31  2  0  0  0
 31 36  1  0  0  0
 36 37  1  0  0  0
 28  1  1  0  0  0
  1  2  2  0  0  0
  1  3  1  0  0  0
  3  4  1  0  0  0
  4  5  1  0  0  0
  5  6  1  0  0  0
  6  7  1  0  0  0
  7  8  1  0  0  0
  6  9  1  0  0  0
  9 10  1  0  0  0
 10 11  2  0  0  0
 11 12  1  0  0  0
 12 13  2  0  0  0
 13 14  1  0  0  0
 14 15  2  0  0  0
 15 16  1  0  0  0
 16 19  1  0  0  0
 19 20  1  0  0  0
 20 21  2  0  0  0
 21 22  1  0  0  0
 22 23  2  0  0  0
 23 24  1  0  0  0
 24 25  2  0  0  0
 16 17  1  0  0  0
 17 18  2  0  0  0
 31 26  1  0  0  0
  8  3  1  0  0  0
 17  9  1  0  0  0
 15 10  1  0  0  0
 25 20  1  0  0  0
M  END
> <minimizedAffinity>
-8.42437

> <CNNscore>
0.1813593060

> <CNNaffinity>
6.0480771065

> <CNN_VS>
1.0968750715

> <CNNaffinity_variance>
0.2956632078

$$$$
[H]c1c([H])c([H])c(C([H])([H])n2c(=O)n(C3([H])C([H])([H])C([H])([H])N(C(=O)c4c([H])c(OC([H])([H])[H])c(OC([H])([H])[H])c(OC([H])([H])[H])c4[H])C([H])([H])C3([H])[H])c3c([H])c([H])c([H])c([H])c32)c([H])c1[H]


 37 41  0  0  0  0  0  0  0  0999 V2000
   37.4556   13.4983  -13.0497 C   0  0  0  0  0  0  0  0  0  0  0  0
   36.2983   12.8749  -13.0172 O   0  0  0  0  0  0  0  0  0  0  0  0
   37.6260   14.4241  -11.9734 N   0  0  0  0  0  0  0  0  0  0  0  0
   38.7770   15.2408  -11.7518 C   0  0  0  0  0  0  0  0  0  0  0  0
   38.7795   16.1494  -10.5523 C   0  0  0  0  0  0  0  0  0  0  0  0
   37.8258   15.6921   -9.5354 C   0  0  0  0  0  0  0  0  0  0  0  0
   36.4720   15.6963  -10.2791 C   0  0  0  0  0  0  0  0  0  0  0  0
   36.4433   14.4466  -11.0639 C   0  0  0  0  0  0  0  0  0  0  0  0
   37.7732   16.4258   -8.3151 N   0  0  0  0  0  0  0  0  0  0  0  0
   37.7544   17.7652   -8.2642 C   0  0  0  0  0  0  0  0  0  0  0  0
   37.7680   18.7731   -9.2230 C   0  0  0  0  0  0  0  0  0  0  0  0
   37.7279   20.0812   -8.8010 C   0  0  0  0  0  0  0  0  0  0  0  0
   37.6745   20.4575   -7.4766 C   0  0  0  0  0  0  0  0  0  0  0  0
   37.6615   19.4507   -6.5418 C   0  0  0  0  0  0  0  0  0  0  0  0
   37.7015   18.1224   -6.9319 C   0  0  0  0  0  0  0  0  0  0  0  0
   37.6917   16.9639   -6.2208 N   0  0  0  0  0  0  0  0  0  0  0  0
   37.7352   15.9199   -7.0818 C   0  0  0  0  0  0  0  0  0  0  0  0
   37.7362   14.7039   -6.7419 O   0  0  0  0  0  0  0  0  0  0  0  0
   37.6443   16.8112   -4.7939 C   0  0  0  0  0  0  0  0  0  0  0  0
   36.2899   16.4938   -4.3409 C   0  0  0  0  0  0  0  0  0  0  0  0
   35.2678   17.4150   -4.4625 C   0  0  0  0  0  0  0  0  0  0  0  0
   33.9983   17.0848   -4.0293 C   0  0  0  0  0  0  0  0  0  0  0  0
   33.7221   15.8553   -3.4770 C   0  0  0  0  0  0  0  0  0  0  0  0
   34.7457   14.9575   -3.3655 C   0  0  0  0  0  0  0  0  0  0  0  0
   36.0324   15.2491   -3.7876 C   0  0  0  0  0  0  0  0  0  0  0  0
   38.4973   11.7852  -16.1323 C   0  0  0  0  0  0  0  0  0  0  0  0
   37.7578   12.1941  -15.0590 C   0  0  0  0  0  0  0  0  0  0  0  0
   38.2839   13.1158  -14.1460 C   0  0  0  0  0  0  0  0  0  0  0  0
   39.5515   13.5510  -14.4153 C   0  0  0  0  0  0  0  0  0  0  0  0
   40.2954   13.1266  -15.5134 C   0  0  0  0  0  0  0  0  0  0  0  0
   39.7649   12.2298  -16.3888 C   0  0  0  0  0  0  0  0  0  0  0  0
   36.5325   10.8717  -17.3032 C   0  0  0  0  0  0  0  0  0  0  0  0
   37.9066   10.8550  -17.0122 O   0  0  0  0  0  0  0  0  0  0  0  0
   41.5633   13.6175  -15.7068 O   0  0  0  0  0  0  0  0  0  0  0  0
   42.6420   13.1371  -14.9377 C   0  0  0  0  0  0  0  0  0  0  0  0
   40.4756   11.7899  -17.4852 O   0  0  0  0  0  0  0  0  0  0  0  0
   40.4055   12.4900  -18.7132 C   0  0  0  0  0  0  0  0  0  0  0  0
 32 33  1  0  0  0
 33 26  1  0  0  0
 26 27  2  0  0  0
 27 28  1  0  0  0
 28 29  2  0  0  0
 29 30  1  0  0  0
 30 34  1  0  0  0
 34 35  1  0  0  0
 30 31  2  0  0  0
 31 36  1  0  0  0
 36 37  1  0  0  0
 28  1  1  0  0  0
  1  2  2  0  0  0
  1  3  1  0  0  0
  3  4  1  0  0  0
  4  5  1  0  0  0
  5  6  1  0  0  0
  6  7  1  0  0  0
  7  8  1  0  0  0
  6  9  1  0  0  0
  9 10  1  0  0  0
 10 11  2  0  0  0
 11 12  1  0  0  0
 12 13  2  0  0  0
 13 14  1  0  0  0
 14 15  2  0  0  0
 15 16  1  0  0  0
 16 19  1  0  0  0
 19 20  1  0  0  0
 20 21  2  0  0  0
 21 22  1  0  0  0
 22 23  2  0  0  0
 23 24  1  0  0  0
 24 25  2  0  0  0
 16 17  1  0  0  0
 17 18  2  0  0  0
 31 26  1  0  0  0
  8  3  1  0  0  0
 17  9  1  0  0  0
 15 10  1  0  0  0
 25 20  1  0  0  0
M  END
> <minimizedAffinity>
-8.01103

> <CNNscore>
0.1791114956

> <CNNaffinity>
6.1241960526

> <CNN_VS>
1.0969139338

> <CNNaffinity_variance>
0.2000522316

$$$$
[H]c1c([H])c([H])c(C([H])([H])n2c(=O)n(C3([H])C([H])([H])C([H])([H])N(C(=O)c4c([H])c(OC([H])([H])[H])c(OC([H])([H])[H])c(OC([H])([H])[H])c4[H])C([H])([H])C3([H])[H])c3c([H])c([H])c([H])c([H])c32)c([H])c1[H]


 37 41  0  0  0  0  0  0  0  0999 V2000
   36.6330   14.2291  -13.3523 C   0  0  0  0  0  0  0  0  0  0  0  0
   35.3398   14.3478  -13.5585 O   0  0  0  0  0  0  0  0  0  0  0  0
   37.0823   14.9227  -12.1854 N   0  0  0  0  0  0  0  0  0  0  0  0
   38.4297   14.9724  -11.7134 C   0  0  0  0  0  0  0  0  0  0  0  0
   38.7100   15.7459  -10.4534 C   0  0  0  0  0  0  0  0  0  0  0  0
   37.4961   15.9049   -9.6447 C   0  0  0  0  0  0  0  0  0  0  0  0
   36.5239   16.6444  -10.5902 C   0  0  0  0  0  0  0  0  0  0  0  0
   35.9616   15.6066  -11.4763 C   0  0  0  0  0  0  0  0  0  0  0  0
   37.6322   16.5633   -8.3884 N   0  0  0  0  0  0  0  0  0  0  0  0
   37.6502   17.8972   -8.2569 C   0  0  0  0  0  0  0  0  0  0  0  0
   37.5507   18.9615   -9.1472 C   0  0  0  0  0  0  0  0  0  0  0  0
   37.5993   20.2418   -8.6479 C   0  0  0  0  0  0  0  0  0  0  0  0
   37.7414   20.5371   -7.3096 C   0  0  0  0  0  0  0  0  0  0  0  0
   37.8382   19.4754   -6.4429 C   0  0  0  0  0  0  0  0  0  0  0  0
   37.7936   18.1729   -6.9120 C   0  0  0  0  0  0  0  0  0  0  0  0
   37.8586   16.9734   -6.2758 N   0  0  0  0  0  0  0  0  0  0  0  0
   37.7573   15.9835   -7.1940 C   0  0  0  0  0  0  0  0  0  0  0  0
   37.7795   14.7491   -6.9296 O   0  0  0  0  0  0  0  0  0  0  0  0
   38.0094   16.7344   -4.8681 C   0  0  0  0  0  0  0  0  0  0  0  0
   39.3986   16.9162   -4.4468 C   0  0  0  0  0  0  0  0  0  0  0  0
   39.7859   18.0442   -3.7498 C   0  0  0  0  0  0  0  0  0  0  0  0
   41.1043   18.1857   -3.3621 C   0  0  0  0  0  0  0  0  0  0  0  0
   42.0480   17.2276   -3.6524 C   0  0  0  0  0  0  0  0  0  0  0  0
   41.6458   16.1191   -4.3420 C   0  0  0  0  0  0  0  0  0  0  0  0
   40.3340   15.9388   -4.7490 C   0  0  0  0  0  0  0  0  0  0  0  0
   39.3945   12.8366  -15.3416 C   0  0  0  0  0  0  0  0  0  0  0  0
   38.6921   13.5659  -14.4247 C   0  0  0  0  0  0  0  0  0  0  0  0
   37.3011   13.4377  -14.3329 C   0  0  0  0  0  0  0  0  0  0  0  0
   36.7339   12.5532  -15.2074 C   0  0  0  0  0  0  0  0  0  0  0  0
   37.4612   11.8151  -16.1378 C   0  0  0  0  0  0  0  0  0  0  0  0
   38.8129   11.9551  -16.2103 C   0  0  0  0  0  0  0  0  0  0  0  0
   41.4681   13.8235  -14.4513 C   0  0  0  0  0  0  0  0  0  0  0  0
   40.7929   13.0148  -15.3804 O   0  0  0  0  0  0  0  0  0  0  0  0
   36.8079   10.9477  -16.9785 O   0  0  0  0  0  0  0  0  0  0  0  0
   35.4315   11.1025  -17.2381 C   0  0  0  0  0  0  0  0  0  0  0  0
   39.5612   11.2391  -17.1203 O   0  0  0  0  0  0  0  0  0  0  0  0
   39.9199   11.8131  -18.3633 C   0  0  0  0  0  0  0  0  0  0  0  0
 32 33  1  0  0  0
 33 26  1  0  0  0
 26 27  2  0  0  0
 27 28  1  0  0  0
 28 29  2  0  0  0
 29 30  1  0  0  0
 30 34  1  0  0  0
 34 35  1  0  0  0
 30 31  2  0  0  0
 31 36  1  0  0  0
 36 37  1  0  0  0
 28  1  1  0  0  0
  1  2  2  0  0  0
  1  3  1  0  0  0
  3  4  1  0  0  0
  4  5  1  0  0  0
  5  6  1  0  0  0
  6  7  1  0  0  0
  7  8  1  0  0  0
  6  9  1  0  0  0
  9 10  1  0  0  0
 10 11  2  0  0  0
 11 12  1  0  0  0
 12 13  2  0  0  0
 13 14  1  0  0  0
 14 15  2  0  0  0
 15 16  1  0  0  0
 16 19  1  0  0  0
 19 20  1  0  0  0
 20 21  2  0  0  0
 21 22  1  0  0  0
 22 23  2  0  0  0
 23 24  1  0  0  0
 24 25  2  0  0  0
 16 17  1  0  0  0
 17 18  2  0  0  0
 31 26  1  0  0  0
  8  3  1  0  0  0
 17  9  1  0  0  0
 15 10  1  0  0  0
 25 20  1  0  0  0
M  END
> <minimizedAffinity>
-7.81263

> <CNNscore>
0.1776334494

> <CNNaffinity>
5.9969735146

> <CNN_VS>
1.0652630329

> <CNNaffinity_variance>
0.2199405730

$$$$
[H]c1c([H])c([H])c(C([H])([H])n2c(=O)n(C3([H])C([H])([H])C([H])([H])N(C(=O)c4c([H])c(OC([H])([H])[H])c(OC([H])([H])[H])c(OC([H])([H])[H])c4[H])C([H])([H])C3([H])[H])c3c([H])c([H])c([H])c([H])c32)c([H])c1[H]


 37 41  0  0  0  0  0  0  0  0999 V2000
   38.7843   14.3327  -13.7117 C   0  0  0  0  0  0  0  0  0  0  0  0
   39.8641   15.0427  -13.9547 O   0  0  0  0  0  0  0  0  0  0  0  0
   38.1326   14.6996  -12.4930 N   0  0  0  0  0  0  0  0  0  0  0  0
   36.9430   14.1038  -11.9728 C   0  0  0  0  0  0  0  0  0  0  0  0
   36.3949   14.6341  -10.6756 C   0  0  0  0  0  0  0  0  0  0  0  0
   36.8775   15.9939  -10.4095 C   0  0  0  0  0  0  0  0  0  0  0  0
   38.4138   15.8356  -10.3832 C   0  0  0  0  0  0  0  0  0  0  0  0
   38.8377   15.8153  -11.7968 C   0  0  0  0  0  0  0  0  0  0  0  0
   36.3821   16.6441   -9.2425 N   0  0  0  0  0  0  0  0  0  0  0  0
   36.7910   17.8587   -8.8494 C   0  0  0  0  0  0  0  0  0  0  0  0
   37.6946   18.7886   -9.3534 C   0  0  0  0  0  0  0  0  0  0  0  0
   37.8630   19.9738   -8.6768 C   0  0  0  0  0  0  0  0  0  0  0  0
   37.1863   20.2990   -7.5215 C   0  0  0  0  0  0  0  0  0  0  0  0
   36.2973   19.3706   -7.0364 C   0  0  0  0  0  0  0  0  0  0  0  0
   36.1037   18.1662   -7.6925 C   0  0  0  0  0  0  0  0  0  0  0  0
   35.2949   17.1058   -7.4294 N   0  0  0  0  0  0  0  0  0  0  0  0
   35.4715   16.1696   -8.3915 C   0  0  0  0  0  0  0  0  0  0  0  0
   34.8656   15.0631   -8.4414 O   0  0  0  0  0  0  0  0  0  0  0  0
   34.3849   16.9485   -6.3299 C   0  0  0  0  0  0  0  0  0  0  0  0
   33.0834   17.5450   -6.6314 C   0  0  0  0  0  0  0  0  0  0  0  0
   32.1289   16.8420   -7.3406 C   0  0  0  0  0  0  0  0  0  0  0  0
   30.9077   17.4305   -7.6065 C   0  0  0  0  0  0  0  0  0  0  0  0
   30.6139   18.7056   -7.1810 C   0  0  0  0  0  0  0  0  0  0  0  0
   31.5704   19.3846   -6.4808 C   0  0  0  0  0  0  0  0  0  0  0  0
   32.8072   18.8308   -6.1934 C   0  0  0  0  0  0  0  0  0  0  0  0
   36.8146   12.1070  -15.8771 C   0  0  0  0  0  0  0  0  0  0  0  0
   37.1567   13.0327  -14.9326 C   0  0  0  0  0  0  0  0  0  0  0  0
   38.5007   13.3571  -14.7127 C   0  0  0  0  0  0  0  0  0  0  0  0
   39.4014   12.6913  -15.4964 C   0  0  0  0  0  0  0  0  0  0  0  0
   39.0399   11.7494  -16.4564 C   0  0  0  0  0  0  0  0  0  0  0  0
   37.7275   11.4488  -16.6539 C   0  0  0  0  0  0  0  0  0  0  0  0
   34.4828   12.1949  -15.0892 C   0  0  0  0  0  0  0  0  0  0  0  0
   35.4428   11.8276  -16.0465 O   0  0  0  0  0  0  0  0  0  0  0  0
   40.0131   11.1283  -17.2001 O   0  0  0  0  0  0  0  0  0  0  0  0
   40.8597   11.8783  -18.0406 C   0  0  0  0  0  0  0  0  0  0  0  0
   37.3372   10.5210  -17.5961 O   0  0  0  0  0  0  0  0  0  0  0  0
   37.4847   10.7954  -18.9767 C   0  0  0  0  0  0  0  0  0  0  0  0
 32 33  1  0  0  0
 33 26  1  0  0  0
 26 27  2  0  0  0
 27 28  1  0  0  0
 28 29  2  0  0  0
 29 30  1  0  0  0
 30 34  1  0  0  0
 34 35  1  0  0  0
 30 31  2  0  0  0
 31 36  1  0  0  0
 36 37  1  0  0  0
 28  1  1  0  0  0
  1  2  2  0  0  0
  1  3  1  0  0  0
  3  4  1  0  0  0
  4  5  1  0  0  0
  5  6  1  0  0  0
  6  7  1  0  0  0
  7  8  1  0  0  0
  6  9  1  0  0  0
  9 10  1  0  0  0
 10 11  2  0  0  0
 11 12  1  0  0  0
 12 13  2  0  0  0
 13 14  1  0  0  0
 14 15  2  0  0  0
 15 16  1  0  0  0
 16 19  1  0  0  0
 19 20  1  0  0  0
 20 21  2  0  0  0
 21 22  1  0  0  0
 22 23  2  0  0  0
 23 24  1  0  0  0
 24 25  2  0  0  0
 16 17  1  0  0  0
 17 18  2  0  0  0
 31 26  1  0  0  0
  8  3  1  0  0  0
 17  9  1  0  0  0
 15 10  1  0  0  0
 25 20  1  0  0  0
M  END
> <minimizedAffinity>
-8.53427

> <CNNscore>
0.1710637510

> <CNNaffinity>
6.3002166748

> <CNN_VS>
1.0777386427

> <CNNaffinity_variance>
0.2630199790

$$$$
[H]OC([H])([H])[C@@]1([H])[C@]([H])(O[H])[C@@]([H])(O[H])[C@]([H])(O[H])[C@@]([H])(O[H])[C@]1([H])O[H]


 19 19  0  0  0  0  0  0  0  0999 V2000
   38.5489   16.1873   -8.3011 C   0  0  0  0  0  0  0  0  0  0  0  0
   37.9136   16.7472   -7.0807 C   0  0  0  0  0  0  0  0  0  0  0  0
   36.7339   16.0630   -6.7623 O   0  0  0  0  0  0  0  0  0  0  0  0
   37.6145   18.2207   -7.1667 C   0  0  0  0  0  0  0  0  0  0  0  0
   38.7707   18.9481   -6.9769 O   0  0  0  0  0  0  0  0  0  0  0  0
   36.8647   18.5646   -8.4006 C   0  0  0  0  0  0  0  0  0  0  0  0
   35.5359   18.1137   -8.2259 O   0  0  0  0  0  0  0  0  0  0  0  0
   37.3889   17.9609   -9.6520 C   0  0  0  0  0  0  0  0  0  0  0  0
   37.7095   18.9884  -10.5392 O   0  0  0  0  0  0  0  0  0  0  0  0
   38.6185   17.1128   -9.4643 C   0  0  0  0  0  0  0  0  0  0  0  0
   38.7246   16.3115  -10.6272 O   0  0  0  0  0  0  0  0  0  0  0  0
   36.4669   16.2346   -5.8266 H   0  0  0  0  0  0  0  0  0  0  0  0
   39.1227   19.3753   -7.7712 H   0  0  0  0  0  0  0  0  0  0  0  0
   35.1405   17.8132   -9.0697 H   0  0  0  0  0  0  0  0  0  0  0  0
   38.5684   19.4019  -10.2705 H   0  0  0  0  0  0  0  0  0  0  0  0
   38.4464   16.8703  -11.3919 H   0  0  0  0  0  0  0  0  0  0  0  0
   40.9053   16.5536   -8.6114 O   0  0  0  0  0  0  0  0  0  0  0  0
   39.9691   15.7086   -8.0080 C   0  0  0  0  0  0  0  0  0  0  0  0
   41.5822   16.8006   -7.9198 H   0  0  0  0  0  0  0  0  0  0  0  0
 17 18  1  0  0  0
 18  1  1  0  0  0
  1  2  1  0  0  0
  2  3  1  0  0  0
  2  4  1  0  0  0
  4  5  1  0  0  0
  4  6  1  0  0  0
  6  7  1  0  0  0
  6  8  1  0  0  0
  8  9  1  0  0  0
  8 10  1  0  0  0
 10 11  1  0  0  0
 10  1  1  0  0  0
 17 19  1  0  0  0
  3 12  1  0  0  0
  5 13  1  0  0  0
  7 14  1  0  0  0
  9 15  1  0  0  0
 11 16  1  0  0  0
M  END
> <minimizedAffinity>
-3.93568

> <CNNscore>
0.6126140952

> <CNNaffinity>
3.0166556835

> <CNN_VS>
1.8480458260

> <CNNaffinity_variance>
0.0506531000

$$$$
[H]OC([H])([H])[C@@]1([H])[C@]([H])(O[H])[C@@]([H])(O[H])[C@]([H])(O[H])[C@@]([H])(O[H])[C@]1([H])O[H]


 19 19  0  0  0  0  0  0  0  0999 V2000
   36.9651   15.1160   -7.3703 C   0  0  0  0  0  0  0  0  0  0  0  0
   37.5241   16.3756   -6.8162 C   0  0  0  0  0  0  0  0  0  0  0  0
   36.6187   16.9932   -5.9444 O   0  0  0  0  0  0  0  0  0  0  0  0
   37.9483   17.3708   -7.8638 C   0  0  0  0  0  0  0  0  0  0  0  0
   39.1594   16.9962   -8.4068 O   0  0  0  0  0  0  0  0  0  0  0  0
   36.8763   17.6203   -8.8597 C   0  0  0  0  0  0  0  0  0  0  0  0
   35.8935   18.4185   -8.2302 O   0  0  0  0  0  0  0  0  0  0  0  0
   36.2053   16.4058   -9.3890 C   0  0  0  0  0  0  0  0  0  0  0  0
   36.3608   16.3821  -10.7750 O   0  0  0  0  0  0  0  0  0  0  0  0
   36.7439   15.1108   -8.8420 C   0  0  0  0  0  0  0  0  0  0  0  0
   35.7579   14.1303   -9.1106 O   0  0  0  0  0  0  0  0  0  0  0  0
   37.0755   17.6556   -5.3710 H   0  0  0  0  0  0  0  0  0  0  0  0
   39.1165   16.6565   -9.3124 H   0  0  0  0  0  0  0  0  0  0  0  0
   34.9935   18.2085   -8.5535 H   0  0  0  0  0  0  0  0  0  0  0  0
   37.2783   16.0849  -11.0002 H   0  0  0  0  0  0  0  0  0  0  0  0
   35.3751   14.3378   -9.9966 H   0  0  0  0  0  0  0  0  0  0  0  0
   37.0891   12.8122   -6.6916 O   0  0  0  0  0  0  0  0  0  0  0  0
   37.8613   13.9257   -7.0355 C   0  0  0  0  0  0  0  0  0  0  0  0
   37.4224   12.0351   -7.2230 H   0  0  0  0  0  0  0  0  0  0  0  0
 17 18  1  0  0  0
 18  1  1  0  0  0
  1  2  1  0  0  0
  2  3  1  0  0  0
  2  4  1  0  0  0
  4  5  1  0  0  0
  4  6  1  0  0  0
  6  7  1  0  0  0
  6  8  1  0  0  0
  8  9  1  0  0  0
  8 10  1  0  0  0
 10 11  1  0  0  0
 10  1  1  0  0  0
 17 19  1  0  0  0
  3 12  1  0  0  0
  5 13  1  0  0  0
  7 14  1  0  0  0
  9 15  1  0  0  0
 11 16  1  0  0  0
M  END
> <minimizedAffinity>
-4.09211

> <CNNscore>
0.5331887603

> <CNNaffinity>
2.9971468449

> <CNN_VS>
1.5980449915

> <CNNaffinity_variance>
0.1241585985

$$$$
[H]OC([H])([H])[C@@]1([H])[C@]([H])(O[H])[C@@]([H])(O[H])[C@]([H])(O[H])[C@@]([H])(O[H])[C@]1([H])O[H]


 19 19  0  0  0  0  0  0  0  0999 V2000
   38.5096   16.8737   -9.4915 C   0  0  0  0  0  0  0  0  0  0  0  0
   37.2996   16.5151  -10.2749 C   0  0  0  0  0  0  0  0  0  0  0  0
   36.7333   17.6437  -10.8805 O   0  0  0  0  0  0  0  0  0  0  0  0
   36.2386   15.8075   -9.4739 C   0  0  0  0  0  0  0  0  0  0  0  0
   36.5898   14.4866   -9.2895 O   0  0  0  0  0  0  0  0  0  0  0  0
   35.9055   16.5375   -8.2252 C   0  0  0  0  0  0  0  0  0  0  0  0
   35.1409   17.6697   -8.5900 O   0  0  0  0  0  0  0  0  0  0  0  0
   37.0708   17.0109   -7.4356 C   0  0  0  0  0  0  0  0  0  0  0  0
   36.9987   16.4508   -6.1602 O   0  0  0  0  0  0  0  0  0  0  0  0
   38.4081   16.6480   -8.0241 C   0  0  0  0  0  0  0  0  0  0  0  0
   39.3542   17.5014   -7.4059 O   0  0  0  0  0  0  0  0  0  0  0  0
   36.1190   17.3833  -11.6092 H   0  0  0  0  0  0  0  0  0  0  0  0
   36.8642   14.2559   -8.3901 H   0  0  0  0  0  0  0  0  0  0  0  0
   35.3158   18.4313   -8.0001 H   0  0  0  0  0  0  0  0  0  0  0  0
   37.2913   15.5053   -6.1967 H   0  0  0  0  0  0  0  0  0  0  0  0
   39.0797   17.6057   -6.4634 H   0  0  0  0  0  0  0  0  0  0  0  0
   39.6792   14.7740   -9.5742 O   0  0  0  0  0  0  0  0  0  0  0  0
   39.7322   16.1072   -9.9915 C   0  0  0  0  0  0  0  0  0  0  0  0
   39.8470   14.1984  -10.3729 H   0  0  0  0  0  0  0  0  0  0  0  0
 17 18  1  0  0  0
 18  1  1  0  0  0
  1  2  1  0  0  0
  2  3  1  0  0  0
  2  4  1  0  0  0
  4  5  1  0  0  0
  4  6  1  0  0  0
  6  7  1  0  0  0
  6  8  1  0  0  0
  8  9  1  0  0  0
  8 10  1  0  0  0
 10 11  1  0  0  0
 10  1  1  0  0  0
 17 19  1  0  0  0
  3 12  1  0  0  0
  5 13  1  0  0  0
  7 14  1  0  0  0
  9 15  1  0  0  0
 11 16  1  0  0  0
M  END
> <minimizedAffinity>
-4.00737

> <CNNscore>
0.4779589176

> <CNNaffinity>
2.9860026836

> <CNN_VS>
1.4271866083

> <CNNaffinity_variance>
0.0591542497

$$$$
[H]OC([H])([H])[C@@]1([H])[C@]([H])(O[H])[C@@]([H])(O[H])[C@]([H])(O[H])[C@@]([H])(O[H])[C@]1([H])O[H]


 19 19  0  0  0  0  0  0  0  0999 V2000
   37.3457   15.4179   -8.8006 C   0  0  0  0  0  0  0  0  0  0  0  0
   36.0419   15.0773   -9.4256 C   0  0  0  0  0  0  0  0  0  0  0  0
   36.1888   14.0772  -10.3949 O   0  0  0  0  0  0  0  0  0  0  0  0
   35.3323   16.2536  -10.0426 C   0  0  0  0  0  0  0  0  0  0  0  0
   34.7354   17.0131   -9.0582 O   0  0  0  0  0  0  0  0  0  0  0  0
   36.2149   17.0163  -10.9603 C   0  0  0  0  0  0  0  0  0  0  0  0
   36.3629   16.2482  -12.1383 O   0  0  0  0  0  0  0  0  0  0  0  0
   37.5727   17.3121  -10.4367 C   0  0  0  0  0  0  0  0  0  0  0  0
   37.7534   18.6951  -10.4295 O   0  0  0  0  0  0  0  0  0  0  0  0
   37.8234   16.8066   -9.0409 C   0  0  0  0  0  0  0  0  0  0  0  0
   39.2296   16.7973   -8.8728 O   0  0  0  0  0  0  0  0  0  0  0  0
   35.3194   13.6573  -10.6045 H   0  0  0  0  0  0  0  0  0  0  0  0
   35.1600   17.8652   -8.8823 H   0  0  0  0  0  0  0  0  0  0  0  0
   37.2504   16.3607  -12.5360 H   0  0  0  0  0  0  0  0  0  0  0  0
   37.2708   19.0881   -9.6590 H   0  0  0  0  0  0  0  0  0  0  0  0
   39.5831   17.5947   -9.3350 H   0  0  0  0  0  0  0  0  0  0  0  0
   37.2912   16.4280   -6.6189 O   0  0  0  0  0  0  0  0  0  0  0  0
   37.3012   15.2014   -7.2896 C   0  0  0  0  0  0  0  0  0  0  0  0
   36.5480   16.4040   -5.9521 H   0  0  0  0  0  0  0  0  0  0  0  0
 17 18  1  0  0  0
 18  1  1  0  0  0
  1  2  1  0  0  0
  2  3  1  0  0  0
  2  4  1  0  0  0
  4  5  1  0  0  0
  4  6  1  0  0  0
  6  7  1  0  0  0
  6  8  1  0  0  0
  8  9  1  0  0  0
  8 10  1  0  0  0
 10 11  1  0  0  0
 10  1  1  0  0  0
 17 19  1  0  0  0
  3 12  1  0  0  0
  5 13  1  0  0  0
  7 14  1  0  0  0
  9 15  1  0  0  0
 11 16  1  0  0  0
M  END
> <minimizedAffinity>
-4.26898

> <CNNscore>
0.4665592611

> <CNNaffinity>
2.9801189899

> <CNN_VS>
1.3904020786

> <CNNaffinity_variance>
0.0862254873

$$$$
[H]OC([H])([H])[C@@]1([H])[C@]([H])(O[H])[C@@]([H])(O[H])[C@]([H])(O[H])[C@@]([H])(O[H])[C@]1([H])O[H]


 19 19  0  0  0  0  0  0  0  0999 V2000
   38.1692   16.4102  -10.4195 C   0  0  0  0  0  0  0  0  0  0  0  0
   37.1987   17.5037  -10.1574 C   0  0  0  0  0  0  0  0  0  0  0  0
   37.7352   18.7518  -10.4978 O   0  0  0  0  0  0  0  0  0  0  0  0
   36.7045   17.5568   -8.7359 C   0  0  0  0  0  0  0  0  0  0  0  0
   35.7554   16.5776   -8.5300 O   0  0  0  0  0  0  0  0  0  0  0  0
   37.8215   17.5486   -7.7584 C   0  0  0  0  0  0  0  0  0  0  0  0
   38.4233   18.8277   -7.7953 O   0  0  0  0  0  0  0  0  0  0  0  0
   38.8813   16.5399   -8.0128 C   0  0  0  0  0  0  0  0  0  0  0  0
   38.9796   15.7094   -6.8964 O   0  0  0  0  0  0  0  0  0  0  0  0
   38.6335   15.6690   -9.2155 C   0  0  0  0  0  0  0  0  0  0  0  0
   39.8819   15.0856   -9.5423 O   0  0  0  0  0  0  0  0  0  0  0  0
   37.0222   19.4291  -10.5934 H   0  0  0  0  0  0  0  0  0  0  0  0
   36.0455   15.8321   -7.9846 H   0  0  0  0  0  0  0  0  0  0  0  0
   39.3881   18.7797   -7.6354 H   0  0  0  0  0  0  0  0  0  0  0  0
   38.2322   15.0595   -6.9004 H   0  0  0  0  0  0  0  0  0  0  0  0
   40.3397   14.8824   -8.6917 H   0  0  0  0  0  0  0  0  0  0  0  0
   38.6165   14.6713  -12.0193 O   0  0  0  0  0  0  0  0  0  0  0  0
   37.5909   15.3875  -11.3951 C   0  0  0  0  0  0  0  0  0  0  0  0
   38.3986   13.6996  -11.9434 H   0  0  0  0  0  0  0  0  0  0  0  0
 17 18  1  0  0  0
 18  1  1  0  0  0
  1  2  1  0  0  0
  2  3  1  0  0  0
  2  4  1  0  0  0
  4  5  1  0  0  0
  4  6  1  0  0  0
  6  7  1  0  0  0
  6  8  1  0  0  0
  8  9  1  0  0  0
  8 10  1  0  0  0
 10 11  1  0  0  0
 10  1  1  0  0  0
 17 19  1  0  0  0
  3 12  1  0  0  0
  5 13  1  0  0  0
  7 14  1  0  0  0
  9 15  1  0  0  0
 11 16  1  0  0  0
M  END
> <minimizedAffinity>
-4.19947

> <CNNscore>
0.4272075593

> <CNNaffinity>
2.9240961075

> <CNN_VS>
1.2491959333

> <CNNaffinity_variance>
0.0796927661

$$$$
[H]OC([H])([H])[C@@]1([H])[C@]([H])(O[H])[C@@]([H])(O[H])[C@]([H])(O[H])[C@@]([H])(O[H])[C@]1([H])O[H]


 19 19  0  0  0  0  0  0  0  0999 V2000
   37.1391   15.8935  -10.4264 C   0  0  0  0  0  0  0  0  0  0  0  0
   38.3375   16.7497  -10.2340 C   0  0  0  0  0  0  0  0  0  0  0  0
   39.2952   16.1116   -9.4359 O   0  0  0  0  0  0  0  0  0  0  0  0
   38.0359   18.1027   -9.6456 C   0  0  0  0  0  0  0  0  0  0  0  0
   37.5180   18.9340  -10.6166 O   0  0  0  0  0  0  0  0  0  0  0  0
   37.2116   18.0026   -8.4154 C   0  0  0  0  0  0  0  0  0  0  0  0
   38.0533   17.5322   -7.3811 O   0  0  0  0  0  0  0  0  0  0  0  0
   36.0454   17.0875   -8.5043 C   0  0  0  0  0  0  0  0  0  0  0  0
   34.8874   17.8184   -8.2391 O   0  0  0  0  0  0  0  0  0  0  0  0
   35.8764   16.4260   -9.8461 C   0  0  0  0  0  0  0  0  0  0  0  0
   35.0177   15.3200   -9.6337 O   0  0  0  0  0  0  0  0  0  0  0  0
   40.1804   16.5389   -9.5358 H   0  0  0  0  0  0  0  0  0  0  0  0
   36.5725   19.1248  -10.5330 H   0  0  0  0  0  0  0  0  0  0  0  0
   37.5684   16.9630   -6.7490 H   0  0  0  0  0  0  0  0  0  0  0  0
   34.6441   18.3540   -9.0358 H   0  0  0  0  0  0  0  0  0  0  0  0
   34.3414   15.5998   -8.9713 H   0  0  0  0  0  0  0  0  0  0  0  0
   35.7956   16.3738  -12.3623 O   0  0  0  0  0  0  0  0  0  0  0  0
   36.8883   15.6286  -11.9093 C   0  0  0  0  0  0  0  0  0  0  0  0
   36.0738   16.8438  -13.1985 H   0  0  0  0  0  0  0  0  0  0  0  0
 17 18  1  0  0  0
 18  1  1  0  0  0
  1  2  1  0  0  0
  2  3  1  0  0  0
  2  4  1  0  0  0
  4  5  1  0  0  0
  4  6  1  0  0  0
  6  7  1  0  0  0
  6  8  1  0  0  0
  8  9  1  0  0  0
  8 10  1  0  0  0
 10 11  1  0  0  0
 10  1  1  0  0  0
 17 19  1  0  0  0
  3 12  1  0  0  0
  5 13  1  0  0  0
  7 14  1  0  0  0
  9 15  1  0  0  0
 11 16  1  0  0  0
M  END
> <minimizedAffinity>
-4.62571

> <CNNscore>
0.4138414562

> <CNNaffinity>
2.9308495522

> <CNN_VS>
1.2129070759

> <CNNaffinity_variance>
0.1969890147

$$$$
[H]OC([H])([H])[C@@]1([H])[C@]([H])(O[H])[C@@]([H])(O[H])[C@]([H])(O[H])[C@@]([H])(O[H])[C@]1([H])O[H]


 19 19  0  0  0  0  0  0  0  0999 V2000
   38.5045   16.6144   -9.3634 C   0  0  0  0  0  0  0  0  0  0  0  0
   37.7051   17.5851  -10.1540 C   0  0  0  0  0  0  0  0  0  0  0  0
   37.3466   18.6968   -9.3814 O   0  0  0  0  0  0  0  0  0  0  0  0
   36.4625   16.9980  -10.7696 C   0  0  0  0  0  0  0  0  0  0  0  0
   36.7932   16.2613  -11.8876 O   0  0  0  0  0  0  0  0  0  0  0  0
   35.6389   16.2699   -9.7723 C   0  0  0  0  0  0  0  0  0  0  0  0
   35.0056   17.2389   -8.9603 O   0  0  0  0  0  0  0  0  0  0  0  0
   36.3878   15.3484   -8.8805 C   0  0  0  0  0  0  0  0  0  0  0  0
   35.8698   14.0627   -9.0361 O   0  0  0  0  0  0  0  0  0  0  0  0
   37.8670   15.2861   -9.1536 C   0  0  0  0  0  0  0  0  0  0  0  0
   38.4568   14.7201   -7.9970 O   0  0  0  0  0  0  0  0  0  0  0  0
   37.0709   19.4523   -9.9552 H   0  0  0  0  0  0  0  0  0  0  0  0
   36.7187   15.3015  -11.7843 H   0  0  0  0  0  0  0  0  0  0  0  0
   34.8992   16.9267   -8.0384 H   0  0  0  0  0  0  0  0  0  0  0  0
   36.2086   13.6690   -9.8794 H   0  0  0  0  0  0  0  0  0  0  0  0
   37.8397   14.0240   -7.6669 H   0  0  0  0  0  0  0  0  0  0  0  0
   39.7780   15.3789  -10.9868 O   0  0  0  0  0  0  0  0  0  0  0  0
   39.8675   16.3739  -10.0088 C   0  0  0  0  0  0  0  0  0  0  0  0
   40.2143   15.7266  -11.8152 H   0  0  0  0  0  0  0  0  0  0  0  0
 17 18  1  0  0  0
 18  1  1  0  0  0
  1  2  1  0  0  0
  2  3  1  0  0  0
  2  4  1  0  0  0
  4  5  1  0  0  0
  4  6  1  0  0  0
  6  7  1  0  0  0
  6  8  1  0  0  0
  8  9  1  0  0  0
  8 10  1  0  0  0
 10 11  1  0  0  0
 10  1  1  0  0  0
 17 19  1  0  0  0
  3 12  1  0  0  0
  5 13  1  0  0  0
  7 14  1  0  0  0
  9 15  1  0  0  0
 11 16  1  0  0  0
M  END
> <minimizedAffinity>
-4.35538

> <CNNscore>
0.4131106436

> <CNNaffinity>
2.9629833698

> <CNN_VS>
1.2240399122

> <CNNaffinity_variance>
0.1174820289

$$$$
[H]OC([H])([H])[C@@]1([H])[C@]([H])(O[H])[C@@]([H])(O[H])[C@]([H])(O[H])[C@@]([H])(O[H])[C@]1([H])O[H]


 19 19  0  0  0  0  0  0  0  0999 V2000
   36.8800   17.1951   -9.8967 C   0  0  0  0  0  0  0  0  0  0  0  0
   37.1174   16.5837  -11.2294 C   0  0  0  0  0  0  0  0  0  0  0  0
   36.0629   16.8573  -12.1093 O   0  0  0  0  0  0  0  0  0  0  0  0
   37.3450   15.0956  -11.1890 C   0  0  0  0  0  0  0  0  0  0  0  0
   38.6295   14.8266  -10.7649 O   0  0  0  0  0  0  0  0  0  0  0  0
   36.2835   14.3914  -10.4271 C   0  0  0  0  0  0  0  0  0  0  0  0
   35.1219   14.3814  -11.2334 O   0  0  0  0  0  0  0  0  0  0  0  0
   35.9258   15.0030   -9.1220 C   0  0  0  0  0  0  0  0  0  0  0  0
   36.1357   14.0582   -8.1175 O   0  0  0  0  0  0  0  0  0  0  0  0
   36.7224   16.2320   -8.7733 C   0  0  0  0  0  0  0  0  0  0  0  0
   35.9952   16.8960   -7.7554 O   0  0  0  0  0  0  0  0  0  0  0  0
   36.3354   16.7040  -13.0466 H   0  0  0  0  0  0  0  0  0  0  0  0
   38.6994   14.4634   -9.8702 H   0  0  0  0  0  0  0  0  0  0  0  0
   34.3060   14.4405  -10.6955 H   0  0  0  0  0  0  0  0  0  0  0  0
   37.1047   13.9903   -7.9241 H   0  0  0  0  0  0  0  0  0  0  0  0
   35.6096   16.1995   -7.1718 H   0  0  0  0  0  0  0  0  0  0  0  0
   38.8285   17.5900   -8.5436 O   0  0  0  0  0  0  0  0  0  0  0  0
   38.0090   18.1542   -9.5257 C   0  0  0  0  0  0  0  0  0  0  0  0
   39.7753   17.6831   -8.8472 H   0  0  0  0  0  0  0  0  0  0  0  0
 17 18  1  0  0  0
 18  1  1  0  0  0
  1  2  1  0  0  0
  2  3  1  0  0  0
  2  4  1  0  0  0
  4  5  1  0  0  0
  4  6  1  0  0  0
  6  7  1  0  0  0
  6  8  1  0  0  0
  8  9  1  0  0  0
  8 10  1  0  0  0
 10 11  1  0  0  0
 10  1  1  0  0  0
 17 19  1  0  0  0
  3 12  1  0  0  0
  5 13  1  0  0  0
  7 14  1  0  0  0
  9 15  1  0  0  0
 11 16  1  0  0  0
M  END
> <minimizedAffinity>
-4.55169

> <CNNscore>
0.4080641866

> <CNNaffinity>
2.9859511852

> <CNN_VS>
1.2184597254

> <CNNaffinity_variance>
0.1538550556

$$$$
[H]OC([H])([H])[C@@]1([H])[C@]([H])(O[H])[C@@]([H])(O[H])[C@]([H])(O[H])[C@@]([H])(O[H])[C@]1([H])O[H]


 19 19  0  0  0  0  0  0  0  0999 V2000
   30.8667   14.8351   -7.3137 C   0  0  0  0  0  0  0  0  0  0  0  0
   32.1013   15.5888   -7.6514 C   0  0  0  0  0  0  0  0  0  0  0  0
   33.0524   15.4911   -6.6281 O   0  0  0  0  0  0  0  0  0  0  0  0
   31.8656   17.0437   -7.9607 C   0  0  0  0  0  0  0  0  0  0  0  0
   31.3572   17.1782   -9.2356 O   0  0  0  0  0  0  0  0  0  0  0  0
   31.0673   17.7143   -6.9042 C   0  0  0  0  0  0  0  0  0  0  0  0
   31.9146   17.8953   -5.7866 O   0  0  0  0  0  0  0  0  0  0  0  0
   29.8652   16.9713   -6.4479 C   0  0  0  0  0  0  0  0  0  0  0  0
   28.7426   17.7713   -6.6608 O   0  0  0  0  0  0  0  0  0  0  0  0
   29.6394   15.6617   -7.1552 C   0  0  0  0  0  0  0  0  0  0  0  0
   28.7443   14.9249   -6.3418 O   0  0  0  0  0  0  0  0  0  0  0  0
   33.9507   15.7406   -6.9552 H   0  0  0  0  0  0  0  0  0  0  0  0
   30.4219   17.4242   -9.2814 H   0  0  0  0  0  0  0  0  0  0  0  0
   31.4233   17.8218   -4.9429 H   0  0  0  0  0  0  0  0  0  0  0  0
   28.5013   17.7545   -7.6212 H   0  0  0  0  0  0  0  0  0  0  0  0
   28.0950   15.5675   -5.9678 H   0  0  0  0  0  0  0  0  0  0  0  0
   30.9431   12.5044   -7.9017 O   0  0  0  0  0  0  0  0  0  0  0  0
   30.5710   13.7693   -8.3667 C   0  0  0  0  0  0  0  0  0  0  0  0
   30.1734   11.8863   -8.0530 H   0  0  0  0  0  0  0  0  0  0  0  0
 17 18  1  0  0  0
 18  1  1  0  0  0
  1  2  1  0  0  0
  2  3  1  0  0  0
  2  4  1  0  0  0
  4  5  1  0  0  0
  4  6  1  0  0  0
  6  7  1  0  0  0
  6  8  1  0  0  0
  8  9  1  0  0  0
  8 10  1  0  0  0
 10 11  1  0  0  0
 10  1  1  0  0  0
 17 19  1  0  0  0
  3 12  1  0  0  0
  5 13  1  0  0  0
  7 14  1  0  0  0
  9 15  1  0  0  0
 11 16  1  0  0  0
M  END
> <minimizedAffinity>
-4.16359

> <CNNscore>
0.4010333419

> <CNNaffinity>
3.0800209045

> <CNN_VS>
1.2351911068

> <CNNaffinity_variance>
0.1827507168

$$$$
[H]C1=C(c2c([H])c(C3([H])C([H])([H])C([H])([H])N(C(=O)C([H])([H])N(C([H])([H])[H])C([H])([H])[H])C([H])([H])C3([H])[H])c([H])c([H])c2N([H])C(=O)c2nc([H])c(C#N)n2[H])C([H])([H])C([H])([H])C([H])([H])C1([H])[H]


 36 39  0  0  0  0  0  0  0  0999 V2000
   35.9728   15.9137  -10.1162 C   0  0  0  0  0  0  0  0  0  0  0  0
   37.3356   15.9405  -10.0002 C   0  0  0  0  0  0  0  0  0  0  0  0
   38.1195   15.2428  -10.8895 C   0  0  0  0  0  0  0  0  0  0  0  0
   37.6136   14.4798  -11.9414 C   0  0  0  0  0  0  0  0  0  0  0  0
   36.2172   14.4577  -12.0452 C   0  0  0  0  0  0  0  0  0  0  0  0
   35.4339   15.1810  -11.1257 C   0  0  0  0  0  0  0  0  0  0  0  0
   34.1715   17.7568   -5.2701 C   0  0  0  0  0  0  0  0  0  0  0  0
   33.3710   17.0612   -4.6109 O   0  0  0  0  0  0  0  0  0  0  0  0
   34.2344   17.6004   -6.6718 N   0  0  0  0  0  0  0  0  0  0  0  0
   35.1800   18.4180   -7.4453 C   0  0  0  0  0  0  0  0  0  0  0  0
   36.0730   17.3921   -8.1518 C   0  0  0  0  0  0  0  0  0  0  0  0
   35.1616   16.6835   -9.1383 C   0  0  0  0  0  0  0  0  0  0  0  0
   34.1923   15.8285   -8.3946 C   0  0  0  0  0  0  0  0  0  0  0  0
   33.4126   16.6696   -7.4175 C   0  0  0  0  0  0  0  0  0  0  0  0
   35.0360   18.7251   -4.5929 C   0  0  0  0  0  0  0  0  0  0  0  0
   35.2569   20.7313   -3.3615 C   0  0  0  0  0  0  0  0  0  0  0  0
   34.3425   19.8174   -3.9874 N   0  0  0  0  0  0  0  0  0  0  0  0
   33.3869   20.4331   -4.8544 C   0  0  0  0  0  0  0  0  0  0  0  0
   35.4937   13.5904  -12.9492 C   0  0  0  0  0  0  0  0  0  0  0  0
   34.4363   13.8793  -13.6732 C   0  0  0  0  0  0  0  0  0  0  0  0
   33.8742   12.7758  -14.5332 C   0  0  0  0  0  0  0  0  0  0  0  0
   34.9967   12.2489  -15.3906 C   0  0  0  0  0  0  0  0  0  0  0  0
   36.2410   11.9933  -14.5661 C   0  0  0  0  0  0  0  0  0  0  0  0
   35.9324   12.1502  -13.0920 C   0  0  0  0  0  0  0  0  0  0  0  0
   38.4310   13.9184  -12.9267 N   0  0  0  0  0  0  0  0  0  0  0  0
   39.4295   14.5654  -13.6570 C   0  0  0  0  0  0  0  0  0  0  0  0
   39.6908   15.7807  -13.4601 O   0  0  0  0  0  0  0  0  0  0  0  0
   38.2654   12.8995  -13.2151 H   0  0  0  0  0  0  0  0  0  0  0  0
   40.2129   13.8396  -14.6878 C   0  0  0  0  0  0  0  0  0  0  0  0
   41.5195   13.6068  -14.6475 N   0  0  0  0  0  0  0  0  0  0  0  0
   41.8841   12.9182  -15.7591 C   0  0  0  0  0  0  0  0  0  0  0  0
   40.7336   12.7244  -16.5126 C   0  0  0  0  0  0  0  0  0  0  0  0
   39.7415   13.3062  -15.8141 N   0  0  0  0  0  0  0  0  0  0  0  0
   38.7529   13.3206  -16.1356 H   0  0  0  0  0  0  0  0  0  0  0  0
   40.6567   12.0405  -17.7711 C   0  0  0  0  0  0  0  0  0  0  0  0
   40.5885   11.4736  -18.8003 N   0  0  0  0  0  0  0  0  0  0  0  0
 16 17  1  0  0  0
 17 18  1  0  0  0
 17 15  1  0  0  0
 15  7  1  0  0  0
  7  8  2  0  0  0
  7  9  1  0  0  0
  9 10  1  0  0  0
 10 11  1  0  0  0
 11 12  1  0  0  0
 12 13  1  0  0  0
 13 14  1  0  0  0
 12  1  1  0  0  0
  1  2  2  0  0  0
  2  3  1  0  0  0
  3  4  2  0  0  0
  4 25  1  0  0  0
 25 26  1  0  0  0
 26 27  2  0  0  0
 26 29  1  0  0  0
 29 30  2  0  0  0
 30 31  1  0  0  0
 31 32  2  0  0  0
 32 33  1  0  0  0
 32 35  1  0  0  0
 35 36  3  0  0  0
  4  5  1  0  0  0
  5  6  2  0  0  0
  5 19  1  0  0  0
 19 20  2  0  0  0
 20 21  1  0  0  0
 21 22  1  0  0  0
 22 23  1  0  0  0
 23 24  1  0  0  0
 14  9  1  0  0  0
  6  1  1  0  0  0
 24 19  1  0  0  0
 33 29  1  0  0  0
 25 28  1  0  0  0
 33 34  1  0  0  0
M  END
> <minimizedAffinity>
-8.37005

> <CNNscore>
0.5394102335

> <CNNaffinity>
7.0420904160

> <CNN_VS>
3.7985756397

> <CNNaffinity_variance>
0.3419634700

$$$$
[H]C1=C(c2c([H])c(C3([H])C([H])([H])C([H])([H])N(C(=O)C([H])([H])N(C([H])([H])[H])C([H])([H])[H])C([H])([H])C3([H])[H])c([H])c([H])c2N([H])C(=O)c2nc([H])c(C#N)n2[H])C([H])([H])C([H])([H])C([H])([H])C1([H])[H]


 36 39  0  0  0  0  0  0  0  0999 V2000
   35.3978   14.8328  -12.1255 C   0  0  0  0  0  0  0  0  0  0  0  0
   36.6632   14.8359  -11.6056 C   0  0  0  0  0  0  0  0  0  0  0  0
   37.6904   14.2195  -12.2816 C   0  0  0  0  0  0  0  0  0  0  0  0
   37.5366   13.5656  -13.5036 C   0  0  0  0  0  0  0  0  0  0  0  0
   36.2355   13.5663  -14.0216 C   0  0  0  0  0  0  0  0  0  0  0  0
   35.1993   14.2053  -13.3143 C   0  0  0  0  0  0  0  0  0  0  0  0
   31.1021   15.4597   -8.7669 C   0  0  0  0  0  0  0  0  0  0  0  0
   29.9526   15.2246   -9.1945 O   0  0  0  0  0  0  0  0  0  0  0  0
   32.1189   15.8233   -9.6762 N   0  0  0  0  0  0  0  0  0  0  0  0
   33.4721   16.0963   -9.1709 C   0  0  0  0  0  0  0  0  0  0  0  0
   34.3593   15.0880   -9.9094 C   0  0  0  0  0  0  0  0  0  0  0  0
   34.3167   15.5127  -11.3667 C   0  0  0  0  0  0  0  0  0  0  0  0
   32.9614   15.2391  -11.9253 C   0  0  0  0  0  0  0  0  0  0  0  0
   31.9165   15.9498  -11.1048 C   0  0  0  0  0  0  0  0  0  0  0  0
   31.3899   15.3582   -7.3350 C   0  0  0  0  0  0  0  0  0  0  0  0
   32.6695   14.2115   -5.7109 C   0  0  0  0  0  0  0  0  0  0  0  0
   31.9069   14.0922   -6.9222 N   0  0  0  0  0  0  0  0  0  0  0  0
   30.9224   13.0557   -6.9051 C   0  0  0  0  0  0  0  0  0  0  0  0
   35.8320   12.7965  -15.1780 C   0  0  0  0  0  0  0  0  0  0  0  0
   36.5989   12.1485  -16.0252 C   0  0  0  0  0  0  0  0  0  0  0  0
   35.9109   11.4258  -17.1554 C   0  0  0  0  0  0  0  0  0  0  0  0
   34.8736   10.5148  -16.5499 C   0  0  0  0  0  0  0  0  0  0  0  0
   34.0433   11.2435  -15.5141 C   0  0  0  0  0  0  0  0  0  0  0  0
   34.3641   12.7232  -15.5343 C   0  0  0  0  0  0  0  0  0  0  0  0
   38.6218   13.0938  -14.2480 N   0  0  0  0  0  0  0  0  0  0  0  0
   39.6617   13.8526  -14.7881 C   0  0  0  0  0  0  0  0  0  0  0  0
   39.7060   15.0995  -14.6236 O   0  0  0  0  0  0  0  0  0  0  0  0
   38.6638   12.0516  -14.4945 H   0  0  0  0  0  0  0  0  0  0  0  0
   40.7464   13.2116  -15.5728 C   0  0  0  0  0  0  0  0  0  0  0  0
   40.5909   12.5477  -16.7121 N   0  0  0  0  0  0  0  0  0  0  0  0
   41.8011   12.1038  -17.1381 C   0  0  0  0  0  0  0  0  0  0  0  0
   42.7394   12.5231  -16.2038 C   0  0  0  0  0  0  0  0  0  0  0  0
   42.0434   13.1951  -15.2686 N   0  0  0  0  0  0  0  0  0  0  0  0
   42.4859   13.6304  -14.4346 H   0  0  0  0  0  0  0  0  0  0  0  0
   44.1508   12.2727  -16.2575 C   0  0  0  0  0  0  0  0  0  0  0  0
   45.3081   12.0648  -16.3097 N   0  0  0  0  0  0  0  0  0  0  0  0
 16 17  1  0  0  0
 17 18  1  0  0  0
 17 15  1  0  0  0
 15  7  1  0  0  0
  7  8  2  0  0  0
  7  9  1  0  0  0
  9 10  1  0  0  0
 10 11  1  0  0  0
 11 12  1  0  0  0
 12 13  1  0  0  0
 13 14  1  0  0  0
 12  1  1  0  0  0
  1  2  2  0  0  0
  2  3  1  0  0  0
  3  4  2  0  0  0
  4 25  1  0  0  0
 25 26  1  0  0  0
 26 27  2  0  0  0
 26 29  1  0  0  0
 29 30  2  0  0  0
 30 31  1  0  0  0
 31 32  2  0  0  0
 32 33  1  0  0  0
 32 35  1  0  0  0
 35 36  3  0  0  0
  4  5  1  0  0  0
  5  6  2  0  0  0
  5 19  1  0  0  0
 19 20  2  0  0  0
 20 21  1  0  0  0
 21 22  1  0  0  0
 22 23  1  0  0  0
 23 24  1  0  0  0
 14  9  1  0  0  0
  6  1  1  0  0  0
 24 19  1  0  0  0
 33 29  1  0  0  0
 25 28  1  0  0  0
 33 34  1  0  0  0
M  END
> <minimizedAffinity>
-8.77654

> <CNNscore>
0.4021331668

> <CNNaffinity>
7.1634664536

> <CNN_VS>
2.8806674480

> <CNNaffinity_variance>
0.0285971817

$$$$
[H]C1=C(c2c([H])c(C3([H])C([H])([H])C([H])([H])N(C(=O)C([H])([H])N(C([H])([H])[H])C([H])([H])[H])C([H])([H])C3([H])[H])c([H])c([H])c2N([H])C(=O)c2nc([H])c(C#N)n2[H])C([H])([H])C([H])([H])C([H])([H])C1([H])[H]


 36 39  0  0  0  0  0  0  0  0999 V2000
   37.6014   17.0863   -9.6896 C   0  0  0  0  0  0  0  0  0  0  0  0
   38.8961   16.7663   -9.9941 C   0  0  0  0  0  0  0  0  0  0  0  0
   39.1678   15.8440  -10.9777 C   0  0  0  0  0  0  0  0  0  0  0  0
   38.1880   15.1833  -11.7179 C   0  0  0  0  0  0  0  0  0  0  0  0
   36.8674   15.5171  -11.3925 C   0  0  0  0  0  0  0  0  0  0  0  0
   36.6119   16.4656  -10.3838 C   0  0  0  0  0  0  0  0  0  0  0  0
   35.1898   21.2220   -7.0052 C   0  0  0  0  0  0  0  0  0  0  0  0
   35.4413   22.3981   -7.3415 O   0  0  0  0  0  0  0  0  0  0  0  0
   36.1339   20.2074   -7.2738 N   0  0  0  0  0  0  0  0  0  0  0  0
   35.8342   18.8232   -6.8799 C   0  0  0  0  0  0  0  0  0  0  0  0
   35.8941   18.0373   -8.1944 C   0  0  0  0  0  0  0  0  0  0  0  0
   37.3498   18.0899   -8.6236 C   0  0  0  0  0  0  0  0  0  0  0  0
   37.6941   19.4778   -9.0466 C   0  0  0  0  0  0  0  0  0  0  0  0
   37.4067   20.4412   -7.9243 C   0  0  0  0  0  0  0  0  0  0  0  0
   33.9263   20.9013   -6.3387 C   0  0  0  0  0  0  0  0  0  0  0  0
   31.7044   21.2248   -7.0791 C   0  0  0  0  0  0  0  0  0  0  0  0
   32.8838   21.8540   -6.5537 N   0  0  0  0  0  0  0  0  0  0  0  0
   32.6524   22.7051   -5.4286 C   0  0  0  0  0  0  0  0  0  0  0  0
   35.7120   14.8198  -11.9136 C   0  0  0  0  0  0  0  0  0  0  0  0
   34.5099   15.3010  -12.1354 C   0  0  0  0  0  0  0  0  0  0  0  0
   33.4809   14.3445  -12.6828 C   0  0  0  0  0  0  0  0  0  0  0  0
   34.0570   13.7177  -13.9269 C   0  0  0  0  0  0  0  0  0  0  0  0
   35.4734   13.2365  -13.6913 C   0  0  0  0  0  0  0  0  0  0  0  0
   35.8240   13.3436  -12.2221 C   0  0  0  0  0  0  0  0  0  0  0  0
   38.4904   14.3788  -12.8204 N   0  0  0  0  0  0  0  0  0  0  0  0
   39.4666   14.6165  -13.7897 C   0  0  0  0  0  0  0  0  0  0  0  0
   40.2019   15.6362  -13.7309 O   0  0  0  0  0  0  0  0  0  0  0  0
   37.8941   13.5068  -13.0014 H   0  0  0  0  0  0  0  0  0  0  0  0
   39.6665   13.6741  -14.9188 C   0  0  0  0  0  0  0  0  0  0  0  0
   40.8070   13.4728  -15.5682 N   0  0  0  0  0  0  0  0  0  0  0  0
   40.6101   12.5422  -16.5368 C   0  0  0  0  0  0  0  0  0  0  0  0
   39.2765   12.1603  -16.4683 C   0  0  0  0  0  0  0  0  0  0  0  0
   38.7450   12.8810  -15.4639 N   0  0  0  0  0  0  0  0  0  0  0  0
   37.7487   12.8065  -15.1765 H   0  0  0  0  0  0  0  0  0  0  0  0
   38.6332   11.1940  -17.3109 C   0  0  0  0  0  0  0  0  0  0  0  0
   38.1029   10.4074  -18.0074 N   0  0  0  0  0  0  0  0  0  0  0  0
 16 17  1  0  0  0
 17 18  1  0  0  0
 17 15  1  0  0  0
 15  7  1  0  0  0
  7  8  2  0  0  0
  7  9  1  0  0  0
  9 10  1  0  0  0
 10 11  1  0  0  0
 11 12  1  0  0  0
 12 13  1  0  0  0
 13 14  1  0  0  0
 12  1  1  0  0  0
  1  2  2  0  0  0
  2  3  1  0  0  0
  3  4  2  0  0  0
  4 25  1  0  0  0
 25 26  1  0  0  0
 26 27  2  0  0  0
 26 29  1  0  0  0
 29 30  2  0  0  0
 30 31  1  0  0  0
 31 32  2  0  0  0
 32 33  1  0  0  0
 32 35  1  0  0  0
 35 36  3  0  0  0
  4  5  1  0  0  0
  5  6  2  0  0  0
  5 19  1  0  0  0
 19 20  2  0  0  0
 20 21  1  0  0  0
 21 22  1  0  0  0
 22 23  1  0  0  0
 23 24  1  0  0  0
 14  9  1  0  0  0
  6  1  1  0  0  0
 24 19  1  0  0  0
 33 29  1  0  0  0
 25 28  1  0  0  0
 33 34  1  0  0  0
M  END
> <minimizedAffinity>
-8.30546

> <CNNscore>
0.3578139246

> <CNNaffinity>
6.7764129639

> <CNN_VS>
2.4246950150

> <CNNaffinity_variance>
0.1445452273

$$$$
[H]C1=C(c2c([H])c(C3([H])C([H])([H])C([H])([H])N(C(=O)C([H])([H])N(C([H])([H])[H])C([H])([H])[H])C([H])([H])C3([H])[H])c([H])c([H])c2N([H])C(=O)c2nc([H])c(C#N)n2[H])C([H])([H])C([H])([H])C([H])([H])C1([H])[H]


 36 39  0  0  0  0  0  0  0  0999 V2000
   36.6151   15.7626  -10.1300 C   0  0  0  0  0  0  0  0  0  0  0  0
   35.5612   15.2517  -10.8369 C   0  0  0  0  0  0  0  0  0  0  0  0
   35.7606   14.7237  -12.0913 C   0  0  0  0  0  0  0  0  0  0  0  0
   37.0019   14.6666  -12.7240 C   0  0  0  0  0  0  0  0  0  0  0  0
   38.0706   15.1972  -11.9909 C   0  0  0  0  0  0  0  0  0  0  0  0
   37.8447   15.7305  -10.7076 C   0  0  0  0  0  0  0  0  0  0  0  0
   34.0990   18.5385   -6.1189 C   0  0  0  0  0  0  0  0  0  0  0  0
   34.2593   19.7742   -6.0372 O   0  0  0  0  0  0  0  0  0  0  0  0
   35.0883   17.7513   -6.7470 N   0  0  0  0  0  0  0  0  0  0  0  0
   34.8958   16.2972   -6.8448 C   0  0  0  0  0  0  0  0  0  0  0  0
   34.9343   16.0138   -8.3506 C   0  0  0  0  0  0  0  0  0  0  0  0
   36.3591   16.3202   -8.7771 C   0  0  0  0  0  0  0  0  0  0  0  0
   36.5942   17.7911   -8.7066 C   0  0  0  0  0  0  0  0  0  0  0  0
   36.3079   18.2891   -7.3137 C   0  0  0  0  0  0  0  0  0  0  0  0
   32.8949   17.9144   -5.5673 C   0  0  0  0  0  0  0  0  0  0  0  0
   31.9097   18.4424   -3.4839 C   0  0  0  0  0  0  0  0  0  0  0  0
   32.9344   17.6937   -4.1565 N   0  0  0  0  0  0  0  0  0  0  0  0
   32.9907   16.3103   -3.8003 C   0  0  0  0  0  0  0  0  0  0  0  0
   39.3965   15.3951  -12.5345 C   0  0  0  0  0  0  0  0  0  0  0  0
   40.4572   15.8729  -11.9241 C   0  0  0  0  0  0  0  0  0  0  0  0
   41.7235   15.9784  -12.7357 C   0  0  0  0  0  0  0  0  0  0  0  0
   41.9995   14.6204  -13.3291 C   0  0  0  0  0  0  0  0  0  0  0  0
   40.7536   14.0363  -13.9614 C   0  0  0  0  0  0  0  0  0  0  0  0
   39.6482   15.0707  -13.9900 C   0  0  0  0  0  0  0  0  0  0  0  0
   37.2059   13.9778  -13.9232 N   0  0  0  0  0  0  0  0  0  0  0  0
   37.3385   12.5976  -14.0857 C   0  0  0  0  0  0  0  0  0  0  0  0
   37.2686   11.8201  -13.0984 O   0  0  0  0  0  0  0  0  0  0  0  0
   37.3319   14.5410  -14.8263 H   0  0  0  0  0  0  0  0  0  0  0  0
   37.5662   12.0054  -15.4275 C   0  0  0  0  0  0  0  0  0  0  0  0
   36.6612   11.3603  -16.1541 N   0  0  0  0  0  0  0  0  0  0  0  0
   37.2285   10.9616  -17.3213 C   0  0  0  0  0  0  0  0  0  0  0  0
   38.5496   11.3898  -17.2980 C   0  0  0  0  0  0  0  0  0  0  0  0
   38.7043   12.0217  -16.1201 N   0  0  0  0  0  0  0  0  0  0  0  0
   39.6015   12.4531  -15.8203 H   0  0  0  0  0  0  0  0  0  0  0  0
   39.5199   11.1830  -18.3340 C   0  0  0  0  0  0  0  0  0  0  0  0
   40.3205   11.0200  -19.1811 N   0  0  0  0  0  0  0  0  0  0  0  0
 16 17  1  0  0  0
 17 18  1  0  0  0
 17 15  1  0  0  0
 15  7  1  0  0  0
  7  8  2  0  0  0
  7  9  1  0  0  0
  9 10  1  0  0  0
 10 11  1  0  0  0
 11 12  1  0  0  0
 12 13  1  0  0  0
 13 14  1  0  0  0
 12  1  1  0  0  0
  1  2  2  0  0  0
  2  3  1  0  0  0
  3  4  2  0  0  0
  4 25  1  0  0  0
 25 26  1  0  0  0
 26 27  2  0  0  0
 26 29  1  0  0  0
 29 30  2  0  0  0
 30 31  1  0  0  0
 31 32  2  0  0  0
 32 33  1  0  0  0
 32 35  1  0  0  0
 35 36  3  0  0  0
  4  5  1  0  0  0
  5  6  2  0  0  0
  5 19  1  0  0  0
 19 20  2  0  0  0
 20 21  1  0  0  0
 21 22  1  0  0  0
 22 23  1  0  0  0
 23 24  1  0  0  0
 14  9  1  0  0  0
  6  1  1  0  0  0
 24 19  1  0  0  0
 33 29  1  0  0  0
 25 28  1  0  0  0
 33 34  1  0  0  0
M  END
> <minimizedAffinity>
-7.86161

> <CNNscore>
0.3395411074

> <CNNaffinity>
6.6874670982

> <CNN_VS>
2.2706699371

> <CNNaffinity_variance>
0.0688223690

$$$$
[H]C1=C(c2c([H])c(C3([H])C([H])([H])C([H])([H])N(C(=O)C([H])([H])N(C([H])([H])[H])C([H])([H])[H])C([H])([H])C3([H])[H])c([H])c([H])c2N([H])C(=O)c2nc([H])c(C#N)n2[H])C([H])([H])C([H])([H])C([H])([H])C1([H])[H]


 36 39  0  0  0  0  0  0  0  0999 V2000
   35.0976   15.8384  -10.6150 C   0  0  0  0  0  0  0  0  0  0  0  0
   36.4135   16.2111  -10.6464 C   0  0  0  0  0  0  0  0  0  0  0  0
   37.2314   15.7770  -11.6635 C   0  0  0  0  0  0  0  0  0  0  0  0
   36.8075   14.9539  -12.7062 C   0  0  0  0  0  0  0  0  0  0  0  0
   35.4597   14.5764  -12.6588 C   0  0  0  0  0  0  0  0  0  0  0  0
   34.6396   15.0342  -11.6100 C   0  0  0  0  0  0  0  0  0  0  0  0
   32.1240   15.7432   -6.0026 C   0  0  0  0  0  0  0  0  0  0  0  0
   30.9434   15.3383   -6.0447 O   0  0  0  0  0  0  0  0  0  0  0  0
   32.7171   16.2731   -7.1690 N   0  0  0  0  0  0  0  0  0  0  0  0
   34.1080   16.7460   -7.1177 C   0  0  0  0  0  0  0  0  0  0  0  0
   34.8319   15.8982   -8.1695 C   0  0  0  0  0  0  0  0  0  0  0  0
   34.2463   16.3314   -9.5019 C   0  0  0  0  0  0  0  0  0  0  0  0
   32.8357   15.8583   -9.6027 C   0  0  0  0  0  0  0  0  0  0  0  0
   32.0343   16.3864   -8.4413 C   0  0  0  0  0  0  0  0  0  0  0  0
   32.8837   15.6678   -4.7534 C   0  0  0  0  0  0  0  0  0  0  0  0
   33.9236   17.2713   -3.3614 C   0  0  0  0  0  0  0  0  0  0  0  0
   32.6766   16.7678   -3.8659 N   0  0  0  0  0  0  0  0  0  0  0  0
   31.8028   17.7675   -4.3959 C   0  0  0  0  0  0  0  0  0  0  0  0
   34.8714   13.5903  -13.5387 C   0  0  0  0  0  0  0  0  0  0  0  0
   34.0554   13.7924  -14.5482 C   0  0  0  0  0  0  0  0  0  0  0  0
   33.5845   12.5740  -15.3012 C   0  0  0  0  0  0  0  0  0  0  0  0
   34.8066   11.8033  -15.7317 C   0  0  0  0  0  0  0  0  0  0  0  0
   35.7833   11.6420  -14.5858 C   0  0  0  0  0  0  0  0  0  0  0  0
   35.1580   12.1257  -13.2943 C   0  0  0  0  0  0  0  0  0  0  0  0
   37.6116   14.6640  -13.8124 N   0  0  0  0  0  0  0  0  0  0  0  0
   38.4394   13.5523  -13.9794 C   0  0  0  0  0  0  0  0  0  0  0  0
   38.5188   12.6653  -13.0901 O   0  0  0  0  0  0  0  0  0  0  0  0
   37.6633   15.3750  -14.6127 H   0  0  0  0  0  0  0  0  0  0  0  0
   39.2510   13.3832  -15.2105 C   0  0  0  0  0  0  0  0  0  0  0  0
   40.2973   14.1234  -15.5574 N   0  0  0  0  0  0  0  0  0  0  0  0
   40.7852   13.6777  -16.7432 C   0  0  0  0  0  0  0  0  0  0  0  0
   39.9892   12.6087  -17.1341 C   0  0  0  0  0  0  0  0  0  0  0  0
   39.0675   12.4703  -16.1635 N   0  0  0  0  0  0  0  0  0  0  0  0
   38.3268   11.7411  -16.1833 H   0  0  0  0  0  0  0  0  0  0  0  0
   40.1468   11.8355  -18.3319 C   0  0  0  0  0  0  0  0  0  0  0  0
   40.2827   11.2061  -19.3170 N   0  0  0  0  0  0  0  0  0  0  0  0
 16 17  1  0  0  0
 17 18  1  0  0  0
 17 15  1  0  0  0
 15  7  1  0  0  0
  7  8  2  0  0  0
  7  9  1  0  0  0
  9 10  1  0  0  0
 10 11  1  0  0  0
 11 12  1  0  0  0
 12 13  1  0  0  0
 13 14  1  0  0  0
 12  1  1  0  0  0
  1  2  2  0  0  0
  2  3  1  0  0  0
  3  4  2  0  0  0
  4 25  1  0  0  0
 25 26  1  0  0  0
 26 27  2  0  0  0
 26 29  1  0  0  0
 29 30  2  0  0  0
 30 31  1  0  0  0
 31 32  2  0  0  0
 32 33  1  0  0  0
 32 35  1  0  0  0
 35 36  3  0  0  0
  4  5  1  0  0  0
  5  6  2  0  0  0
  5 19  1  0  0  0
 19 20  2  0  0  0
 20 21  1  0  0  0
 21 22  1  0  0  0
 22 23  1  0  0  0
 23 24  1  0  0  0
 14  9  1  0  0  0
  6  1  1  0  0  0
 24 19  1  0  0  0
 33 29  1  0  0  0
 25 28  1  0  0  0
 33 34  1  0  0  0
M  END
> <minimizedAffinity>
-7.57961

> <CNNscore>
0.2934590876

> <CNNaffinity>
6.8604125977

> <CNN_VS>
2.0132503510

> <CNNaffinity_variance>
0.2057817876

$$$$
[H]C1=C(c2c([H])c(C3([H])C([H])([H])C([H])([H])N(C(=O)C([H])([H])N(C([H])([H])[H])C([H])([H])[H])C([H])([H])C3([H])[H])c([H])c([H])c2N([H])C(=O)c2nc([H])c(C#N)n2[H])C([H])([H])C([H])([H])C([H])([H])C1([H])[H]


 36 39  0  0  0  0  0  0  0  0999 V2000
   39.4395   13.6746  -14.0698 C   0  0  0  0  0  0  0  0  0  0  0  0
   39.1629   14.7150  -13.2256 C   0  0  0  0  0  0  0  0  0  0  0  0
   37.8592   15.0763  -12.9770 C   0  0  0  0  0  0  0  0  0  0  0  0
   36.7537   14.4402  -13.5406 C   0  0  0  0  0  0  0  0  0  0  0  0
   37.0518   13.3803  -14.4061 C   0  0  0  0  0  0  0  0  0  0  0  0
   38.3933   13.0256  -14.6447 C   0  0  0  0  0  0  0  0  0  0  0  0
   44.8157   14.3225  -14.9656 C   0  0  0  0  0  0  0  0  0  0  0  0
   45.2173   14.5688  -16.1221 O   0  0  0  0  0  0  0  0  0  0  0  0
   43.5887   13.6476  -14.7870 N   0  0  0  0  0  0  0  0  0  0  0  0
   43.1165   13.3617  -13.4245 C   0  0  0  0  0  0  0  0  0  0  0  0
   41.7575   14.0657  -13.3427 C   0  0  0  0  0  0  0  0  0  0  0  0
   40.8603   13.3129  -14.3093 C   0  0  0  0  0  0  0  0  0  0  0  0
   41.2961   13.5869  -15.7088 C   0  0  0  0  0  0  0  0  0  0  0  0
   42.7442   13.2064  -15.8778 C   0  0  0  0  0  0  0  0  0  0  0  0
   45.6123   14.7313  -13.8072 C   0  0  0  0  0  0  0  0  0  0  0  0
   45.6392   16.0551  -11.8484 C   0  0  0  0  0  0  0  0  0  0  0  0
   45.2079   15.9671  -13.2156 N   0  0  0  0  0  0  0  0  0  0  0  0
   45.5267   17.1092  -14.0142 C   0  0  0  0  0  0  0  0  0  0  0  0
   36.0645   12.7113  -15.2249 C   0  0  0  0  0  0  0  0  0  0  0  0
   36.2621   11.7789  -16.1291 C   0  0  0  0  0  0  0  0  0  0  0  0
   35.0446   11.2533  -16.8465 C   0  0  0  0  0  0  0  0  0  0  0  0
   34.0588   10.8000  -15.8000 C   0  0  0  0  0  0  0  0  0  0  0  0
   33.8940   11.8437  -14.7152 C   0  0  0  0  0  0  0  0  0  0  0  0
   34.6132   13.1185  -15.1031 C   0  0  0  0  0  0  0  0  0  0  0  0
   35.4419   14.7167  -13.1448 N   0  0  0  0  0  0  0  0  0  0  0  0
   34.9366   14.6975  -11.8435 C   0  0  0  0  0  0  0  0  0  0  0  0
   35.6787   14.4215  -10.8653 O   0  0  0  0  0  0  0  0  0  0  0  0
   34.7069   14.9163  -13.8990 H   0  0  0  0  0  0  0  0  0  0  0  0
   33.5090   15.0018  -11.5745 C   0  0  0  0  0  0  0  0  0  0  0  0
   33.0572   15.8799  -10.6870 N   0  0  0  0  0  0  0  0  0  0  0  0
   31.7000   15.8883  -10.7193 C   0  0  0  0  0  0  0  0  0  0  0  0
   31.3108   14.9637  -11.6798 C   0  0  0  0  0  0  0  0  0  0  0  0
   32.4533   14.4505  -12.1719 N   0  0  0  0  0  0  0  0  0  0  0  0
   32.4760   13.7249  -12.9160 H   0  0  0  0  0  0  0  0  0  0  0  0
   29.9603   14.6472  -12.0451 C   0  0  0  0  0  0  0  0  0  0  0  0
   28.8516   14.3821  -12.3382 N   0  0  0  0  0  0  0  0  0  0  0  0
 16 17  1  0  0  0
 17 18  1  0  0  0
 17 15  1  0  0  0
 15  7  1  0  0  0
  7  8  2  0  0  0
  7  9  1  0  0  0
  9 10  1  0  0  0
 10 11  1  0  0  0
 11 12  1  0  0  0
 12 13  1  0  0  0
 13 14  1  0  0  0
 12  1  1  0  0  0
  1  2  2  0  0  0
  2  3  1  0  0  0
  3  4  2  0  0  0
  4 25  1  0  0  0
 25 26  1  0  0  0
 26 27  2  0  0  0
 26 29  1  0  0  0
 29 30  2  0  0  0
 30 31  1  0  0  0
 31 32  2  0  0  0
 32 33  1  0  0  0
 32 35  1  0  0  0
 35 36  3  0  0  0
  4  5  1  0  0  0
  5  6  2  0  0  0
  5 19  1  0  0  0
 19 20  2  0  0  0
 20 21  1  0  0  0
 21 22  1  0  0  0
 22 23  1  0  0  0
 23 24  1  0  0  0
 14  9  1  0  0  0
  6  1  1  0  0  0
 24 19  1  0  0  0
 33 29  1  0  0  0
 25 28  1  0  0  0
 33 34  1  0  0  0
M  END
> <minimizedAffinity>
-8.07744

> <CNNscore>
0.2703043818

> <CNNaffinity>
7.1581201553

> <CNN_VS>
1.9348711967

> <CNNaffinity_variance>
0.0637826174

$$$$
[H]C1=C(c2c([H])c(C3([H])C([H])([H])C([H])([H])N(C(=O)C([H])([H])N(C([H])([H])[H])C([H])([H])[H])C([H])([H])C3([H])[H])c([H])c([H])c2N([H])C(=O)c2nc([H])c(C#N)n2[H])C([H])([H])C([H])([H])C([H])([H])C1([H])[H]


 36 39  0  0  0  0  0  0  0  0999 V2000
   37.8590   16.1682  -10.7182 C   0  0  0  0  0  0  0  0  0  0  0  0
   39.1645   16.1648  -11.1270 C   0  0  0  0  0  0  0  0  0  0  0  0
   39.5324   15.4794  -12.2614 C   0  0  0  0  0  0  0  0  0  0  0  0
   38.6437   14.7591  -13.0587 C   0  0  0  0  0  0  0  0  0  0  0  0
   37.3119   14.7674  -12.6259 C   0  0  0  0  0  0  0  0  0  0  0  0
   36.9566   15.4775  -11.4632 C   0  0  0  0  0  0  0  0  0  0  0  0
   36.1398   17.1026   -5.5901 C   0  0  0  0  0  0  0  0  0  0  0  0
   34.9142   17.1430   -5.3542 O   0  0  0  0  0  0  0  0  0  0  0  0
   36.6054   17.3955   -6.8903 N   0  0  0  0  0  0  0  0  0  0  0  0
   38.0483   17.3441   -7.1663 C   0  0  0  0  0  0  0  0  0  0  0  0
   38.1803   16.3018   -8.2823 C   0  0  0  0  0  0  0  0  0  0  0  0
   37.5014   16.9236   -9.4900 C   0  0  0  0  0  0  0  0  0  0  0  0
   36.0295   16.9822   -9.2581 C   0  0  0  0  0  0  0  0  0  0  0  0
   35.7404   17.7523   -7.9958 C   0  0  0  0  0  0  0  0  0  0  0  0
   37.0830   16.7541   -4.5260 C   0  0  0  0  0  0  0  0  0  0  0  0
   38.7148   15.0640   -4.2594 C   0  0  0  0  0  0  0  0  0  0  0  0
   37.3123   15.3525   -4.3722 N   0  0  0  0  0  0  0  0  0  0  0  0
   36.4988   14.7524   -3.3613 C   0  0  0  0  0  0  0  0  0  0  0  0
   36.2747   13.9425  -13.2060 C   0  0  0  0  0  0  0  0  0  0  0  0
   35.7480   12.8431  -12.7162 C   0  0  0  0  0  0  0  0  0  0  0  0
   34.6759   12.1736  -13.5382 C   0  0  0  0  0  0  0  0  0  0  0  0
   33.6156   13.2043  -13.8315 C   0  0  0  0  0  0  0  0  0  0  0  0
   34.2313   14.4990  -14.3191 C   0  0  0  0  0  0  0  0  0  0  0  0
   35.7146   14.3136  -14.5608 C   0  0  0  0  0  0  0  0  0  0  0  0
   39.0104   14.2121  -14.2918 N   0  0  0  0  0  0  0  0  0  0  0  0
   39.0699   12.8576  -14.6243 C   0  0  0  0  0  0  0  0  0  0  0  0
   38.7666   11.9711  -13.7839 O   0  0  0  0  0  0  0  0  0  0  0  0
   39.3380   14.8710  -15.0712 H   0  0  0  0  0  0  0  0  0  0  0  0
   39.4926   12.4219  -15.9787 C   0  0  0  0  0  0  0  0  0  0  0  0
   40.7247   12.4963  -16.4678 N   0  0  0  0  0  0  0  0  0  0  0  0
   40.7321   12.0061  -17.7338 C   0  0  0  0  0  0  0  0  0  0  0  0
   39.4320   11.6140  -18.0252 C   0  0  0  0  0  0  0  0  0  0  0  0
   38.7149   11.8893  -16.9204 N   0  0  0  0  0  0  0  0  0  0  0  0
   37.6955   11.7006  -16.8431 H   0  0  0  0  0  0  0  0  0  0  0  0
   38.9831   11.0382  -19.2599 C   0  0  0  0  0  0  0  0  0  0  0  0
   38.6226   10.5666  -20.2762 N   0  0  0  0  0  0  0  0  0  0  0  0
 16 17  1  0  0  0
 17 18  1  0  0  0
 17 15  1  0  0  0
 15  7  1  0  0  0
  7  8  2  0  0  0
  7  9  1  0  0  0
  9 10  1  0  0  0
 10 11  1  0  0  0
 11 12  1  0  0  0
 12 13  1  0  0  0
 13 14  1  0  0  0
 12  1  1  0  0  0
  1  2  2  0  0  0
  2  3  1  0  0  0
  3  4  2  0  0  0
  4 25  1  0  0  0
 25 26  1  0  0  0
 26 27  2  0  0  0
 26 29  1  0  0  0
 29 30  2  0  0  0
 30 31  1  0  0  0
 31 32  2  0  0  0
 32 33  1  0  0  0
 32 35  1  0  0  0
 35 36  3  0  0  0
  4  5  1  0  0  0
  5  6  2  0  0  0
  5 19  1  0  0  0
 19 20  2  0  0  0
 20 21  1  0  0  0
 21 22  1  0  0  0
 22 23  1  0  0  0
 23 24  1  0  0  0
 14  9  1  0  0  0
  6  1  1  0  0  0
 24 19  1  0  0  0
 33 29  1  0  0  0
 25 28  1  0  0  0
 33 34  1  0  0  0
M  END
> <minimizedAffinity>
-6.52036

> <CNNscore>
0.2556000650

> <CNNaffinity>
6.8002181053

> <CNN_VS>
1.7381361723

> <CNNaffinity_variance>
0.1286230832

$$$$
[H]C1=C(c2c([H])c(C3([H])C([H])([H])C([H])([H])N(C(=O)C([H])([H])N(C([H])([H])[H])C([H])([H])[H])C([H])([H])C3([H])[H])c([H])c([H])c2N([H])C(=O)c2nc([H])c(C#N)n2[H])C([H])([H])C([H])([H])C([H])([H])C1([H])[H]


 36 39  0  0  0  0  0  0  0  0999 V2000
   38.5572   16.5553  -10.4454 C   0  0  0  0  0  0  0  0  0  0  0  0
   39.8839   16.4051  -10.7431 C   0  0  0  0  0  0  0  0  0  0  0  0
   40.2695   15.6314  -11.8131 C   0  0  0  0  0  0  0  0  0  0  0  0
   39.3786   14.9616  -12.6509 C   0  0  0  0  0  0  0  0  0  0  0  0
   38.0244   15.1205  -12.3317 C   0  0  0  0  0  0  0  0  0  0  0  0
   37.6516   15.9189  -11.2336 C   0  0  0  0  0  0  0  0  0  0  0  0
   36.4107   17.9363   -5.5862 C   0  0  0  0  0  0  0  0  0  0  0  0
   35.1882   18.1775   -5.5044 O   0  0  0  0  0  0  0  0  0  0  0  0
   37.0691   18.1044   -6.8236 N   0  0  0  0  0  0  0  0  0  0  0  0
   38.5076   17.8167   -6.9182 C   0  0  0  0  0  0  0  0  0  0  0  0
   38.6027   16.7263   -7.9911 C   0  0  0  0  0  0  0  0  0  0  0  0
   38.1815   17.4022   -9.2840 C   0  0  0  0  0  0  0  0  0  0  0  0
   36.7210   17.6998   -9.2370 C   0  0  0  0  0  0  0  0  0  0  0  0
   36.4107   18.5518   -8.0337 C   0  0  0  0  0  0  0  0  0  0  0  0
   37.1521   17.4834   -4.4077 C   0  0  0  0  0  0  0  0  0  0  0  0
   38.2136   15.5471   -3.5629 C   0  0  0  0  0  0  0  0  0  0  0  0
   37.0042   16.0936   -4.1120 N   0  0  0  0  0  0  0  0  0  0  0  0
   35.8235   15.7957   -3.3631 C   0  0  0  0  0  0  0  0  0  0  0  0
   36.9585   14.3720  -12.9614 C   0  0  0  0  0  0  0  0  0  0  0  0
   36.3422   14.6378  -14.0907 C   0  0  0  0  0  0  0  0  0  0  0  0
   35.2539   13.6851  -14.5163 C   0  0  0  0  0  0  0  0  0  0  0  0
   35.8417   12.2969  -14.5278 C   0  0  0  0  0  0  0  0  0  0  0  0
   36.6205   12.0222  -13.2584 C   0  0  0  0  0  0  0  0  0  0  0  0
   36.4129   13.1457  -12.2646 C   0  0  0  0  0  0  0  0  0  0  0  0
   39.7847   14.3208  -13.8251 N   0  0  0  0  0  0  0  0  0  0  0  0
   41.0526   13.8080  -14.1054 C   0  0  0  0  0  0  0  0  0  0  0  0
   41.9816   13.8810  -13.2595 O   0  0  0  0  0  0  0  0  0  0  0  0
   39.0902   14.2452  -14.6380 H   0  0  0  0  0  0  0  0  0  0  0  0
   41.3432   13.1614  -15.4094 C   0  0  0  0  0  0  0  0  0  0  0  0
   42.5518   12.9312  -15.9085 N   0  0  0  0  0  0  0  0  0  0  0  0
   42.4271   12.3258  -17.1172 C   0  0  0  0  0  0  0  0  0  0  0  0
   41.0673   12.1825  -17.3614 C   0  0  0  0  0  0  0  0  0  0  0  0
   40.4496   12.7087  -16.2880 N   0  0  0  0  0  0  0  0  0  0  0  0
   39.4154   12.7426  -16.1875 H   0  0  0  0  0  0  0  0  0  0  0  0
   40.4794   11.5909  -18.5284 C   0  0  0  0  0  0  0  0  0  0  0  0
   39.9895   11.1088  -19.4838 N   0  0  0  0  0  0  0  0  0  0  0  0
 16 17  1  0  0  0
 17 18  1  0  0  0
 17 15  1  0  0  0
 15  7  1  0  0  0
  7  8  2  0  0  0
  7  9  1  0  0  0
  9 10  1  0  0  0
 10 11  1  0  0  0
 11 12  1  0  0  0
 12 13  1  0  0  0
 13 14  1  0  0  0
 12  1  1  0  0  0
  1  2  2  0  0  0
  2  3  1  0  0  0
  3  4  2  0  0  0
  4 25  1  0  0  0
 25 26  1  0  0  0
 26 27  2  0  0  0
 26 29  1  0  0  0
 29 30  2  0  0  0
 30 31  1  0  0  0
 31 32  2  0  0  0
 32 33  1  0  0  0
 32 35  1  0  0  0
 35 36  3  0  0  0
  4  5  1  0  0  0
  5  6  2  0  0  0
  5 19  1  0  0  0
 19 20  2  0  0  0
 20 21  1  0  0  0
 21 22  1  0  0  0
 22 23  1  0  0  0
 23 24  1  0  0  0
 14  9  1  0  0  0
  6  1  1  0  0  0
 24 19  1  0  0  0
 33 29  1  0  0  0
 25 28  1  0  0  0
 33 34  1  0  0  0
M  END
> <minimizedAffinity>
-7.41019

> <CNNscore>
0.2320006192

> <CNNaffinity>
6.7398271561

> <CNN_VS>
1.5636440516

> <CNNaffinity_variance>
0.3572493792

$$$$
[H]C1=C(c2c([H])c(C3([H])C([H])([H])C([H])([H])N(C(=O)C([H])([H])N(C([H])([H])[H])C([H])([H])[H])C([H])([H])C3([H])[H])c([H])c([H])c2N([H])C(=O)c2nc([H])c(C#N)n2[H])C([H])([H])C([H])([H])C([H])([H])C1([H])[H]


 36 39  0  0  0  0  0  0  0  0999 V2000
   41.9153   14.4385  -13.4672 C   0  0  0  0  0  0  0  0  0  0  0  0
   40.8617   15.1392  -12.9473 C   0  0  0  0  0  0  0  0  0  0  0  0
   39.5844   14.9064  -13.4017 C   0  0  0  0  0  0  0  0  0  0  0  0
   39.2671   13.9754  -14.3902 C   0  0  0  0  0  0  0  0  0  0  0  0
   40.3557   13.2690  -14.9166 C   0  0  0  0  0  0  0  0  0  0  0  0
   41.6546   13.5213  -14.4353 C   0  0  0  0  0  0  0  0  0  0  0  0
   46.6568   17.0835  -12.6622 C   0  0  0  0  0  0  0  0  0  0  0  0
   47.5587   16.9966  -13.5215 O   0  0  0  0  0  0  0  0  0  0  0  0
   45.6963   16.0541  -12.5589 N   0  0  0  0  0  0  0  0  0  0  0  0
   44.6337   16.1602  -11.5487 C   0  0  0  0  0  0  0  0  0  0  0  0
   43.3358   16.1170  -12.3629 C   0  0  0  0  0  0  0  0  0  0  0  0
   43.2788   14.7165  -12.9470 C   0  0  0  0  0  0  0  0  0  0  0  0
   44.3342   14.5691  -13.9902 C   0  0  0  0  0  0  0  0  0  0  0  0
   45.6856   14.8733  -13.3977 C   0  0  0  0  0  0  0  0  0  0  0  0
   46.5985   18.2437  -11.7711 C   0  0  0  0  0  0  0  0  0  0  0  0
   46.7948   17.9002   -9.4401 C   0  0  0  0  0  0  0  0  0  0  0  0
   47.4958   18.1847  -10.6611 N   0  0  0  0  0  0  0  0  0  0  0  0
   48.6373   17.3574  -10.8979 C   0  0  0  0  0  0  0  0  0  0  0  0
   40.2648   12.3946  -16.0654 C   0  0  0  0  0  0  0  0  0  0  0  0
   39.3484   11.4886  -16.3209 C   0  0  0  0  0  0  0  0  0  0  0  0
   39.4986   10.7062  -17.6010 C   0  0  0  0  0  0  0  0  0  0  0  0
   39.6171   11.6977  -18.7304 C   0  0  0  0  0  0  0  0  0  0  0  0
   40.6154   12.7872  -18.3993 C   0  0  0  0  0  0  0  0  0  0  0  0
   41.3492   12.4516  -17.1180 C   0  0  0  0  0  0  0  0  0  0  0  0
   37.9494   13.6402  -14.7150 N   0  0  0  0  0  0  0  0  0  0  0  0
   37.1656   12.6488  -14.1220 C   0  0  0  0  0  0  0  0  0  0  0  0
   37.6157   11.9446  -13.1810 O   0  0  0  0  0  0  0  0  0  0  0  0
   37.4777   14.1408  -15.5370 H   0  0  0  0  0  0  0  0  0  0  0  0
   35.7779   12.3952  -14.5835 C   0  0  0  0  0  0  0  0  0  0  0  0
   34.6750   12.8862  -14.0308 N   0  0  0  0  0  0  0  0  0  0  0  0
   33.5941   12.4398  -14.7203 C   0  0  0  0  0  0  0  0  0  0  0  0
   34.0710   11.6345  -15.7464 C   0  0  0  0  0  0  0  0  0  0  0  0
   35.4105   11.6405  -15.6182 N   0  0  0  0  0  0  0  0  0  0  0  0
   36.0445   11.1178  -16.2550 H   0  0  0  0  0  0  0  0  0  0  0  0
   33.2710   10.9529  -16.7226 C   0  0  0  0  0  0  0  0  0  0  0  0
   32.6207   10.3948  -17.5294 N   0  0  0  0  0  0  0  0  0  0  0  0
 16 17  1  0  0  0
 17 18  1  0  0  0
 17 15  1  0  0  0
 15  7  1  0  0  0
  7  8  2  0  0  0
  7  9  1  0  0  0
  9 10  1  0  0  0
 10 11  1  0  0  0
 11 12  1  0  0  0
 12 13  1  0  0  0
 13 14  1  0  0  0
 12  1  1  0  0  0
  1  2  2  0  0  0
  2  3  1  0  0  0
  3  4  2  0  0  0
  4 25  1  0  0  0
 25 26  1  0  0  0
 26 27  2  0  0  0
 26 29  1  0  0  0
 29 30  2  0  0  0
 30 31  1  0  0  0
 31 32  2  0  0  0
 32 33  1  0  0  0
 32 35  1  0  0  0
 35 36  3  0  0  0
  4  5  1  0  0  0
  5  6  2  0  0  0
  5 19  1  0  0  0
 19 20  2  0  0  0
 20 21  1  0  0  0
 21 22  1  0  0  0
 22 23  1  0  0  0
 23 24  1  0  0  0
 14  9  1  0  0  0
  6  1  1  0  0  0
 24 19  1  0  0  0
 33 29  1  0  0  0
 25 28  1  0  0  0
 33 34  1  0  0  0
M  END
> <minimizedAffinity>
-7.95682

> <CNNscore>
0.2229760140

> <CNNaffinity>
6.7982153893

> <CNN_VS>
1.5158389807

> <CNNaffinity_variance>
0.1126950532

$$$$
[H]c1c([H])c([H])c(C([H])([H])[C@@]2([H])C(=O)N([H])[C@@]([H])(C([H])([H])c3c([H])n([H])c4c([H])c([H])c([H])c([H])c34)C(=O)N([H])[C@]([H])(C([H])([H])c3c([H])n([H])c4c([H])c([H])c([H])c([H])c34)C(=O)N([H])[C@@]([H])(C([H])([H])c3c([H])c([H])c([H])c([H])c3[H])C(=O)N([H])[C@@]([H])(C([H])(C([H])([H])[H])C([H])([H])[H])C(=O)N([H])[C@@]([H])(C([H])([H])c3c([H])c([H])c([H])c([H])c3[H])C(=O)N3C([H])([H])C([H])([H])C([H])([H])[C@@]3([H])C(=O)N2[H])c([H])c1[H]


 83 91  0  0  0  0  0  0  0  0999 V2000
   36.4774   17.7222   -7.2307 C   0  0  0  0  0  0  0  0  0  0  0  0
   36.7417   18.1739   -8.5470 N   0  0  0  0  0  0  0  0  0  0  0  0
   36.6481   17.6398   -9.8228 C   0  0  0  0  0  0  0  0  0  0  0  0
   35.6774   18.1145  -10.5677 O   0  0  0  0  0  0  0  0  0  0  0  0
   37.4441   16.6149  -10.5453 C   0  0  0  0  0  0  0  0  0  0  0  0
   38.8638   16.6950  -10.3461 N   0  0  0  0  0  0  0  0  0  0  0  0
   39.9492   16.6533  -11.2190 C   0  0  0  0  0  0  0  0  0  0  0  0
   40.7420   17.6728  -11.2924 O   0  0  0  0  0  0  0  0  0  0  0  0
   40.3531   15.5204  -12.1405 C   0  0  0  0  0  0  0  0  0  0  0  0
   41.7199   15.7359  -12.5766 N   0  0  0  0  0  0  0  0  0  0  0  0
   42.8984   15.1097  -12.2022 C   0  0  0  0  0  0  0  0  0  0  0  0
   43.5600   14.4411  -13.0383 O   0  0  0  0  0  0  0  0  0  0  0  0
   43.5468   15.1242  -10.8307 C   0  0  0  0  0  0  0  0  0  0  0  0
   43.7177   13.7510  -10.4485 N   0  0  0  0  0  0  0  0  0  0  0  0
   43.0858   13.1036   -9.3545 C   0  0  0  0  0  0  0  0  0  0  0  0
   42.4483   12.0314   -9.6102 O   0  0  0  0  0  0  0  0  0  0  0  0
   43.1097   13.5750   -7.9524 C   0  0  0  0  0  0  0  0  0  0  0  0
   41.7877   13.5614   -7.3678 N   0  0  0  0  0  0  0  0  0  0  0  0
   41.5071   14.1266   -6.0898 C   0  0  0  0  0  0  0  0  0  0  0  0
   40.5342   13.6116   -5.4823 O   0  0  0  0  0  0  0  0  0  0  0  0
   42.2434   15.1909   -5.4951 C   0  0  0  0  0  0  0  0  0  0  0  0
   42.7178   14.8715   -4.0686 C   0  0  0  0  0  0  0  0  0  0  0  0
   43.4051   16.1739   -3.7497 C   0  0  0  0  0  0  0  0  0  0  0  0
   42.9744   17.1686   -4.7859 C   0  0  0  0  0  0  0  0  0  0  0  0
   41.7384   16.5158   -5.3392 N   0  0  0  0  0  0  0  0  0  0  0  0
   40.4940   17.0938   -5.6510 C   0  0  0  0  0  0  0  0  0  0  0  0
   40.6163   18.1551   -6.4390 O   0  0  0  0  0  0  0  0  0  0  0  0
   39.1060   16.8327   -5.3368 C   0  0  0  0  0  0  0  0  0  0  0  0
   38.3508   16.1545   -6.4058 N   0  0  0  0  0  0  0  0  0  0  0  0
   37.0272   16.4474   -6.7746 C   0  0  0  0  0  0  0  0  0  0  0  0
   36.1798   15.4698   -6.7039 O   0  0  0  0  0  0  0  0  0  0  0  0
   37.0868   19.2212   -8.5623 H   0  0  0  0  0  0  0  0  0  0  0  0
   39.1236   16.8347   -9.3096 H   0  0  0  0  0  0  0  0  0  0  0  0
   41.8014   16.5386  -13.2995 H   0  0  0  0  0  0  0  0  0  0  0  0
   44.3719   13.1756  -11.0514 H   0  0  0  0  0  0  0  0  0  0  0  0
   41.0335   13.0959   -7.9556 H   0  0  0  0  0  0  0  0  0  0  0  0
   38.8085   15.3733   -6.9673 H   0  0  0  0  0  0  0  0  0  0  0  0
   34.5153   19.1784   -7.4794 C   0  0  0  0  0  0  0  0  0  0  0  0
   34.9909   17.8634   -6.8439 C   0  0  0  0  0  0  0  0  0  0  0  0
   34.9280   18.0531   -5.3619 C   0  0  0  0  0  0  0  0  0  0  0  0
   36.8569   15.2274  -10.4091 C   0  0  0  0  0  0  0  0  0  0  0  0
   35.3884   15.2327  -10.7648 C   0  0  0  0  0  0  0  0  0  0  0  0
   34.4744   15.5140   -9.7661 C   0  0  0  0  0  0  0  0  0  0  0  0
   33.1277   15.5299  -10.0686 C   0  0  0  0  0  0  0  0  0  0  0  0
   32.6419   15.2740  -11.3386 C   0  0  0  0  0  0  0  0  0  0  0  0
   33.5993   14.9979  -12.2980 C   0  0  0  0  0  0  0  0  0  0  0  0
   34.9508   14.9746  -12.0282 C   0  0  0  0  0  0  0  0  0  0  0  0
   39.4270   15.4230  -13.3279 C   0  0  0  0  0  0  0  0  0  0  0  0
   38.5032   14.2821  -13.1660 C   0  0  0  0  0  0  0  0  0  0  0  0
   38.5416   13.4318  -12.0640 C   0  0  0  0  0  0  0  0  0  0  0  0
   37.6410   12.4823  -12.2179 N   0  0  0  0  0  0  0  0  0  0  0  0
   36.9946   12.6541  -13.3740 C   0  0  0  0  0  0  0  0  0  0  0  0
   35.9573   11.9553  -13.9937 C   0  0  0  0  0  0  0  0  0  0  0  0
   35.4434   12.3633  -15.2011 C   0  0  0  0  0  0  0  0  0  0  0  0
   35.9689   13.4935  -15.8126 C   0  0  0  0  0  0  0  0  0  0  0  0
   36.9925   14.1658  -15.1802 C   0  0  0  0  0  0  0  0  0  0  0  0
   37.5317   13.7810  -13.9695 C   0  0  0  0  0  0  0  0  0  0  0  0
   37.3966   11.6680  -11.5791 H   0  0  0  0  0  0  0  0  0  0  0  0
   44.8260   15.8509  -11.0576 C   0  0  0  0  0  0  0  0  0  0  0  0
   45.9545   15.1345  -11.5927 C   0  0  0  0  0  0  0  0  0  0  0  0
   46.4369   15.2341  -12.9005 C   0  0  0  0  0  0  0  0  0  0  0  0
   47.5156   14.4586  -13.0440 N   0  0  0  0  0  0  0  0  0  0  0  0
   47.7580   13.8487  -11.8625 C   0  0  0  0  0  0  0  0  0  0  0  0
   48.7625   12.9530  -11.5514 C   0  0  0  0  0  0  0  0  0  0  0  0
   48.8286   12.4251  -10.2758 C   0  0  0  0  0  0  0  0  0  0  0  0
   47.8812   12.8158   -9.3529 C   0  0  0  0  0  0  0  0  0  0  0  0
   46.8786   13.7204   -9.6888 C   0  0  0  0  0  0  0  0  0  0  0  0
   46.7966   14.2599  -10.9563 C   0  0  0  0  0  0  0  0  0  0  0  0
   48.0630   14.3606  -13.9423 H   0  0  0  0  0  0  0  0  0  0  0  0
   44.0922   12.7455   -7.1685 C   0  0  0  0  0  0  0  0  0  0  0  0
   45.2991   13.4197   -6.7033 C   0  0  0  0  0  0  0  0  0  0  0  0
   45.4982   14.7978   -6.8928 C   0  0  0  0  0  0  0  0  0  0  0  0
   46.6004   15.4739   -6.4868 C   0  0  0  0  0  0  0  0  0  0  0  0
   47.6084   14.8041   -5.8460 C   0  0  0  0  0  0  0  0  0  0  0  0
   47.4740   13.4660   -5.6331 C   0  0  0  0  0  0  0  0  0  0  0  0
   46.3330   12.7783   -6.0553 C   0  0  0  0  0  0  0  0  0  0  0  0
   38.7021   16.3820   -3.9819 C   0  0  0  0  0  0  0  0  0  0  0  0
   37.5071   15.5538   -3.8712 C   0  0  0  0  0  0  0  0  0  0  0  0
   37.5658   14.1777   -4.0872 C   0  0  0  0  0  0  0  0  0  0  0  0
   36.4539   13.3540   -3.9487 C   0  0  0  0  0  0  0  0  0  0  0  0
   35.2507   13.9151   -3.5853 C   0  0  0  0  0  0  0  0  0  0  0  0
   35.1632   15.2548   -3.3676 C   0  0  0  0  0  0  0  0  0  0  0  0
   36.2914   16.0567   -3.5133 C   0  0  0  0  0  0  0  0  0  0  0  0
 38 39  1  0  0  0
 39 40  1  0  0  0
 39  1  1  0  0  0
  1  2  1  0  0  0
  2  3  1  0  0  0
  3  4  2  0  0  0
  3  5  1  0  0  0
  5 41  1  0  0  0
 41 42  1  0  0  0
 42 43  2  0  0  0
 43 44  1  0  0  0
 44 45  2  0  0  0
 45 46  1  0  0  0
 46 47  2  0  0  0
  5  6  1  0  0  0
  6  7  1  0  0  0
  7  8  2  0  0  0
  7  9  1  0  0  0
  9 48  1  0  0  0
 48 49  1  0  0  0
 49 50  2  0  0  0
 50 51  1  0  0  0
 51 52  1  0  0  0
 52 53  2  0  0  0
 53 54  1  0  0  0
 54 55  2  0  0  0
 55 56  1  0  0  0
 56 57  2  0  0  0
  9 10  1  0  0  0
 10 11  1  0  0  0
 11 12  2  0  0  0
 11 13  1  0  0  0
 13 59  1  0  0  0
 59 60  1  0  0  0
 60 61  2  0  0  0
 61 62  1  0  0  0
 62 63  1  0  0  0
 63 64  2  0  0  0
 64 65  1  0  0  0
 65 66  2  0  0  0
 66 67  1  0  0  0
 67 68  2  0  0  0
 13 14  1  0  0  0
 14 15  1  0  0  0
 15 16  2  0  0  0
 15 17  1  0  0  0
 17 70  1  0  0  0
 70 71  1  0  0  0
 71 72  2  0  0  0
 72 73  1  0  0  0
 73 74  2  0  0  0
 74 75  1  0  0  0
 75 76  2  0  0  0
 17 18  1  0  0  0
 18 19  1  0  0  0
 19 20  2  0  0  0
 19 21  1  0  0  0
 21 22  1  0  0  0
 22 23  1  0  0  0
 23 24  1  0  0  0
 24 25  1  0  0  0
 25 26  1  0  0  0
 26 27  2  0  0  0
 26 28  1  0  0  0
 28 77  1  0  0  0
 77 78  1  0  0  0
 78 79  2  0  0  0
 79 80  1  0  0  0
 80 81  2  0  0  0
 81 82  1  0  0  0
 82 83  2  0  0  0
 28 29  1  0  0  0
 29 30  1  0  0  0
 30 31  2  0  0  0
 30  1  1  0  0  0
 47 42  1  0  0  0
 57 49  1  0  0  0
 68 60  1  0  0  0
 76 71  1  0  0  0
 25 21  1  0  0  0
 83 78  1  0  0  0
 57 52  1  0  0  0
 68 63  1  0  0  0
  2 32  1  0  0  0
  6 33  1  0  0  0
 51 58  1  0  0  0
 10 34  1  0  0  0
 62 69  1  0  0  0
 14 35  1  0  0  0
 18 36  1  0  0  0
 29 37  1  0  0  0
M  END
> <minimizedAffinity>
0.57882

> <CNNscore>
0.3910601139

> <CNNaffinity>
7.8296709061

> <CNN_VS>
3.0618720055

> <CNNaffinity_variance>
1.6653245687

$$$$
[H]c1c([H])c([H])c(C([H])([H])[C@@]2([H])C(=O)N([H])[C@@]([H])(C([H])([H])c3c([H])n([H])c4c([H])c([H])c([H])c([H])c34)C(=O)N([H])[C@]([H])(C([H])([H])c3c([H])n([H])c4c([H])c([H])c([H])c([H])c34)C(=O)N([H])[C@@]([H])(C([H])([H])c3c([H])c([H])c([H])c([H])c3[H])C(=O)N([H])[C@@]([H])(C([H])(C([H])([H])[H])C([H])([H])[H])C(=O)N([H])[C@@]([H])(C([H])([H])c3c([H])c([H])c([H])c([H])c3[H])C(=O)N3C([H])([H])C([H])([H])C([H])([H])[C@@]3([H])C(=O)N2[H])c([H])c1[H]


 83 91  0  0  0  0  0  0  0  0999 V2000
   35.6962   17.3155   -6.9805 C   0  0  0  0  0  0  0  0  0  0  0  0
   35.8332   17.8322   -8.2922 N   0  0  0  0  0  0  0  0  0  0  0  0
   35.8257   17.3098   -9.5763 C   0  0  0  0  0  0  0  0  0  0  0  0
   34.7621   17.5834  -10.2948 O   0  0  0  0  0  0  0  0  0  0  0  0
   36.8018   16.4840  -10.3321 C   0  0  0  0  0  0  0  0  0  0  0  0
   38.1778   16.8545  -10.1562 N   0  0  0  0  0  0  0  0  0  0  0  0
   39.2296   17.0528  -11.0485 C   0  0  0  0  0  0  0  0  0  0  0  0
   39.7917   18.2159  -11.1161 O   0  0  0  0  0  0  0  0  0  0  0  0
   39.8405   16.0428  -11.9986 C   0  0  0  0  0  0  0  0  0  0  0  0
   41.1232   16.5445  -12.4542 N   0  0  0  0  0  0  0  0  0  0  0  0
   42.4137   16.1715  -12.1124 C   0  0  0  0  0  0  0  0  0  0  0  0
   43.1819   15.6679  -12.9727 O   0  0  0  0  0  0  0  0  0  0  0  0
   43.0737   16.2997  -10.7525 C   0  0  0  0  0  0  0  0  0  0  0  0
   43.5339   14.9865  -10.3998 N   0  0  0  0  0  0  0  0  0  0  0  0
   43.0735   14.2052   -9.3076 C   0  0  0  0  0  0  0  0  0  0  0  0
   42.6673   13.0279   -9.5727 O   0  0  0  0  0  0  0  0  0  0  0  0
   43.0285   14.6500   -7.8973 C   0  0  0  0  0  0  0  0  0  0  0  0
   41.7507   14.3528   -7.2901 N   0  0  0  0  0  0  0  0  0  0  0  0
   41.3858   14.8278   -5.9968 C   0  0  0  0  0  0  0  0  0  0  0  0
   40.5540   14.1126   -5.3825 O   0  0  0  0  0  0  0  0  0  0  0  0
   41.8974   16.0128   -5.3946 C   0  0  0  0  0  0  0  0  0  0  0  0
   42.4577   15.7774   -3.9831 C   0  0  0  0  0  0  0  0  0  0  0  0
   42.8661   17.1893   -3.6512 C   0  0  0  0  0  0  0  0  0  0  0  0
   42.2165   18.0883   -4.6604 C   0  0  0  0  0  0  0  0  0  0  0  0
   41.1317   17.2012   -5.2045 N   0  0  0  0  0  0  0  0  0  0  0  0
   39.7881   17.5124   -5.4835 C   0  0  0  0  0  0  0  0  0  0  0  0
   39.6707   18.5877   -6.2528 O   0  0  0  0  0  0  0  0  0  0  0  0
   38.4915   16.9635   -5.1501 C   0  0  0  0  0  0  0  0  0  0  0  0
   37.8713   16.1594   -6.2186 N   0  0  0  0  0  0  0  0  0  0  0  0
   36.5082   16.1761   -6.5587 C   0  0  0  0  0  0  0  0  0  0  0  0
   35.8840   15.0427   -6.4920 O   0  0  0  0  0  0  0  0  0  0  0  0
   35.9529   18.9285   -8.2934 H   0  0  0  0  0  0  0  0  0  0  0  0
   38.4247   17.0295   -9.1219 H   0  0  0  0  0  0  0  0  0  0  0  0
   41.0210   17.3575  -13.1628 H   0  0  0  0  0  0  0  0  0  0  0  0
   44.2806   14.5689  -11.0249 H   0  0  0  0  0  0  0  0  0  0  0  0
   41.0974   13.7496   -7.8735 H   0  0  0  0  0  0  0  0  0  0  0  0
   38.4693   15.4991   -6.8030 H   0  0  0  0  0  0  0  0  0  0  0  0
   33.3945   17.8731   -7.6310 C   0  0  0  0  0  0  0  0  0  0  0  0
   34.2213   17.1385   -6.5652 C   0  0  0  0  0  0  0  0  0  0  0  0
   34.0240   17.8784   -5.2807 C   0  0  0  0  0  0  0  0  0  0  0  0
   36.5186   15.0027  -10.2124 C   0  0  0  0  0  0  0  0  0  0  0  0
   37.3842   14.3793   -9.1422 C   0  0  0  0  0  0  0  0  0  0  0  0
   38.7451   14.6212   -9.1785 C   0  0  0  0  0  0  0  0  0  0  0  0
   39.5552   14.0666   -8.2081 C   0  0  0  0  0  0  0  0  0  0  0  0
   39.0653   13.2698   -7.1885 C   0  0  0  0  0  0  0  0  0  0  0  0
   37.6981   13.0602   -7.2011 C   0  0  0  0  0  0  0  0  0  0  0  0
   36.8624   13.5996   -8.1553 C   0  0  0  0  0  0  0  0  0  0  0  0
   38.9300   15.7729  -13.1712 C   0  0  0  0  0  0  0  0  0  0  0  0
   38.4613   14.3726  -13.1454 C   0  0  0  0  0  0  0  0  0  0  0  0
   39.3321   13.2861  -13.1533 C   0  0  0  0  0  0  0  0  0  0  0  0
   38.6319   12.1701  -13.1785 N   0  0  0  0  0  0  0  0  0  0  0  0
   37.3269   12.4539  -13.1863 C   0  0  0  0  0  0  0  0  0  0  0  0
   36.1825   11.6550  -13.1914 C   0  0  0  0  0  0  0  0  0  0  0  0
   34.9251   12.2092  -13.1737 C   0  0  0  0  0  0  0  0  0  0  0  0
   34.7954   13.5912  -13.1498 C   0  0  0  0  0  0  0  0  0  0  0  0
   35.9408   14.3578  -13.1452 C   0  0  0  0  0  0  0  0  0  0  0  0
   37.2169   13.8325  -13.1647 C   0  0  0  0  0  0  0  0  0  0  0  0
   38.9644   11.1601  -13.1928 H   0  0  0  0  0  0  0  0  0  0  0  0
   44.1689   17.2800  -10.9876 C   0  0  0  0  0  0  0  0  0  0  0  0
   45.4259   16.8148  -11.5138 C   0  0  0  0  0  0  0  0  0  0  0  0
   45.8106   16.8521  -12.8568 C   0  0  0  0  0  0  0  0  0  0  0  0
   47.0512   16.3723  -12.9844 N   0  0  0  0  0  0  0  0  0  0  0  0
   47.4960   16.0187  -11.7581 C   0  0  0  0  0  0  0  0  0  0  0  0
   48.7159   15.4686  -11.4154 C   0  0  0  0  0  0  0  0  0  0  0  0
   48.9728   15.1607  -10.0928 C   0  0  0  0  0  0  0  0  0  0  0  0
   47.9933   15.4164   -9.1561 C   0  0  0  0  0  0  0  0  0  0  0  0
   46.7719   15.9720   -9.5247 C   0  0  0  0  0  0  0  0  0  0  0  0
   46.4969   16.2881  -10.8395 C   0  0  0  0  0  0  0  0  0  0  0  0
   47.5680   16.2954  -13.9027 H   0  0  0  0  0  0  0  0  0  0  0  0
   44.1781   14.0312   -7.1468 C   0  0  0  0  0  0  0  0  0  0  0  0
   45.1481   14.9469   -6.5568 C   0  0  0  0  0  0  0  0  0  0  0  0
   45.0526   16.3385   -6.7274 C   0  0  0  0  0  0  0  0  0  0  0  0
   45.9270   17.2341   -6.2075 C   0  0  0  0  0  0  0  0  0  0  0  0
   46.9866   16.7919   -5.4611 C   0  0  0  0  0  0  0  0  0  0  0  0
   47.1333   15.4532   -5.2605 C   0  0  0  0  0  0  0  0  0  0  0  0
   46.2257   14.5380   -5.8006 C   0  0  0  0  0  0  0  0  0  0  0  0
   38.2186   16.4181   -3.7974 C   0  0  0  0  0  0  0  0  0  0  0  0
   37.1978   15.3839   -3.6766 C   0  0  0  0  0  0  0  0  0  0  0  0
   37.5432   14.0332   -3.6685 C   0  0  0  0  0  0  0  0  0  0  0  0
   36.5989   13.0241   -3.5130 C   0  0  0  0  0  0  0  0  0  0  0  0
   35.2749   13.3686   -3.3614 C   0  0  0  0  0  0  0  0  0  0  0  0
   34.9083   14.6783   -3.3651 C   0  0  0  0  0  0  0  0  0  0  0  0
   35.8734   15.6687   -3.5227 C   0  0  0  0  0  0  0  0  0  0  0  0
 38 39  1  0  0  0
 39 40  1  0  0  0
 39  1  1  0  0  0
  1  2  1  0  0  0
  2  3  1  0  0  0
  3  4  2  0  0  0
  3  5  1  0  0  0
  5 41  1  0  0  0
 41 42  1  0  0  0
 42 43  2  0  0  0
 43 44  1  0  0  0
 44 45  2  0  0  0
 45 46  1  0  0  0
 46 47  2  0  0  0
  5  6  1  0  0  0
  6  7  1  0  0  0
  7  8  2  0  0  0
  7  9  1  0  0  0
  9 48  1  0  0  0
 48 49  1  0  0  0
 49 50  2  0  0  0
 50 51  1  0  0  0
 51 52  1  0  0  0
 52 53  2  0  0  0
 53 54  1  0  0  0
 54 55  2  0  0  0
 55 56  1  0  0  0
 56 57  2  0  0  0
  9 10  1  0  0  0
 10 11  1  0  0  0
 11 12  2  0  0  0
 11 13  1  0  0  0
 13 59  1  0  0  0
 59 60  1  0  0  0
 60 61  2  0  0  0
 61 62  1  0  0  0
 62 63  1  0  0  0
 63 64  2  0  0  0
 64 65  1  0  0  0
 65 66  2  0  0  0
 66 67  1  0  0  0
 67 68  2  0  0  0
 13 14  1  0  0  0
 14 15  1  0  0  0
 15 16  2  0  0  0
 15 17  1  0  0  0
 17 70  1  0  0  0
 70 71  1  0  0  0
 71 72  2  0  0  0
 72 73  1  0  0  0
 73 74  2  0  0  0
 74 75  1  0  0  0
 75 76  2  0  0  0
 17 18  1  0  0  0
 18 19  1  0  0  0
 19 20  2  0  0  0
 19 21  1  0  0  0
 21 22  1  0  0  0
 22 23  1  0  0  0
 23 24  1  0  0  0
 24 25  1  0  0  0
 25 26  1  0  0  0
 26 27  2  0  0  0
 26 28  1  0  0  0
 28 77  1  0  0  0
 77 78  1  0  0  0
 78 79  2  0  0  0
 79 80  1  0  0  0
 80 81  2  0  0  0
 81 82  1  0  0  0
 82 83  2  0  0  0
 28 29  1  0  0  0
 29 30  1  0  0  0
 30 31  2  0  0  0
 30  1  1  0  0  0
 47 42  1  0  0  0
 57 49  1  0  0  0
 68 60  1  0  0  0
 76 71  1  0  0  0
 25 21  1  0  0  0
 83 78  1  0  0  0
 57 52  1  0  0  0
 68 63  1  0  0  0
  2 32  1  0  0  0
  6 33  1  0  0  0
 51 58  1  0  0  0
 10 34  1  0  0  0
 62 69  1  0  0  0
 14 35  1  0  0  0
 18 36  1  0  0  0
 29 37  1  0  0  0
M  END
> <minimizedAffinity>
0.81468

> <CNNscore>
0.3366577029

> <CNNaffinity>
7.7535195351

> <CNN_VS>
2.6102821827

> <CNNaffinity_variance>
0.5486769080

$$$$
[H]c1c([H])c([H])c(C([H])([H])[C@@]2([H])C(=O)N([H])[C@@]([H])(C([H])([H])c3c([H])n([H])c4c([H])c([H])c([H])c([H])c34)C(=O)N([H])[C@]([H])(C([H])([H])c3c([H])n([H])c4c([H])c([H])c([H])c([H])c34)C(=O)N([H])[C@@]([H])(C([H])([H])c3c([H])c([H])c([H])c([H])c3[H])C(=O)N([H])[C@@]([H])(C([H])(C([H])([H])[H])C([H])([H])[H])C(=O)N([H])[C@@]([H])(C([H])([H])c3c([H])c([H])c([H])c([H])c3[H])C(=O)N3C([H])([H])C([H])([H])C([H])([H])[C@@]3([H])C(=O)N2[H])c([H])c1[H]


 83 91  0  0  0  0  0  0  0  0999 V2000
   36.4379   15.8395   -8.1800 C   0  0  0  0  0  0  0  0  0  0  0  0
   36.6240   16.4974   -9.4205 N   0  0  0  0  0  0  0  0  0  0  0  0
   36.6651   16.1200  -10.7538 C   0  0  0  0  0  0  0  0  0  0  0  0
   35.6292   16.4753  -11.4771 O   0  0  0  0  0  0  0  0  0  0  0  0
   37.6692   15.3790  -11.5591 C   0  0  0  0  0  0  0  0  0  0  0  0
   39.0375   15.7227  -11.2919 N   0  0  0  0  0  0  0  0  0  0  0  0
   40.1221   16.0142  -12.1168 C   0  0  0  0  0  0  0  0  0  0  0  0
   40.6859   17.1756  -12.0344 O   0  0  0  0  0  0  0  0  0  0  0  0
   40.7687   15.1130  -13.1491 C   0  0  0  0  0  0  0  0  0  0  0  0
   42.0675   15.6571  -13.4981 N   0  0  0  0  0  0  0  0  0  0  0  0
   43.3443   15.2437  -13.1515 C   0  0  0  0  0  0  0  0  0  0  0  0
   44.1446   14.8353  -14.0328 O   0  0  0  0  0  0  0  0  0  0  0  0
   43.9526   15.2186  -11.7620 C   0  0  0  0  0  0  0  0  0  0  0  0
   44.3997   13.8726  -11.5395 N   0  0  0  0  0  0  0  0  0  0  0  0
   43.8987   12.9773  -10.5584 C   0  0  0  0  0  0  0  0  0  0  0  0
   43.5033   11.8381  -10.9670 O   0  0  0  0  0  0  0  0  0  0  0  0
   43.8005   13.2638   -9.1103 C   0  0  0  0  0  0  0  0  0  0  0  0
   42.5009   12.9062   -8.5879 N   0  0  0  0  0  0  0  0  0  0  0  0
   42.0873   13.2369   -7.2646 C   0  0  0  0  0  0  0  0  0  0  0  0
   41.2333   12.4614   -6.7647 O   0  0  0  0  0  0  0  0  0  0  0  0
   42.5755   14.3462   -6.5165 C   0  0  0  0  0  0  0  0  0  0  0  0
   43.0823   13.9543   -5.1196 C   0  0  0  0  0  0  0  0  0  0  0  0
   43.4774   15.3194   -4.6187 C   0  0  0  0  0  0  0  0  0  0  0  0
   42.8659   16.3267   -5.5460 C   0  0  0  0  0  0  0  0  0  0  0  0
   41.8027   15.5092   -6.2250 N   0  0  0  0  0  0  0  0  0  0  0  0
   40.4704   15.8544   -6.5181 C   0  0  0  0  0  0  0  0  0  0  0  0
   40.3817   17.0086   -7.1678 O   0  0  0  0  0  0  0  0  0  0  0  0
   39.1624   15.2770   -6.2962 C   0  0  0  0  0  0  0  0  0  0  0  0
   38.5832   14.5982   -7.4696 N   0  0  0  0  0  0  0  0  0  0  0  0
   37.2339   14.6575   -7.8565 C   0  0  0  0  0  0  0  0  0  0  0  0
   36.6080   13.5260   -7.9389 O   0  0  0  0  0  0  0  0  0  0  0  0
   36.7432   17.5867   -9.2961 H   0  0  0  0  0  0  0  0  0  0  0  0
   39.2452   15.7814  -10.2361 H   0  0  0  0  0  0  0  0  0  0  0  0
   41.9917   16.5437  -14.1159 H   0  0  0  0  0  0  0  0  0  0  0  0
   45.1696   13.5238  -12.1786 H   0  0  0  0  0  0  0  0  0  0  0  0
   41.8703   12.3736   -9.2585 H   0  0  0  0  0  0  0  0  0  0  0  0
   39.2030   14.0042   -8.1004 H   0  0  0  0  0  0  0  0  0  0  0  0
   34.1661   16.0896   -9.0792 C   0  0  0  0  0  0  0  0  0  0  0  0
   34.9485   15.6233   -7.8424 C   0  0  0  0  0  0  0  0  0  0  0  0
   34.5984   16.5616   -6.7318 C   0  0  0  0  0  0  0  0  0  0  0  0
   37.3823   13.8947  -11.6145 C   0  0  0  0  0  0  0  0  0  0  0  0
   36.5027   13.5656  -12.7983 C   0  0  0  0  0  0  0  0  0  0  0  0
   35.8057   12.3716  -12.7835 C   0  0  0  0  0  0  0  0  0  0  0  0
   34.9917   12.0520  -13.8516 C   0  0  0  0  0  0  0  0  0  0  0  0
   34.8381   12.8787  -14.9504 C   0  0  0  0  0  0  0  0  0  0  0  0
   35.5586   14.0589  -14.9130 C   0  0  0  0  0  0  0  0  0  0  0  0
   36.3794   14.4070  -13.8619 C   0  0  0  0  0  0  0  0  0  0  0  0
   39.9031   14.9777  -14.3777 C   0  0  0  0  0  0  0  0  0  0  0  0
   40.4029   13.8879  -15.2402 C   0  0  0  0  0  0  0  0  0  0  0  0
   41.7497   13.7375  -15.5602 C   0  0  0  0  0  0  0  0  0  0  0  0
   41.8882   12.7169  -16.3821 N   0  0  0  0  0  0  0  0  0  0  0  0
   40.6953   12.1699  -16.6303 C   0  0  0  0  0  0  0  0  0  0  0  0
   40.2946   11.0780  -17.4017 C   0  0  0  0  0  0  0  0  0  0  0  0
   38.9754   10.6995  -17.4722 C   0  0  0  0  0  0  0  0  0  0  0  0
   38.0263   11.4201  -16.7600 C   0  0  0  0  0  0  0  0  0  0  0  0
   38.4475   12.4939  -16.0057 C   0  0  0  0  0  0  0  0  0  0  0  0
   39.7633   12.9005  -15.9157 C   0  0  0  0  0  0  0  0  0  0  0  0
   42.7675   12.3191  -16.8286 H   0  0  0  0  0  0  0  0  0  0  0  0
   45.0555   16.2146  -11.8462 C   0  0  0  0  0  0  0  0  0  0  0  0
   45.5232   16.8472  -10.6402 C   0  0  0  0  0  0  0  0  0  0  0  0
   44.7373   17.1635   -9.5288 C   0  0  0  0  0  0  0  0  0  0  0  0
   45.5002   17.7094   -8.5772 N   0  0  0  0  0  0  0  0  0  0  0  0
   46.7716   17.7616   -9.0327 C   0  0  0  0  0  0  0  0  0  0  0  0
   47.8910   18.2568   -8.3925 C   0  0  0  0  0  0  0  0  0  0  0  0
   49.1099   18.2331   -9.0433 C   0  0  0  0  0  0  0  0  0  0  0  0
   49.1640   17.7114  -10.3189 C   0  0  0  0  0  0  0  0  0  0  0  0
   48.0231   17.2173  -10.9438 C   0  0  0  0  0  0  0  0  0  0  0  0
   46.7973   17.2305  -10.3101 C   0  0  0  0  0  0  0  0  0  0  0  0
   45.1395   18.0350   -7.6390 H   0  0  0  0  0  0  0  0  0  0  0  0
   44.9213   12.5616   -8.3901 C   0  0  0  0  0  0  0  0  0  0  0  0
   46.1362   13.3328   -8.1524 C   0  0  0  0  0  0  0  0  0  0  0  0
   47.2057   13.3306   -9.0639 C   0  0  0  0  0  0  0  0  0  0  0  0
   48.3582   14.0228   -8.8919 C   0  0  0  0  0  0  0  0  0  0  0  0
   48.5288   14.7861   -7.7677 C   0  0  0  0  0  0  0  0  0  0  0  0
   47.5272   14.8285   -6.8464 C   0  0  0  0  0  0  0  0  0  0  0  0
   46.3425   14.1113   -7.0337 C   0  0  0  0  0  0  0  0  0  0  0  0
   38.8390   14.5866   -5.0232 C   0  0  0  0  0  0  0  0  0  0  0  0
   37.5290   14.8331   -4.4321 C   0  0  0  0  0  0  0  0  0  0  0  0
   37.2074   16.0792   -3.8958 C   0  0  0  0  0  0  0  0  0  0  0  0
   35.9539   16.3594   -3.3627 C   0  0  0  0  0  0  0  0  0  0  0  0
   34.9943   15.3726   -3.3633 C   0  0  0  0  0  0  0  0  0  0  0  0
   35.2792   14.1473   -3.8800 C   0  0  0  0  0  0  0  0  0  0  0  0
   36.5420   13.8929   -4.4073 C   0  0  0  0  0  0  0  0  0  0  0  0
 38 39  1  0  0  0
 39 40  1  0  0  0
 39  1  1  0  0  0
  1  2  1  0  0  0
  2  3  1  0  0  0
  3  4  2  0  0  0
  3  5  1  0  0  0
  5 41  1  0  0  0
 41 42  1  0  0  0
 42 43  2  0  0  0
 43 44  1  0  0  0
 44 45  2  0  0  0
 45 46  1  0  0  0
 46 47  2  0  0  0
  5  6  1  0  0  0
  6  7  1  0  0  0
  7  8  2  0  0  0
  7  9  1  0  0  0
  9 48  1  0  0  0
 48 49  1  0  0  0
 49 50  2  0  0  0
 50 51  1  0  0  0
 51 52  1  0  0  0
 52 53  2  0  0  0
 53 54  1  0  0  0
 54 55  2  0  0  0
 55 56  1  0  0  0
 56 57  2  0  0  0
  9 10  1  0  0  0
 10 11  1  0  0  0
 11 12  2  0  0  0
 11 13  1  0  0  0
 13 59  1  0  0  0
 59 60  1  0  0  0
 60 61  2  0  0  0
 61 62  1  0  0  0
 62 63  1  0  0  0
 63 64  2  0  0  0
 64 65  1  0  0  0
 65 66  2  0  0  0
 66 67  1  0  0  0
 67 68  2  0  0  0
 13 14  1  0  0  0
 14 15  1  0  0  0
 15 16  2  0  0  0
 15 17  1  0  0  0
 17 70  1  0  0  0
 70 71  1  0  0  0
 71 72  2  0  0  0
 72 73  1  0  0  0
 73 74  2  0  0  0
 74 75  1  0  0  0
 75 76  2  0  0  0
 17 18  1  0  0  0
 18 19  1  0  0  0
 19 20  2  0  0  0
 19 21  1  0  0  0
 21 22  1  0  0  0
 22 23  1  0  0  0
 23 24  1  0  0  0
 24 25  1  0  0  0
 25 26  1  0  0  0
 26 27  2  0  0  0
 26 28  1  0  0  0
 28 77  1  0  0  0
 77 78  1  0  0  0
 78 79  2  0  0  0
 79 80  1  0  0  0
 80 81  2  0  0  0
 81 82  1  0  0  0
 82 83  2  0  0  0
 28 29  1  0  0  0
 29 30  1  0  0  0
 30 31  2  0  0  0
 30  1  1  0  0  0
 47 42  1  0  0  0
 57 49  1  0  0  0
 68 60  1  0  0  0
 76 71  1  0  0  0
 25 21  1  0  0  0
 83 78  1  0  0  0
 57 52  1  0  0  0
 68 63  1  0  0  0
  2 32  1  0  0  0
  6 33  1  0  0  0
 51 58  1  0  0  0
 10 34  1  0  0  0
 62 69  1  0  0  0
 14 35  1  0  0  0
 18 36  1  0  0  0
 29 37  1  0  0  0
M  END
> <minimizedAffinity>
-10.14711

> <CNNscore>
0.3252445757

> <CNNaffinity>
8.3365449905

> <CNN_VS>
2.7114160061

> <CNNaffinity_variance>
1.4348856211

$$$$
[H]c1c([H])c([H])c(C([H])([H])[C@@]2([H])C(=O)N([H])[C@@]([H])(C([H])([H])c3c([H])n([H])c4c([H])c([H])c([H])c([H])c34)C(=O)N([H])[C@]([H])(C([H])([H])c3c([H])n([H])c4c([H])c([H])c([H])c([H])c34)C(=O)N([H])[C@@]([H])(C([H])([H])c3c([H])c([H])c([H])c([H])c3[H])C(=O)N([H])[C@@]([H])(C([H])(C([H])([H])[H])C([H])([H])[H])C(=O)N([H])[C@@]([H])(C([H])([H])c3c([H])c([H])c([H])c([H])c3[H])C(=O)N3C([H])([H])C([H])([H])C([H])([H])[C@@]3([H])C(=O)N2[H])c([H])c1[H]


 83 91  0  0  0  0  0  0  0  0999 V2000
   31.3649   14.0142  -10.6877 C   0  0  0  0  0  0  0  0  0  0  0  0
   31.5105   13.7771   -9.2989 N   0  0  0  0  0  0  0  0  0  0  0  0
   31.5284   14.5536   -8.1506 C   0  0  0  0  0  0  0  0  0  0  0  0
   30.4699   14.4544   -7.3810 O   0  0  0  0  0  0  0  0  0  0  0  0
   32.5277   15.4992   -7.5911 C   0  0  0  0  0  0  0  0  0  0  0  0
   33.8950   15.0744   -7.6994 N   0  0  0  0  0  0  0  0  0  0  0  0
   34.9549   15.0450   -6.7953 C   0  0  0  0  0  0  0  0  0  0  0  0
   35.4986   13.9105   -6.4938 O   0  0  0  0  0  0  0  0  0  0  0  0
   35.5948   16.2177   -6.0804 C   0  0  0  0  0  0  0  0  0  0  0  0
   36.8749   15.7969   -5.5429 N   0  0  0  0  0  0  0  0  0  0  0  0
   38.1668   16.0669   -5.9664 C   0  0  0  0  0  0  0  0  0  0  0  0
   38.9544   16.7228   -5.2362 O   0  0  0  0  0  0  0  0  0  0  0  0
   38.8067   15.6480   -7.2766 C   0  0  0  0  0  0  0  0  0  0  0  0
   39.2840   16.8512   -7.8976 N   0  0  0  0  0  0  0  0  0  0  0  0
   38.8222   17.3985   -9.1233 C   0  0  0  0  0  0  0  0  0  0  0  0
   38.4391   18.6126   -9.1036 O   0  0  0  0  0  0  0  0  0  0  0  0
   38.7515   16.6729  -10.4106 C   0  0  0  0  0  0  0  0  0  0  0  0
   37.4710   16.8623  -11.0542 N   0  0  0  0  0  0  0  0  0  0  0  0
   37.0815   16.1373  -12.2178 C   0  0  0  0  0  0  0  0  0  0  0  0
   36.2537   16.7257  -12.9590 O   0  0  0  0  0  0  0  0  0  0  0  0
   37.5655   14.8440  -12.5667 C   0  0  0  0  0  0  0  0  0  0  0  0
   38.1112   14.7721  -14.0016 C   0  0  0  0  0  0  0  0  0  0  0  0
   38.4919   13.3146  -14.0382 C   0  0  0  0  0  0  0  0  0  0  0  0
   37.8407   12.6559  -12.8589 C   0  0  0  0  0  0  0  0  0  0  0  0
   36.7779   13.6566  -12.4998 N   0  0  0  0  0  0  0  0  0  0  0  0
   35.4331   13.4352  -12.1500 C   0  0  0  0  0  0  0  0  0  0  0  0
   35.3080   12.5443  -11.1738 O   0  0  0  0  0  0  0  0  0  0  0  0
   34.1414   13.9276  -12.5774 C   0  0  0  0  0  0  0  0  0  0  0  0
   33.5486   14.9467  -11.6925 N   0  0  0  0  0  0  0  0  0  0  0  0
   32.1900   15.0263  -11.3437 C   0  0  0  0  0  0  0  0  0  0  0  0
   31.5838   16.1331  -11.6374 O   0  0  0  0  0  0  0  0  0  0  0  0
   31.6120   12.7026   -9.0721 H   0  0  0  0  0  0  0  0  0  0  0  0
   34.1255   14.6849   -8.6774 H   0  0  0  0  0  0  0  0  0  0  0  0
   36.7685   15.1500   -4.6805 H   0  0  0  0  0  0  0  0  0  0  0  0
   40.0455   17.3747   -7.3793 H   0  0  0  0  0  0  0  0  0  0  0  0
   36.8355   17.5852  -10.6020 H   0  0  0  0  0  0  0  0  0  0  0  0
   34.1650   15.7021  -11.2630 H   0  0  0  0  0  0  0  0  0  0  0  0
   29.9102   14.6499  -12.5618 C   0  0  0  0  0  0  0  0  0  0  0  0
   29.8878   14.1293  -11.1168 C   0  0  0  0  0  0  0  0  0  0  0  0
   29.2594   15.1996  -10.2827 C   0  0  0  0  0  0  0  0  0  0  0  0
   32.2675   16.9288   -8.0118 C   0  0  0  0  0  0  0  0  0  0  0  0
   31.1842   17.5467   -7.1586 C   0  0  0  0  0  0  0  0  0  0  0  0
   31.1712   17.2569   -5.8067 C   0  0  0  0  0  0  0  0  0  0  0  0
   30.1942   17.8142   -5.0064 C   0  0  0  0  0  0  0  0  0  0  0  0
   29.2146   18.6587   -5.4978 C   0  0  0  0  0  0  0  0  0  0  0  0
   29.2745   18.9134   -6.8561 C   0  0  0  0  0  0  0  0  0  0  0  0
   30.2367   18.3731   -7.6818 C   0  0  0  0  0  0  0  0  0  0  0  0
   34.7043   16.7412   -4.9804 C   0  0  0  0  0  0  0  0  0  0  0  0
   35.0730   18.1299   -4.6386 C   0  0  0  0  0  0  0  0  0  0  0  0
   35.8362   18.4534   -3.5199 C   0  0  0  0  0  0  0  0  0  0  0  0
   35.9597   19.7631   -3.4439 N   0  0  0  0  0  0  0  0  0  0  0  0
   35.3155   20.3389   -4.4623 C   0  0  0  0  0  0  0  0  0  0  0  0
   35.1542   21.6694   -4.8519 C   0  0  0  0  0  0  0  0  0  0  0  0
   34.4467   22.0014   -5.9823 C   0  0  0  0  0  0  0  0  0  0  0  0
   33.8838   20.9901   -6.7491 C   0  0  0  0  0  0  0  0  0  0  0  0
   34.0576   19.6846   -6.3431 C   0  0  0  0  0  0  0  0  0  0  0  0
   34.7600   19.3185   -5.2129 C   0  0  0  0  0  0  0  0  0  0  0  0
   36.4700   20.3564   -2.7239 H   0  0  0  0  0  0  0  0  0  0  0  0
   39.8887   14.7170   -6.8541 C   0  0  0  0  0  0  0  0  0  0  0  0
   41.2574   15.1603   -6.9106 C   0  0  0  0  0  0  0  0  0  0  0  0
   41.6981   16.4712   -6.7101 C   0  0  0  0  0  0  0  0  0  0  0  0
   43.0305   16.5184   -6.8008 N   0  0  0  0  0  0  0  0  0  0  0  0
   43.4813   15.2702   -7.0564 C   0  0  0  0  0  0  0  0  0  0  0  0
   44.7848   14.8511   -7.2388 C   0  0  0  0  0  0  0  0  0  0  0  0
   45.0370   13.5196   -7.5096 C   0  0  0  0  0  0  0  0  0  0  0  0
   43.9685   12.6510   -7.5882 C   0  0  0  0  0  0  0  0  0  0  0  0
   42.6635   13.0958   -7.4000 C   0  0  0  0  0  0  0  0  0  0  0  0
   42.3912   14.4208   -7.1271 C   0  0  0  0  0  0  0  0  0  0  0  0
   43.6039   17.3985   -6.6874 H   0  0  0  0  0  0  0  0  0  0  0  0
   39.9013   17.1015  -11.2837 C   0  0  0  0  0  0  0  0  0  0  0  0
   40.9965   16.1514  -11.4433 C   0  0  0  0  0  0  0  0  0  0  0  0
   41.2663   15.5316  -12.6752 C   0  0  0  0  0  0  0  0  0  0  0  0
   42.2653   14.6387  -12.8791 C   0  0  0  0  0  0  0  0  0  0  0  0
   43.0872   14.2925  -11.8399 C   0  0  0  0  0  0  0  0  0  0  0  0
   42.8758   14.8597  -10.6202 C   0  0  0  0  0  0  0  0  0  0  0  0
   41.8429   15.7798  -10.4208 C   0  0  0  0  0  0  0  0  0  0  0  0
   33.8600   14.1869  -14.0111 C   0  0  0  0  0  0  0  0  0  0  0  0
   34.2623   13.1700  -14.9757 C   0  0  0  0  0  0  0  0  0  0  0  0
   33.4333   12.0865  -15.2630 C   0  0  0  0  0  0  0  0  0  0  0  0
   33.7684   11.1224  -16.2076 C   0  0  0  0  0  0  0  0  0  0  0  0
   34.9611   11.2398  -16.8847 C   0  0  0  0  0  0  0  0  0  0  0  0
   35.7900   12.2865  -16.6255 C   0  0  0  0  0  0  0  0  0  0  0  0
   35.4307   13.2375  -15.6750 C   0  0  0  0  0  0  0  0  0  0  0  0
 38 39  1  0  0  0
 39 40  1  0  0  0
 39  1  1  0  0  0
  1  2  1  0  0  0
  2  3  1  0  0  0
  3  4  2  0  0  0
  3  5  1  0  0  0
  5 41  1  0  0  0
 41 42  1  0  0  0
 42 43  2  0  0  0
 43 44  1  0  0  0
 44 45  2  0  0  0
 45 46  1  0  0  0
 46 47  2  0  0  0
  5  6  1  0  0  0
  6  7  1  0  0  0
  7  8  2  0  0  0
  7  9  1  0  0  0
  9 48  1  0  0  0
 48 49  1  0  0  0
 49 50  2  0  0  0
 50 51  1  0  0  0
 51 52  1  0  0  0
 52 53  2  0  0  0
 53 54  1  0  0  0
 54 55  2  0  0  0
 55 56  1  0  0  0
 56 57  2  0  0  0
  9 10  1  0  0  0
 10 11  1  0  0  0
 11 12  2  0  0  0
 11 13  1  0  0  0
 13 59  1  0  0  0
 59 60  1  0  0  0
 60 61  2  0  0  0
 61 62  1  0  0  0
 62 63  1  0  0  0
 63 64  2  0  0  0
 64 65  1  0  0  0
 65 66  2  0  0  0
 66 67  1  0  0  0
 67 68  2  0  0  0
 13 14  1  0  0  0
 14 15  1  0  0  0
 15 16  2  0  0  0
 15 17  1  0  0  0
 17 70  1  0  0  0
 70 71  1  0  0  0
 71 72  2  0  0  0
 72 73  1  0  0  0
 73 74  2  0  0  0
 74 75  1  0  0  0
 75 76  2  0  0  0
 17 18  1  0  0  0
 18 19  1  0  0  0
 19 20  2  0  0  0
 19 21  1  0  0  0
 21 22  1  0  0  0
 22 23  1  0  0  0
 23 24  1  0  0  0
 24 25  1  0  0  0
 25 26  1  0  0  0
 26 27  2  0  0  0
 26 28  1  0  0  0
 28 77  1  0  0  0
 77 78  1  0  0  0
 78 79  2  0  0  0
 79 80  1  0  0  0
 80 81  2  0  0  0
 81 82  1  0  0  0
 82 83  2  0  0  0
 28 29  1  0  0  0
 29 30  1  0  0  0
 30 31  2  0  0  0
 30  1  1  0  0  0
 47 42  1  0  0  0
 57 49  1  0  0  0
 68 60  1  0  0  0
 76 71  1  0  0  0
 25 21  1  0  0  0
 83 78  1  0  0  0
 57 52  1  0  0  0
 68 63  1  0  0  0
  2 32  1  0  0  0
  6 33  1  0  0  0
 51 58  1  0  0  0
 10 34  1  0  0  0
 62 69  1  0  0  0
 14 35  1  0  0  0
 18 36  1  0  0  0
 29 37  1  0  0  0
M  END
> <minimizedAffinity>
-5.90487

> <CNNscore>
0.3171808124

> <CNNaffinity>
8.0915546417

> <CNN_VS>
2.5664858818

> <CNNaffinity_variance>
0.9970620275

$$$$
[H]c1c([H])c([H])c(C([H])([H])[C@@]2([H])C(=O)N([H])[C@@]([H])(C([H])([H])c3c([H])n([H])c4c([H])c([H])c([H])c([H])c34)C(=O)N([H])[C@]([H])(C([H])([H])c3c([H])n([H])c4c([H])c([H])c([H])c([H])c34)C(=O)N([H])[C@@]([H])(C([H])([H])c3c([H])c([H])c([H])c([H])c3[H])C(=O)N([H])[C@@]([H])(C([H])(C([H])([H])[H])C([H])([H])[H])C(=O)N([H])[C@@]([H])(C([H])([H])c3c([H])c([H])c([H])c([H])c3[H])C(=O)N3C([H])([H])C([H])([H])C([H])([H])[C@@]3([H])C(=O)N2[H])c([H])c1[H]


 83 91  0  0  0  0  0  0  0  0999 V2000
   31.9076   14.4226  -10.7238 C   0  0  0  0  0  0  0  0  0  0  0  0
   32.1147   14.1401   -9.3513 N   0  0  0  0  0  0  0  0  0  0  0  0
   32.3958   14.8782   -8.2120 C   0  0  0  0  0  0  0  0  0  0  0  0
   31.4092   14.9979   -7.3548 O   0  0  0  0  0  0  0  0  0  0  0  0
   33.6187   15.5788   -7.7435 C   0  0  0  0  0  0  0  0  0  0  0  0
   34.8483   14.8716   -7.9659 N   0  0  0  0  0  0  0  0  0  0  0  0
   35.9491   14.6023   -7.1550 C   0  0  0  0  0  0  0  0  0  0  0  0
   36.2590   13.3733   -6.8961 O   0  0  0  0  0  0  0  0  0  0  0  0
   36.8842   15.5998   -6.5021 C   0  0  0  0  0  0  0  0  0  0  0  0
   38.0841   14.9061   -6.0736 N   0  0  0  0  0  0  0  0  0  0  0  0
   39.3637   14.8981   -6.6066 C   0  0  0  0  0  0  0  0  0  0  0  0
   40.3325   15.3589   -5.9487 O   0  0  0  0  0  0  0  0  0  0  0  0
   39.7861   14.3701   -7.9647 C   0  0  0  0  0  0  0  0  0  0  0  0
   40.4574   15.4512   -8.6290 N   0  0  0  0  0  0  0  0  0  0  0  0
   40.0232   16.1023   -9.8134 C   0  0  0  0  0  0  0  0  0  0  0  0
   39.9135   17.3700   -9.7663 O   0  0  0  0  0  0  0  0  0  0  0  0
   39.6900   15.4272  -11.0870 C   0  0  0  0  0  0  0  0  0  0  0  0
   38.4310   15.8966  -11.6201 N   0  0  0  0  0  0  0  0  0  0  0  0
   37.7981   15.2888  -12.7434 C   0  0  0  0  0  0  0  0  0  0  0  0
   37.0573   16.0519  -13.4139 O   0  0  0  0  0  0  0  0  0  0  0  0
   37.9613   13.9268  -13.1267 C   0  0  0  0  0  0  0  0  0  0  0  0
   38.3562   13.7597  -14.6024 C   0  0  0  0  0  0  0  0  0  0  0  0
   38.4096   12.2551  -14.6650 C   0  0  0  0  0  0  0  0  0  0  0  0
   37.7333   11.7351  -13.4319 C   0  0  0  0  0  0  0  0  0  0  0  0
   36.9448   12.9357  -12.9880 N   0  0  0  0  0  0  0  0  0  0  0  0
   35.6181   13.0035  -12.5241 C   0  0  0  0  0  0  0  0  0  0  0  0
   35.3865   12.1466  -11.5371 O   0  0  0  0  0  0  0  0  0  0  0  0
   34.4317   13.7681  -12.8423 C   0  0  0  0  0  0  0  0  0  0  0  0
   34.1487   14.8781  -11.9145 N   0  0  0  0  0  0  0  0  0  0  0  0
   32.8733   15.2429  -11.4517 C   0  0  0  0  0  0  0  0  0  0  0  0
   32.4971   16.4582  -11.6976 O   0  0  0  0  0  0  0  0  0  0  0  0
   32.0012   13.0658   -9.1294 H   0  0  0  0  0  0  0  0  0  0  0  0
   34.9066   14.4557   -8.9583 H   0  0  0  0  0  0  0  0  0  0  0  0
   37.9137   14.2849   -5.2026 H   0  0  0  0  0  0  0  0  0  0  0  0
   41.3546   15.7914   -8.1796 H   0  0  0  0  0  0  0  0  0  0  0  0
   38.0063   16.7327  -11.1186 H   0  0  0  0  0  0  0  0  0  0  0  0
   34.9471   15.4771  -11.5422 H   0  0  0  0  0  0  0  0  0  0  0  0
   29.5881   14.1962   -9.9483 C   0  0  0  0  0  0  0  0  0  0  0  0
   30.4593   14.8586  -11.0262 C   0  0  0  0  0  0  0  0  0  0  0  0
   30.0687   14.2455  -12.3331 C   0  0  0  0  0  0  0  0  0  0  0  0
   33.6380   17.0368   -8.1466 C   0  0  0  0  0  0  0  0  0  0  0  0
   33.3425   17.9223   -6.9585 C   0  0  0  0  0  0  0  0  0  0  0  0
   32.9150   17.3244   -5.7873 C   0  0  0  0  0  0  0  0  0  0  0  0
   32.6440   18.1127   -4.6870 C   0  0  0  0  0  0  0  0  0  0  0  0
   32.7804   19.4895   -4.6996 C   0  0  0  0  0  0  0  0  0  0  0  0
   33.2099   20.0344   -5.8963 C   0  0  0  0  0  0  0  0  0  0  0  0
   33.4888   19.2751   -7.0123 C   0  0  0  0  0  0  0  0  0  0  0  0
   36.2229   16.2867   -5.3326 C   0  0  0  0  0  0  0  0  0  0  0  0
   36.5067   17.7359   -5.3611 C   0  0  0  0  0  0  0  0  0  0  0  0
   36.3981   18.5474   -4.2348 C   0  0  0  0  0  0  0  0  0  0  0  0
   36.6600   19.7939   -4.5723 N   0  0  0  0  0  0  0  0  0  0  0  0
   36.9423   19.8607   -5.8760 C   0  0  0  0  0  0  0  0  0  0  0  0
   37.2996   20.9163   -6.7162 C   0  0  0  0  0  0  0  0  0  0  0  0
   37.5671   20.7093   -8.0482 C   0  0  0  0  0  0  0  0  0  0  0  0
   37.4794   19.4232   -8.5636 C   0  0  0  0  0  0  0  0  0  0  0  0
   37.1248   18.3982   -7.7132 C   0  0  0  0  0  0  0  0  0  0  0  0
   36.8481   18.5732   -6.3725 C   0  0  0  0  0  0  0  0  0  0  0  0
   36.6689   20.6722   -3.9727 H   0  0  0  0  0  0  0  0  0  0  0  0
   40.6737   13.2224   -7.6318 C   0  0  0  0  0  0  0  0  0  0  0  0
   42.0011   13.4822   -7.1382 C   0  0  0  0  0  0  0  0  0  0  0  0
   42.8790   14.4506   -7.6327 C   0  0  0  0  0  0  0  0  0  0  0  0
   44.0093   14.4411   -6.9200 N   0  0  0  0  0  0  0  0  0  0  0  0
   43.8999   13.4898   -5.9663 C   0  0  0  0  0  0  0  0  0  0  0  0
   44.8288   13.1230   -5.0120 C   0  0  0  0  0  0  0  0  0  0  0  0
   44.5267   12.1040   -4.1287 C   0  0  0  0  0  0  0  0  0  0  0  0
   43.2984   11.4857   -4.2335 C   0  0  0  0  0  0  0  0  0  0  0  0
   42.3778   11.8727   -5.2026 C   0  0  0  0  0  0  0  0  0  0  0  0
   42.6598   12.8890   -6.0925 C   0  0  0  0  0  0  0  0  0  0  0  0
   44.8306   15.0814   -7.0982 H   0  0  0  0  0  0  0  0  0  0  0  0
   40.8277   15.6110  -12.0564 C   0  0  0  0  0  0  0  0  0  0  0  0
   42.1738   15.3849  -11.5422 C   0  0  0  0  0  0  0  0  0  0  0  0
   42.7319   14.0975  -11.4670 C   0  0  0  0  0  0  0  0  0  0  0  0
   43.9732   13.8289  -10.9939 C   0  0  0  0  0  0  0  0  0  0  0  0
   44.7658   14.8539  -10.5504 C   0  0  0  0  0  0  0  0  0  0  0  0
   44.2803   16.1251  -10.5976 C   0  0  0  0  0  0  0  0  0  0  0  0
   42.9990   16.3913  -11.0879 C   0  0  0  0  0  0  0  0  0  0  0  0
   34.0933   14.1021  -14.2479 C   0  0  0  0  0  0  0  0  0  0  0  0
   34.2673   13.0602  -15.2531 C   0  0  0  0  0  0  0  0  0  0  0  0
   35.3878   13.0442  -16.0827 C   0  0  0  0  0  0  0  0  0  0  0  0
   35.6044   12.0421  -17.0223 C   0  0  0  0  0  0  0  0  0  0  0  0
   34.6808   11.0283  -17.1396 C   0  0  0  0  0  0  0  0  0  0  0  0
   33.5782   11.0174  -16.3435 C   0  0  0  0  0  0  0  0  0  0  0  0
   33.3852   12.0327  -15.4112 C   0  0  0  0  0  0  0  0  0  0  0  0
 38 39  1  0  0  0
 39 40  1  0  0  0
 39  1  1  0  0  0
  1  2  1  0  0  0
  2  3  1  0  0  0
  3  4  2  0  0  0
  3  5  1  0  0  0
  5 41  1  0  0  0
 41 42  1  0  0  0
 42 43  2  0  0  0
 43 44  1  0  0  0
 44 45  2  0  0  0
 45 46  1  0  0  0
 46 47  2  0  0  0
  5  6  1  0  0  0
  6  7  1  0  0  0
  7  8  2  0  0  0
  7  9  1  0  0  0
  9 48  1  0  0  0
 48 49  1  0  0  0
 49 50  2  0  0  0
 50 51  1  0  0  0
 51 52  1  0  0  0
 52 53  2  0  0  0
 53 54  1  0  0  0
 54 55  2  0  0  0
 55 56  1  0  0  0
 56 57  2  0  0  0
  9 10  1  0  0  0
 10 11  1  0  0  0
 11 12  2  0  0  0
 11 13  1  0  0  0
 13 59  1  0  0  0
 59 60  1  0  0  0
 60 61  2  0  0  0
 61 62  1  0  0  0
 62 63  1  0  0  0
 63 64  2  0  0  0
 64 65  1  0  0  0
 65 66  2  0  0  0
 66 67  1  0  0  0
 67 68  2  0  0  0
 13 14  1  0  0  0
 14 15  1  0  0  0
 15 16  2  0  0  0
 15 17  1  0  0  0
 17 70  1  0  0  0
 70 71  1  0  0  0
 71 72  2  0  0  0
 72 73  1  0  0  0
 73 74  2  0  0  0
 74 75  1  0  0  0
 75 76  2  0  0  0
 17 18  1  0  0  0
 18 19  1  0  0  0
 19 20  2  0  0  0
 19 21  1  0  0  0
 21 22  1  0  0  0
 22 23  1  0  0  0
 23 24  1  0  0  0
 24 25  1  0  0  0
 25 26  1  0  0  0
 26 27  2  0  0  0
 26 28  1  0  0  0
 28 77  1  0  0  0
 77 78  1  0  0  0
 78 79  2  0  0  0
 79 80  1  0  0  0
 80 81  2  0  0  0
 81 82  1  0  0  0
 82 83  2  0  0  0
 28 29  1  0  0  0
 29 30  1  0  0  0
 30 31  2  0  0  0
 30  1  1  0  0  0
 47 42  1  0  0  0
 57 49  1  0  0  0
 68 60  1  0  0  0
 76 71  1  0  0  0
 25 21  1  0  0  0
 83 78  1  0  0  0
 57 52  1  0  0  0
 68 63  1  0  0  0
  2 32  1  0  0  0
  6 33  1  0  0  0
 51 58  1  0  0  0
 10 34  1  0  0  0
 62 69  1  0  0  0
 14 35  1  0  0  0
 18 36  1  0  0  0
 29 37  1  0  0  0
M  END
> <minimizedAffinity>
-6.63437

> <CNNscore>
0.2979942560

> <CNNaffinity>
8.3593149185

> <CNN_VS>
2.4910278320

> <CNNaffinity_variance>
0.7160024047

$$$$
[H]c1c([H])c([H])c(C([H])([H])[C@@]2([H])C(=O)N([H])[C@@]([H])(C([H])([H])c3c([H])n([H])c4c([H])c([H])c([H])c([H])c34)C(=O)N([H])[C@]([H])(C([H])([H])c3c([H])n([H])c4c([H])c([H])c([H])c([H])c34)C(=O)N([H])[C@@]([H])(C([H])([H])c3c([H])c([H])c([H])c([H])c3[H])C(=O)N([H])[C@@]([H])(C([H])(C([H])([H])[H])C([H])([H])[H])C(=O)N([H])[C@@]([H])(C([H])([H])c3c([H])c([H])c([H])c([H])c3[H])C(=O)N3C([H])([H])C([H])([H])C([H])([H])[C@@]3([H])C(=O)N2[H])c([H])c1[H]


 83 91  0  0  0  0  0  0  0  0999 V2000
   38.2109   13.9725  -13.1427 C   0  0  0  0  0  0  0  0  0  0  0  0
   37.9039   13.7972  -11.7710 N   0  0  0  0  0  0  0  0  0  0  0  0
   37.5714   14.6243  -10.7094 C   0  0  0  0  0  0  0  0  0  0  0  0
   36.3219   14.5650  -10.3126 O   0  0  0  0  0  0  0  0  0  0  0  0
   38.3595   15.5890   -9.9005 C   0  0  0  0  0  0  0  0  0  0  0  0
   39.6822   15.1530   -9.5514 N   0  0  0  0  0  0  0  0  0  0  0  0
   40.3999   15.1588   -8.3570 C   0  0  0  0  0  0  0  0  0  0  0  0
   40.7983   14.0363   -7.8523 O   0  0  0  0  0  0  0  0  0  0  0  0
   40.8022   16.3593   -7.5245 C   0  0  0  0  0  0  0  0  0  0  0  0
   41.8375   15.9566   -6.5915 N   0  0  0  0  0  0  0  0  0  0  0  0
   43.2019   16.2008   -6.5934 C   0  0  0  0  0  0  0  0  0  0  0  0
   43.7295   16.8849   -5.6782 O   0  0  0  0  0  0  0  0  0  0  0  0
   44.2163   15.7205   -7.6140 C   0  0  0  0  0  0  0  0  0  0  0  0
   44.8885   16.8922   -8.0999 N   0  0  0  0  0  0  0  0  0  0  0  0
   44.8499   17.3862   -9.4302 C   0  0  0  0  0  0  0  0  0  0  0  0
   44.5033   18.6019   -9.5829 O   0  0  0  0  0  0  0  0  0  0  0  0
   45.1773   16.6040  -10.6425 C   0  0  0  0  0  0  0  0  0  0  0  0
   44.1709   16.7708  -11.6667 N   0  0  0  0  0  0  0  0  0  0  0  0
   44.1568   15.9963  -12.8631 C   0  0  0  0  0  0  0  0  0  0  0  0
   43.6181   16.5550  -13.8522 O   0  0  0  0  0  0  0  0  0  0  0  0
   44.7019   14.6862  -12.9869 C   0  0  0  0  0  0  0  0  0  0  0  0
   45.6729   14.5474  -14.1699 C   0  0  0  0  0  0  0  0  0  0  0  0
   46.0179   13.0878  -14.0239 C   0  0  0  0  0  0  0  0  0  0  0  0
   45.0140   12.4859  -13.0866 C   0  0  0  0  0  0  0  0  0  0  0  0
   43.9113   13.5070  -13.1251 N   0  0  0  0  0  0  0  0  0  0  0  0
   42.5210   13.3082  -13.2118 C   0  0  0  0  0  0  0  0  0  0  0  0
   42.0759   12.4627  -12.2903 O   0  0  0  0  0  0  0  0  0  0  0  0
   41.4412   13.7874  -14.0472 C   0  0  0  0  0  0  0  0  0  0  0  0
   40.6178   14.8481  -13.4390 N   0  0  0  0  0  0  0  0  0  0  0  0
   39.2205   14.9500  -13.5434 C   0  0  0  0  0  0  0  0  0  0  0  0
   38.7598   16.0455  -14.0596 O   0  0  0  0  0  0  0  0  0  0  0  0
   37.9079   12.7335  -11.4800 H   0  0  0  0  0  0  0  0  0  0  0  0
   40.2036   14.7189  -10.3888 H   0  0  0  0  0  0  0  0  0  0  0  0
   41.4509   15.3495   -5.7818 H   0  0  0  0  0  0  0  0  0  0  0  0
   45.4562   17.4346   -7.3884 H   0  0  0  0  0  0  0  0  0  0  0  0
   43.4385   17.5164  -11.4698 H   0  0  0  0  0  0  0  0  0  0  0  0
   41.0804   15.6189  -12.8672 H   0  0  0  0  0  0  0  0  0  0  0  0
   35.7614   13.8014  -13.0879 C   0  0  0  0  0  0  0  0  0  0  0  0
   36.9486   14.0757  -14.0231 C   0  0  0  0  0  0  0  0  0  0  0  0
   36.9925   12.9493  -15.0058 C   0  0  0  0  0  0  0  0  0  0  0  0
   38.2733   16.9996  -10.4403 C   0  0  0  0  0  0  0  0  0  0  0  0
   37.5855   17.9087   -9.4485 C   0  0  0  0  0  0  0  0  0  0  0  0
   38.1287   19.1599   -9.2221 C   0  0  0  0  0  0  0  0  0  0  0  0
   37.5147   20.0099   -8.3243 C   0  0  0  0  0  0  0  0  0  0  0  0
   36.3679   19.6658   -7.6307 C   0  0  0  0  0  0  0  0  0  0  0  0
   35.8685   18.4032   -7.8949 C   0  0  0  0  0  0  0  0  0  0  0  0
   36.4577   17.5315   -8.7852 C   0  0  0  0  0  0  0  0  0  0  0  0
   39.6189   16.9359   -6.7868 C   0  0  0  0  0  0  0  0  0  0  0  0
   39.0555   15.9350   -5.8583 C   0  0  0  0  0  0  0  0  0  0  0  0
   39.6914   15.5604   -4.6776 C   0  0  0  0  0  0  0  0  0  0  0  0
   38.9853   14.6186   -4.0854 N   0  0  0  0  0  0  0  0  0  0  0  0
   37.8997   14.3413   -4.8123 C   0  0  0  0  0  0  0  0  0  0  0  0
   36.8359   13.4567   -4.6289 C   0  0  0  0  0  0  0  0  0  0  0  0
   35.8070   13.3797   -5.5367 C   0  0  0  0  0  0  0  0  0  0  0  0
   35.8301   14.2003   -6.6563 C   0  0  0  0  0  0  0  0  0  0  0  0
   36.8916   15.0652   -6.8142 C   0  0  0  0  0  0  0  0  0  0  0  0
   37.9404   15.1650   -5.9228 C   0  0  0  0  0  0  0  0  0  0  0  0
   39.1707   14.1023   -3.1744 H   0  0  0  0  0  0  0  0  0  0  0  0
   45.0905   14.8040   -6.8320 C   0  0  0  0  0  0  0  0  0  0  0  0
   45.7960   13.7525   -7.5175 C   0  0  0  0  0  0  0  0  0  0  0  0
   45.5877   13.3612   -8.8427 C   0  0  0  0  0  0  0  0  0  0  0  0
   46.4374   12.3808   -9.1628 N   0  0  0  0  0  0  0  0  0  0  0  0
   47.2027   12.1147   -8.0810 C   0  0  0  0  0  0  0  0  0  0  0  0
   48.2040   11.1720   -7.9514 C   0  0  0  0  0  0  0  0  0  0  0  0
   48.8631   11.0453   -6.7433 C   0  0  0  0  0  0  0  0  0  0  0  0
   48.4937   11.8720   -5.7031 C   0  0  0  0  0  0  0  0  0  0  0  0
   47.4823   12.8152   -5.8571 C   0  0  0  0  0  0  0  0  0  0  0  0
   46.8135   12.9584   -7.0557 C   0  0  0  0  0  0  0  0  0  0  0  0
   46.4780   11.9139  -10.1097 H   0  0  0  0  0  0  0  0  0  0  0  0
   46.5525   16.9873  -11.1218 C   0  0  0  0  0  0  0  0  0  0  0  0
   47.5087   17.4132  -10.1060 C   0  0  0  0  0  0  0  0  0  0  0  0
   47.9564   18.7425  -10.0206 C   0  0  0  0  0  0  0  0  0  0  0  0
   48.8462   19.1919   -9.1023 C   0  0  0  0  0  0  0  0  0  0  0  0
   49.3657   18.3228   -8.1802 C   0  0  0  0  0  0  0  0  0  0  0  0
   48.9704   17.0203   -8.2121 C   0  0  0  0  0  0  0  0  0  0  0  0
   48.0518   16.5672   -9.1629 C   0  0  0  0  0  0  0  0  0  0  0  0
   41.6340   13.9835  -15.5054 C   0  0  0  0  0  0  0  0  0  0  0  0
   40.9767   13.0460  -16.4083 C   0  0  0  0  0  0  0  0  0  0  0  0
   41.4461   12.8524  -17.7067 C   0  0  0  0  0  0  0  0  0  0  0  0
   40.8682   11.9359  -18.5786 C   0  0  0  0  0  0  0  0  0  0  0  0
   39.7938   11.1918  -18.1464 C   0  0  0  0  0  0  0  0  0  0  0  0
   39.3143   11.3590  -16.8847 C   0  0  0  0  0  0  0  0  0  0  0  0
   39.9111   12.2832  -16.0322 C   0  0  0  0  0  0  0  0  0  0  0  0
 38 39  1  0  0  0
 39 40  1  0  0  0
 39  1  1  0  0  0
  1  2  1  0  0  0
  2  3  1  0  0  0
  3  4  2  0  0  0
  3  5  1  0  0  0
  5 41  1  0  0  0
 41 42  1  0  0  0
 42 43  2  0  0  0
 43 44  1  0  0  0
 44 45  2  0  0  0
 45 46  1  0  0  0
 46 47  2  0  0  0
  5  6  1  0  0  0
  6  7  1  0  0  0
  7  8  2  0  0  0
  7  9  1  0  0  0
  9 48  1  0  0  0
 48 49  1  0  0  0
 49 50  2  0  0  0
 50 51  1  0  0  0
 51 52  1  0  0  0
 52 53  2  0  0  0
 53 54  1  0  0  0
 54 55  2  0  0  0
 55 56  1  0  0  0
 56 57  2  0  0  0
  9 10  1  0  0  0
 10 11  1  0  0  0
 11 12  2  0  0  0
 11 13  1  0  0  0
 13 59  1  0  0  0
 59 60  1  0  0  0
 60 61  2  0  0  0
 61 62  1  0  0  0
 62 63  1  0  0  0
 63 64  2  0  0  0
 64 65  1  0  0  0
 65 66  2  0  0  0
 66 67  1  0  0  0
 67 68  2  0  0  0
 13 14  1  0  0  0
 14 15  1  0  0  0
 15 16  2  0  0  0
 15 17  1  0  0  0
 17 70  1  0  0  0
 70 71  1  0  0  0
 71 72  2  0  0  0
 72 73  1  0  0  0
 73 74  2  0  0  0
 74 75  1  0  0  0
 75 76  2  0  0  0
 17 18  1  0  0  0
 18 19  1  0  0  0
 19 20  2  0  0  0
 19 21  1  0  0  0
 21 22  1  0  0  0
 22 23  1  0  0  0
 23 24  1  0  0  0
 24 25  1  0  0  0
 25 26  1  0  0  0
 26 27  2  0  0  0
 26 28  1  0  0  0
 28 77  1  0  0  0
 77 78  1  0  0  0
 78 79  2  0  0  0
 79 80  1  0  0  0
 80 81  2  0  0  0
 81 82  1  0  0  0
 82 83  2  0  0  0
 28 29  1  0  0  0
 29 30  1  0  0  0
 30 31  2  0  0  0
 30  1  1  0  0  0
 47 42  1  0  0  0
 57 49  1  0  0  0
 68 60  1  0  0  0
 76 71  1  0  0  0
 25 21  1  0  0  0
 83 78  1  0  0  0
 57 52  1  0  0  0
 68 63  1  0  0  0
  2 32  1  0  0  0
  6 33  1  0  0  0
 51 58  1  0  0  0
 10 34  1  0  0  0
 62 69  1  0  0  0
 14 35  1  0  0  0
 18 36  1  0  0  0
 29 37  1  0  0  0
M  END
> <minimizedAffinity>
-4.45320

> <CNNscore>
0.2790102661

> <CNNaffinity>
7.8570137024

> <CNN_VS>
2.1921875477

> <CNNaffinity_variance>
1.1485030651

$$$$
[H]c1c([H])c([H])c(C([H])([H])[C@@]2([H])C(=O)N([H])[C@@]([H])(C([H])([H])c3c([H])n([H])c4c([H])c([H])c([H])c([H])c34)C(=O)N([H])[C@]([H])(C([H])([H])c3c([H])n([H])c4c([H])c([H])c([H])c([H])c34)C(=O)N([H])[C@@]([H])(C([H])([H])c3c([H])c([H])c([H])c([H])c3[H])C(=O)N([H])[C@@]([H])(C([H])(C([H])([H])[H])C([H])([H])[H])C(=O)N([H])[C@@]([H])(C([H])([H])c3c([H])c([H])c([H])c([H])c3[H])C(=O)N3C([H])([H])C([H])([H])C([H])([H])[C@@]3([H])C(=O)N2[H])c([H])c1[H]


 83 91  0  0  0  0  0  0  0  0999 V2000
   34.4217   15.3053  -10.5407 C   0  0  0  0  0  0  0  0  0  0  0  0
   34.9475   15.1555   -9.2340 N   0  0  0  0  0  0  0  0  0  0  0  0
   35.6205   15.9634   -8.3306 C   0  0  0  0  0  0  0  0  0  0  0  0
   34.9246   16.3522   -7.2880 O   0  0  0  0  0  0  0  0  0  0  0  0
   37.0077   16.4927   -8.2936 C   0  0  0  0  0  0  0  0  0  0  0  0
   38.0250   15.5626   -8.6954 N   0  0  0  0  0  0  0  0  0  0  0  0
   39.2551   15.2049   -8.1469 C   0  0  0  0  0  0  0  0  0  0  0  0
   39.4526   13.9802   -7.7800 O   0  0  0  0  0  0  0  0  0  0  0  0
   40.4575   16.0961   -7.9102 C   0  0  0  0  0  0  0  0  0  0  0  0
   41.6221   15.2611   -7.6843 N   0  0  0  0  0  0  0  0  0  0  0  0
   42.6993   14.9693   -8.5065 C   0  0  0  0  0  0  0  0  0  0  0  0
   43.8620   15.3304   -8.1880 O   0  0  0  0  0  0  0  0  0  0  0  0
   42.6676   14.2196   -9.8249 C   0  0  0  0  0  0  0  0  0  0  0  0
   43.2778   15.0823  -10.7967 N   0  0  0  0  0  0  0  0  0  0  0  0
   42.6357   15.6540  -11.9264 C   0  0  0  0  0  0  0  0  0  0  0  0
   42.7164   16.9181  -12.0559 O   0  0  0  0  0  0  0  0  0  0  0  0
   41.8858   14.9008  -12.9555 C   0  0  0  0  0  0  0  0  0  0  0  0
   40.6062   15.5142  -13.2313 N   0  0  0  0  0  0  0  0  0  0  0  0
   39.6196   14.8964  -14.0538 C   0  0  0  0  0  0  0  0  0  0  0  0
   38.8376   15.6913  -14.6348 O   0  0  0  0  0  0  0  0  0  0  0  0
   39.4874   13.4911  -14.2440 C   0  0  0  0  0  0  0  0  0  0  0  0
   39.4471   13.0850  -15.7256 C   0  0  0  0  0  0  0  0  0  0  0  0
   39.2764   11.5972  -15.5596 C   0  0  0  0  0  0  0  0  0  0  0  0
   38.8898   11.3512  -14.1318 C   0  0  0  0  0  0  0  0  0  0  0  0
   38.4198   12.7138  -13.7047 N   0  0  0  0  0  0  0  0  0  0  0  0
   37.2873   13.0641  -12.9467 C   0  0  0  0  0  0  0  0  0  0  0  0
   37.2133   12.3828  -11.8097 O   0  0  0  0  0  0  0  0  0  0  0  0
   36.1745   13.9790  -13.0816 C   0  0  0  0  0  0  0  0  0  0  0  0
   36.3036   15.2230  -12.3013 N   0  0  0  0  0  0  0  0  0  0  0  0
   35.2602   15.8546  -11.6040 C   0  0  0  0  0  0  0  0  0  0  0  0
   35.0012   17.0789  -11.9400 O   0  0  0  0  0  0  0  0  0  0  0  0
   34.7521   14.1508   -8.8233 H   0  0  0  0  0  0  0  0  0  0  0  0
   37.7589   15.0285   -9.5927 H   0  0  0  0  0  0  0  0  0  0  0  0
   41.6077   14.7861   -6.7109 H   0  0  0  0  0  0  0  0  0  0  0  0
   44.3001   15.3132  -10.6408 H   0  0  0  0  0  0  0  0  0  0  0  0
   40.4488   16.4644  -12.7804 H   0  0  0  0  0  0  0  0  0  0  0  0
   37.2463   15.7149  -12.2361 H   0  0  0  0  0  0  0  0  0  0  0  0
   32.3862   15.5781   -9.1937 C   0  0  0  0  0  0  0  0  0  0  0  0
   33.0186   15.9460  -10.5442 C   0  0  0  0  0  0  0  0  0  0  0  0
   32.2127   15.2580  -11.5994 C   0  0  0  0  0  0  0  0  0  0  0  0
   37.1170   17.8674   -8.9156 C   0  0  0  0  0  0  0  0  0  0  0  0
   37.0151   18.9410   -7.8571 C   0  0  0  0  0  0  0  0  0  0  0  0
   36.7144   20.2294   -8.2590 C   0  0  0  0  0  0  0  0  0  0  0  0
   36.6108   21.2257   -7.3092 C   0  0  0  0  0  0  0  0  0  0  0  0
   36.7963   20.9949   -5.9576 C   0  0  0  0  0  0  0  0  0  0  0  0
   37.0956   19.6893   -5.6121 C   0  0  0  0  0  0  0  0  0  0  0  0
   37.2058   18.6723   -6.5358 C   0  0  0  0  0  0  0  0  0  0  0  0
   40.2325   17.0202   -6.7388 C   0  0  0  0  0  0  0  0  0  0  0  0
   41.2162   16.7453   -5.6719 C   0  0  0  0  0  0  0  0  0  0  0  0
   40.9661   15.8611   -4.6258 C   0  0  0  0  0  0  0  0  0  0  0  0
   41.9967   15.8588   -3.8048 N   0  0  0  0  0  0  0  0  0  0  0  0
   42.9328   16.7009   -4.2503 C   0  0  0  0  0  0  0  0  0  0  0  0
   44.1980   17.0500   -3.7755 C   0  0  0  0  0  0  0  0  0  0  0  0
   44.9913   17.9465   -4.4504 C   0  0  0  0  0  0  0  0  0  0  0  0
   44.5211   18.5130   -5.6274 C   0  0  0  0  0  0  0  0  0  0  0  0
   43.2686   18.1517   -6.0751 C   0  0  0  0  0  0  0  0  0  0  0  0
   42.4473   17.2568   -5.4200 C   0  0  0  0  0  0  0  0  0  0  0  0
   42.1486   15.3093   -2.9071 H   0  0  0  0  0  0  0  0  0  0  0  0
   43.4470   12.9834   -9.5418 C   0  0  0  0  0  0  0  0  0  0  0  0
   43.3053   12.3428   -8.2601 C   0  0  0  0  0  0  0  0  0  0  0  0
   42.0970   11.9712   -7.6642 C   0  0  0  0  0  0  0  0  0  0  0  0
   42.3364   11.3709   -6.4947 N   0  0  0  0  0  0  0  0  0  0  0  0
   43.6738   11.3365   -6.3029 C   0  0  0  0  0  0  0  0  0  0  0  0
   44.3719   10.8206   -5.2284 C   0  0  0  0  0  0  0  0  0  0  0  0
   45.7516   10.8989   -5.2160 C   0  0  0  0  0  0  0  0  0  0  0  0
   46.3858   11.4942   -6.2863 C   0  0  0  0  0  0  0  0  0  0  0  0
   45.6617   12.0064   -7.3585 C   0  0  0  0  0  0  0  0  0  0  0  0
   44.2839   11.9364   -7.3904 C   0  0  0  0  0  0  0  0  0  0  0  0
   41.5849   10.9982   -5.8522 H   0  0  0  0  0  0  0  0  0  0  0  0
   42.7372   14.7695  -14.1907 C   0  0  0  0  0  0  0  0  0  0  0  0
   44.1213   14.3532  -13.9950 C   0  0  0  0  0  0  0  0  0  0  0  0
   44.4481   13.1235  -13.3985 C   0  0  0  0  0  0  0  0  0  0  0  0
   45.7143   12.6889  -13.1872 C   0  0  0  0  0  0  0  0  0  0  0  0
   46.7717   13.4722  -13.5666 C   0  0  0  0  0  0  0  0  0  0  0  0
   46.5191   14.6761  -14.1502 C   0  0  0  0  0  0  0  0  0  0  0  0
   45.2095   15.1147  -14.3640 C   0  0  0  0  0  0  0  0  0  0  0  0
   35.5217   14.1979  -14.3961 C   0  0  0  0  0  0  0  0  0  0  0  0
   35.1009   13.0218  -15.1483 C   0  0  0  0  0  0  0  0  0  0  0  0
   35.8842   12.5154  -16.1845 C   0  0  0  0  0  0  0  0  0  0  0  0
   35.5324   11.3719  -16.8935 C   0  0  0  0  0  0  0  0  0  0  0  0
   34.3693   10.7144  -16.5622 C   0  0  0  0  0  0  0  0  0  0  0  0
   33.5852   11.1851  -15.5556 C   0  0  0  0  0  0  0  0  0  0  0  0
   33.9603   12.3320  -14.8619 C   0  0  0  0  0  0  0  0  0  0  0  0
 38 39  1  0  0  0
 39 40  1  0  0  0
 39  1  1  0  0  0
  1  2  1  0  0  0
  2  3  1  0  0  0
  3  4  2  0  0  0
  3  5  1  0  0  0
  5 41  1  0  0  0
 41 42  1  0  0  0
 42 43  2  0  0  0
 43 44  1  0  0  0
 44 45  2  0  0  0
 45 46  1  0  0  0
 46 47  2  0  0  0
  5  6  1  0  0  0
  6  7  1  0  0  0
  7  8  2  0  0  0
  7  9  1  0  0  0
  9 48  1  0  0  0
 48 49  1  0  0  0
 49 50  2  0  0  0
 50 51  1  0  0  0
 51 52  1  0  0  0
 52 53  2  0  0  0
 53 54  1  0  0  0
 54 55  2  0  0  0
 55 56  1  0  0  0
 56 57  2  0  0  0
  9 10  1  0  0  0
 10 11  1  0  0  0
 11 12  2  0  0  0
 11 13  1  0  0  0
 13 59  1  0  0  0
 59 60  1  0  0  0
 60 61  2  0  0  0
 61 62  1  0  0  0
 62 63  1  0  0  0
 63 64  2  0  0  0
 64 65  1  0  0  0
 65 66  2  0  0  0
 66 67  1  0  0  0
 67 68  2  0  0  0
 13 14  1  0  0  0
 14 15  1  0  0  0
 15 16  2  0  0  0
 15 17  1  0  0  0
 17 70  1  0  0  0
 70 71  1  0  0  0
 71 72  2  0  0  0
 72 73  1  0  0  0
 73 74  2  0  0  0
 74 75  1  0  0  0
 75 76  2  0  0  0
 17 18  1  0  0  0
 18 19  1  0  0  0
 19 20  2  0  0  0
 19 21  1  0  0  0
 21 22  1  0  0  0
 22 23  1  0  0  0
 23 24  1  0  0  0
 24 25  1  0  0  0
 25 26  1  0  0  0
 26 27  2  0  0  0
 26 28  1  0  0  0
 28 77  1  0  0  0
 77 78  1  0  0  0
 78 79  2  0  0  0
 79 80  1  0  0  0
 80 81  2  0  0  0
 81 82  1  0  0  0
 82 83  2  0  0  0
 28 29  1  0  0  0
 29 30  1  0  0  0
 30 31  2  0  0  0
 30  1  1  0  0  0
 47 42  1  0  0  0
 57 49  1  0  0  0
 68 60  1  0  0  0
 76 71  1  0  0  0
 25 21  1  0  0  0
 83 78  1  0  0  0
 57 52  1  0  0  0
 68 63  1  0  0  0
  2 32  1  0  0  0
  6 33  1  0  0  0
 51 58  1  0  0  0
 10 34  1  0  0  0
 62 69  1  0  0  0
 14 35  1  0  0  0
 18 36  1  0  0  0
 29 37  1  0  0  0
M  END
> <minimizedAffinity>
-6.30982

> <CNNscore>
0.2779991031

> <CNNaffinity>
8.3551893234

> <CNN_VS>
2.3227350712

> <CNNaffinity_variance>
0.6863834262

$$$$
[H]c1c([H])c([H])c(C([H])([H])[C@@]2([H])C(=O)N([H])[C@@]([H])(C([H])([H])c3c([H])n([H])c4c([H])c([H])c([H])c([H])c34)C(=O)N([H])[C@]([H])(C([H])([H])c3c([H])n([H])c4c([H])c([H])c([H])c([H])c34)C(=O)N([H])[C@@]([H])(C([H])([H])c3c([H])c([H])c([H])c([H])c3[H])C(=O)N([H])[C@@]([H])(C([H])(C([H])([H])[H])C([H])([H])[H])C(=O)N([H])[C@@]([H])(C([H])([H])c3c([H])c([H])c([H])c([H])c3[H])C(=O)N3C([H])([H])C([H])([H])C([H])([H])[C@@]3([H])C(=O)N2[H])c([H])c1[H]


 83 91  0  0  0  0  0  0  0  0999 V2000
   38.0409   17.2572   -7.5085 C   0  0  0  0  0  0  0  0  0  0  0  0
   38.1941   17.7848   -8.8141 N   0  0  0  0  0  0  0  0  0  0  0  0
   37.9482   17.3419  -10.1045 C   0  0  0  0  0  0  0  0  0  0  0  0
   36.9320   17.9054  -10.7146 O   0  0  0  0  0  0  0  0  0  0  0  0
   38.6180   16.3357  -10.9675 C   0  0  0  0  0  0  0  0  0  0  0  0
   40.0527   16.3434  -10.9104 N   0  0  0  0  0  0  0  0  0  0  0  0
   41.0424   16.3154  -11.8909 C   0  0  0  0  0  0  0  0  0  0  0  0
   41.8721   17.3038  -11.9814 O   0  0  0  0  0  0  0  0  0  0  0  0
   41.2976   15.2311  -12.9181 C   0  0  0  0  0  0  0  0  0  0  0  0
   42.6229   15.4186  -13.4778 N   0  0  0  0  0  0  0  0  0  0  0  0
   43.8014   14.7203  -13.2661 C   0  0  0  0  0  0  0  0  0  0  0  0
   44.3434   14.0825  -14.2059 O   0  0  0  0  0  0  0  0  0  0  0  0
   44.5832   14.6159  -11.9702 C   0  0  0  0  0  0  0  0  0  0  0  0
   44.7252   13.2142  -11.6942 N   0  0  0  0  0  0  0  0  0  0  0  0
   44.1751   12.5216  -10.5838 C   0  0  0  0  0  0  0  0  0  0  0  0
   43.4646   11.4964  -10.8394 O   0  0  0  0  0  0  0  0  0  0  0  0
   44.3613   12.8965   -9.1649 C   0  0  0  0  0  0  0  0  0  0  0  0
   43.1050   12.8984   -8.4497 N   0  0  0  0  0  0  0  0  0  0  0  0
   42.9807   13.3878   -7.1168 C   0  0  0  0  0  0  0  0  0  0  0  0
   42.0496   12.8740   -6.4462 O   0  0  0  0  0  0  0  0  0  0  0  0
   43.8229   14.3783   -6.5353 C   0  0  0  0  0  0  0  0  0  0  0  0
   44.4212   13.9445   -5.1879 C   0  0  0  0  0  0  0  0  0  0  0  0
   45.1987   15.1930   -4.8603 C   0  0  0  0  0  0  0  0  0  0  0  0
   44.7151   16.2720   -5.7825 C   0  0  0  0  0  0  0  0  0  0  0  0
   43.4002   15.7096   -6.2459 N   0  0  0  0  0  0  0  0  0  0  0  0
   42.1601   16.3582   -6.3916 C   0  0  0  0  0  0  0  0  0  0  0  0
   42.2540   17.4641   -7.1200 O   0  0  0  0  0  0  0  0  0  0  0  0
   40.7994   16.1344   -5.9536 C   0  0  0  0  0  0  0  0  0  0  0  0
   39.9097   15.5614   -6.9798 N   0  0  0  0  0  0  0  0  0  0  0  0
   38.5715   15.9329   -7.1919 C   0  0  0  0  0  0  0  0  0  0  0  0
   37.6894   14.9888   -7.0959 O   0  0  0  0  0  0  0  0  0  0  0  0
   38.5858   18.8157   -8.7991 H   0  0  0  0  0  0  0  0  0  0  0  0
   40.4210   16.4023   -9.8993 H   0  0  0  0  0  0  0  0  0  0  0  0
   42.6703   16.2639  -14.1536 H   0  0  0  0  0  0  0  0  0  0  0  0
   45.2877   12.6539  -12.3959 H   0  0  0  0  0  0  0  0  0  0  0  0
   42.2745   12.5051   -8.9850 H   0  0  0  0  0  0  0  0  0  0  0  0
   40.2711   14.8014   -7.6331 H   0  0  0  0  0  0  0  0  0  0  0  0
   35.8504   18.2386   -8.0290 C   0  0  0  0  0  0  0  0  0  0  0  0
   36.6089   17.4336   -6.9631 C   0  0  0  0  0  0  0  0  0  0  0  0
   36.6942   18.3006   -5.7477 C   0  0  0  0  0  0  0  0  0  0  0  0
   37.9814   14.9677  -10.8589 C   0  0  0  0  0  0  0  0  0  0  0  0
   36.5259   15.0237  -11.2610 C   0  0  0  0  0  0  0  0  0  0  0  0
   36.2036   14.7895  -12.5851 C   0  0  0  0  0  0  0  0  0  0  0  0
   34.8800   14.8301  -12.9748 C   0  0  0  0  0  0  0  0  0  0  0  0
   33.8473   15.0978  -12.0938 C   0  0  0  0  0  0  0  0  0  0  0  0
   34.2265   15.3252  -10.7831 C   0  0  0  0  0  0  0  0  0  0  0  0
   35.5386   15.2916  -10.3623 C   0  0  0  0  0  0  0  0  0  0  0  0
   40.2542   15.2521  -14.0079 C   0  0  0  0  0  0  0  0  0  0  0  0
   40.3254   14.0143  -14.8106 C   0  0  0  0  0  0  0  0  0  0  0  0
   41.5224   13.5081  -15.3104 C   0  0  0  0  0  0  0  0  0  0  0  0
   41.2716   12.4309  -16.0266 N   0  0  0  0  0  0  0  0  0  0  0  0
   39.9587   12.1856  -16.0317 C   0  0  0  0  0  0  0  0  0  0  0  0
   39.1841   11.1787  -16.6097 C   0  0  0  0  0  0  0  0  0  0  0  0
   37.8210   11.1403  -16.4396 C   0  0  0  0  0  0  0  0  0  0  0  0
   37.2067   12.1242  -15.6767 C   0  0  0  0  0  0  0  0  0  0  0  0
   37.9938   13.1073  -15.1166 C   0  0  0  0  0  0  0  0  0  0  0  0
   39.3636   13.1751  -15.2701 C   0  0  0  0  0  0  0  0  0  0  0  0
   41.9412   11.7946  -16.5535 H   0  0  0  0  0  0  0  0  0  0  0  0
   45.8668   15.3025  -12.2812 C   0  0  0  0  0  0  0  0  0  0  0  0
   46.7573   14.7197  -13.2511 C   0  0  0  0  0  0  0  0  0  0  0  0
   47.0078   15.2206  -14.5315 C   0  0  0  0  0  0  0  0  0  0  0  0
   47.9106   14.4523  -15.1481 N   0  0  0  0  0  0  0  0  0  0  0  0
   48.2630   13.4555  -14.3061 C   0  0  0  0  0  0  0  0  0  0  0  0
   49.1564   12.4250  -14.5255 C   0  0  0  0  0  0  0  0  0  0  0  0
   49.3670   11.4877  -13.5320 C   0  0  0  0  0  0  0  0  0  0  0  0
   48.6716   11.6172  -12.3480 C   0  0  0  0  0  0  0  0  0  0  0  0
   47.7770   12.6643  -12.1492 C   0  0  0  0  0  0  0  0  0  0  0  0
   47.5542   13.6111  -13.1281 C   0  0  0  0  0  0  0  0  0  0  0  0
   48.2668   14.6223  -16.1281 H   0  0  0  0  0  0  0  0  0  0  0  0
   45.3761   11.9762   -8.5394 C   0  0  0  0  0  0  0  0  0  0  0  0
   46.7229   12.5065   -8.3593 C   0  0  0  0  0  0  0  0  0  0  0  0
   47.8632   11.7773   -8.7368 C   0  0  0  0  0  0  0  0  0  0  0  0
   49.1362   12.2178   -8.5879 C   0  0  0  0  0  0  0  0  0  0  0  0
   49.3667   13.4501   -8.0369 C   0  0  0  0  0  0  0  0  0  0  0  0
   48.3013   14.2048   -7.6505 C   0  0  0  0  0  0  0  0  0  0  0  0
   46.9924   13.7413   -7.8090 C   0  0  0  0  0  0  0  0  0  0  0  0
   40.5114   15.6109   -4.5954 C   0  0  0  0  0  0  0  0  0  0  0  0
   39.1134   15.4615   -4.2087 C   0  0  0  0  0  0  0  0  0  0  0  0
   38.4935   14.2128   -4.2287 C   0  0  0  0  0  0  0  0  0  0  0  0
   37.1749   14.0295   -3.8265 C   0  0  0  0  0  0  0  0  0  0  0  0
   36.4536   15.1186   -3.3925 C   0  0  0  0  0  0  0  0  0  0  0  0
   37.0322   16.3491   -3.3618 C   0  0  0  0  0  0  0  0  0  0  0  0
   38.3535   16.5051   -3.7701 C   0  0  0  0  0  0  0  0  0  0  0  0
 38 39  1  0  0  0
 39 40  1  0  0  0
 39  1  1  0  0  0
  1  2  1  0  0  0
  2  3  1  0  0  0
  3  4  2  0  0  0
  3  5  1  0  0  0
  5 41  1  0  0  0
 41 42  1  0  0  0
 42 43  2  0  0  0
 43 44  1  0  0  0
 44 45  2  0  0  0
 45 46  1  0  0  0
 46 47  2  0  0  0
  5  6  1  0  0  0
  6  7  1  0  0  0
  7  8  2  0  0  0
  7  9  1  0  0  0
  9 48  1  0  0  0
 48 49  1  0  0  0
 49 50  2  0  0  0
 50 51  1  0  0  0
 51 52  1  0  0  0
 52 53  2  0  0  0
 53 54  1  0  0  0
 54 55  2  0  0  0
 55 56  1  0  0  0
 56 57  2  0  0  0
  9 10  1  0  0  0
 10 11  1  0  0  0
 11 12  2  0  0  0
 11 13  1  0  0  0
 13 59  1  0  0  0
 59 60  1  0  0  0
 60 61  2  0  0  0
 61 62  1  0  0  0
 62 63  1  0  0  0
 63 64  2  0  0  0
 64 65  1  0  0  0
 65 66  2  0  0  0
 66 67  1  0  0  0
 67 68  2  0  0  0
 13 14  1  0  0  0
 14 15  1  0  0  0
 15 16  2  0  0  0
 15 17  1  0  0  0
 17 70  1  0  0  0
 70 71  1  0  0  0
 71 72  2  0  0  0
 72 73  1  0  0  0
 73 74  2  0  0  0
 74 75  1  0  0  0
 75 76  2  0  0  0
 17 18  1  0  0  0
 18 19  1  0  0  0
 19 20  2  0  0  0
 19 21  1  0  0  0
 21 22  1  0  0  0
 22 23  1  0  0  0
 23 24  1  0  0  0
 24 25  1  0  0  0
 25 26  1  0  0  0
 26 27  2  0  0  0
 26 28  1  0  0  0
 28 77  1  0  0  0
 77 78  1  0  0  0
 78 79  2  0  0  0
 79 80  1  0  0  0
 80 81  2  0  0  0
 81 82  1  0  0  0
 82 83  2  0  0  0
 28 29  1  0  0  0
 29 30  1  0  0  0
 30 31  2  0  0  0
 30  1  1  0  0  0
 47 42  1  0  0  0
 57 49  1  0  0  0
 68 60  1  0  0  0
 76 71  1  0  0  0
 25 21  1  0  0  0
 83 78  1  0  0  0
 57 52  1  0  0  0
 68 63  1  0  0  0
  2 32  1  0  0  0
  6 33  1  0  0  0
 51 58  1  0  0  0
 10 34  1  0  0  0
 62 69  1  0  0  0
 14 35  1  0  0  0
 18 36  1  0  0  0
 29 37  1  0  0  0
M  END
> <minimizedAffinity>
-7.60241

> <CNNscore>
0.2532907724

> <CNNaffinity>
8.1413955688

> <CNN_VS>
2.0621404648

> <CNNaffinity_variance>
1.6409080029

$$$$
[H]c1c([H])c([H])c(C([H])([H])[C@@]2([H])C(=O)N([H])[C@@]([H])(C([H])([H])c3c([H])n([H])c4c([H])c([H])c([H])c([H])c34)C(=O)N([H])[C@]([H])(C([H])([H])c3c([H])n([H])c4c([H])c([H])c([H])c([H])c34)C(=O)N([H])[C@@]([H])(C([H])([H])c3c([H])c([H])c([H])c([H])c3[H])C(=O)N([H])[C@@]([H])(C([H])(C([H])([H])[H])C([H])([H])[H])C(=O)N([H])[C@@]([H])(C([H])([H])c3c([H])c([H])c([H])c([H])c3[H])C(=O)N3C([H])([H])C([H])([H])C([H])([H])[C@@]3([H])C(=O)N2[H])c([H])c1[H]


 83 91  0  0  0  0  0  0  0  0999 V2000
   40.0886   14.9073  -12.4838 C   0  0  0  0  0  0  0  0  0  0  0  0
   39.3237   14.6109  -11.3290 N   0  0  0  0  0  0  0  0  0  0  0  0
   38.5852   15.3374  -10.4078 C   0  0  0  0  0  0  0  0  0  0  0  0
   37.2823   15.2045  -10.4924 O   0  0  0  0  0  0  0  0  0  0  0  0
   38.9733   16.2587   -9.3094 C   0  0  0  0  0  0  0  0  0  0  0  0
   40.1082   15.8399   -8.5359 N   0  0  0  0  0  0  0  0  0  0  0  0
   40.3508   15.7724   -7.1654 C   0  0  0  0  0  0  0  0  0  0  0  0
   40.6098   14.6264   -6.6240 O   0  0  0  0  0  0  0  0  0  0  0  0
   40.3566   16.9138   -6.1689 C   0  0  0  0  0  0  0  0  0  0  0  0
   41.0132   16.4712   -4.9533 N   0  0  0  0  0  0  0  0  0  0  0  0
   42.2711   16.7600   -4.4479 C   0  0  0  0  0  0  0  0  0  0  0  0
   42.3954   17.3844   -3.3624 O   0  0  0  0  0  0  0  0  0  0  0  0
   43.6098   16.3982   -5.0632 C   0  0  0  0  0  0  0  0  0  0  0  0
   44.3393   17.6272   -5.1982 N   0  0  0  0  0  0  0  0  0  0  0  0
   44.7480   18.2263   -6.4185 C   0  0  0  0  0  0  0  0  0  0  0  0
   44.4062   19.4382   -6.6077 O   0  0  0  0  0  0  0  0  0  0  0  0
   45.5328   17.5566   -7.4789 C   0  0  0  0  0  0  0  0  0  0  0  0
   44.9499   17.7726   -8.7839 N   0  0  0  0  0  0  0  0  0  0  0  0
   45.4102   17.0980   -9.9520 C   0  0  0  0  0  0  0  0  0  0  0  0
   45.2272   17.7171  -11.0309 O   0  0  0  0  0  0  0  0  0  0  0  0
   46.0414   15.8212   -9.9547 C   0  0  0  0  0  0  0  0  0  0  0  0
   47.3771   15.8114  -10.7147 C   0  0  0  0  0  0  0  0  0  0  0  0
   47.7344   14.3570  -10.5480 C   0  0  0  0  0  0  0  0  0  0  0  0
   46.5004   13.6479  -10.0759 C   0  0  0  0  0  0  0  0  0  0  0  0
   45.4247   14.6315  -10.4436 N   0  0  0  0  0  0  0  0  0  0  0  0
   44.1715   14.3944  -11.0379 C   0  0  0  0  0  0  0  0  0  0  0  0
   43.4787   13.4623  -10.3948 O   0  0  0  0  0  0  0  0  0  0  0  0
   43.4340   14.9038  -12.1737 C   0  0  0  0  0  0  0  0  0  0  0  0
   42.3855   15.8836  -11.8364 N   0  0  0  0  0  0  0  0  0  0  0  0
   41.1139   15.9472  -12.4304 C   0  0  0  0  0  0  0  0  0  0  0  0
   40.8026   17.0652  -13.0066 O   0  0  0  0  0  0  0  0  0  0  0  0
   39.2877   13.5277  -11.1248 H   0  0  0  0  0  0  0  0  0  0  0  0
   40.9190   15.4930   -9.1552 H   0  0  0  0  0  0  0  0  0  0  0  0
   40.4005   15.7877   -4.3780 H   0  0  0  0  0  0  0  0  0  0  0  0
   44.5820   18.1285   -4.2968 H   0  0  0  0  0  0  0  0  0  0  0  0
   44.1520   18.4750   -8.8168 H   0  0  0  0  0  0  0  0  0  0  0  0
   42.5663   16.6202  -11.0883 H   0  0  0  0  0  0  0  0  0  0  0  0
   38.0069   14.1246  -13.5258 C   0  0  0  0  0  0  0  0  0  0  0  0
   39.2197   15.0398  -13.7513 C   0  0  0  0  0  0  0  0  0  0  0  0
   39.9940   14.4568  -14.8901 C   0  0  0  0  0  0  0  0  0  0  0  0
   39.0005   17.7049   -9.7525 C   0  0  0  0  0  0  0  0  0  0  0  0
   38.0006   18.5218   -8.9677 C   0  0  0  0  0  0  0  0  0  0  0  0
   38.3102   19.8395   -8.6852 C   0  0  0  0  0  0  0  0  0  0  0  0
   37.4097   20.6069   -7.9741 C   0  0  0  0  0  0  0  0  0  0  0  0
   36.1973   20.1150   -7.5240 C   0  0  0  0  0  0  0  0  0  0  0  0
   35.9397   18.7916   -7.8335 C   0  0  0  0  0  0  0  0  0  0  0  0
   36.8175   17.9993   -8.5416 C   0  0  0  0  0  0  0  0  0  0  0  0
   38.9555   17.3889   -5.8717 C   0  0  0  0  0  0  0  0  0  0  0  0
   38.2168   16.3630   -5.1081 C   0  0  0  0  0  0  0  0  0  0  0  0
   38.4472   16.1180   -3.7569 C   0  0  0  0  0  0  0  0  0  0  0  0
   37.6837   15.1194   -3.3615 N   0  0  0  0  0  0  0  0  0  0  0  0
   36.9465   14.6799   -4.3848 C   0  0  0  0  0  0  0  0  0  0  0  0
   35.9823   13.6771   -4.4974 C   0  0  0  0  0  0  0  0  0  0  0  0
   35.3388   13.4361   -5.6875 C   0  0  0  0  0  0  0  0  0  0  0  0
   35.6567   14.2081   -6.7967 C   0  0  0  0  0  0  0  0  0  0  0  0
   36.6121   15.1920   -6.6594 C   0  0  0  0  0  0  0  0  0  0  0  0
   37.2774   15.4575   -5.4798 C   0  0  0  0  0  0  0  0  0  0  0  0
   37.6000   14.6669   -2.4028 H   0  0  0  0  0  0  0  0  0  0  0  0
   44.2010   15.4506   -4.0791 C   0  0  0  0  0  0  0  0  0  0  0  0
   44.1216   14.0355   -4.3327 C   0  0  0  0  0  0  0  0  0  0  0  0
   44.1558   13.0308   -3.3619 C   0  0  0  0  0  0  0  0  0  0  0  0
   44.0241   11.8355   -3.9446 N   0  0  0  0  0  0  0  0  0  0  0  0
   43.9036   12.0258   -5.2772 C   0  0  0  0  0  0  0  0  0  0  0  0
   43.7572   11.0747   -6.2682 C   0  0  0  0  0  0  0  0  0  0  0  0
   43.6660   11.4784   -7.5868 C   0  0  0  0  0  0  0  0  0  0  0  0
   43.7251   12.8276   -7.8667 C   0  0  0  0  0  0  0  0  0  0  0  0
   43.8721   13.7679   -6.8516 C   0  0  0  0  0  0  0  0  0  0  0  0
   43.9631   13.3851   -5.5289 C   0  0  0  0  0  0  0  0  0  0  0  0
   44.0197   10.9166   -3.4233 H   0  0  0  0  0  0  0  0  0  0  0  0
   46.9628   18.0231   -7.4050 C   0  0  0  0  0  0  0  0  0  0  0  0
   47.7683   17.5049   -6.3049 C   0  0  0  0  0  0  0  0  0  0  0  0
   48.5691   18.3451   -5.5128 C   0  0  0  0  0  0  0  0  0  0  0  0
   49.3404   17.9180   -4.4834 C   0  0  0  0  0  0  0  0  0  0  0  0
   49.3674   16.5867   -4.1638 C   0  0  0  0  0  0  0  0  0  0  0  0
   48.6121   15.7218   -4.8956 C   0  0  0  0  0  0  0  0  0  0  0  0
   47.8198   16.1726   -5.9549 C   0  0  0  0  0  0  0  0  0  0  0  0
   44.1221   15.2242  -13.4488 C   0  0  0  0  0  0  0  0  0  0  0  0
   44.8196   16.5014  -13.5404 C   0  0  0  0  0  0  0  0  0  0  0  0
   46.1878   16.5538  -13.8034 C   0  0  0  0  0  0  0  0  0  0  0  0
   46.8746   17.7555  -13.9384 C   0  0  0  0  0  0  0  0  0  0  0  0
   46.1810   18.9373  -13.8082 C   0  0  0  0  0  0  0  0  0  0  0  0
   44.8454   18.9172  -13.5518 C   0  0  0  0  0  0  0  0  0  0  0  0
   44.1821   17.7006  -13.4210 C   0  0  0  0  0  0  0  0  0  0  0  0
 38 39  1  0  0  0
 39 40  1  0  0  0
 39  1  1  0  0  0
  1  2  1  0  0  0
  2  3  1  0  0  0
  3  4  2  0  0  0
  3  5  1  0  0  0
  5 41  1  0  0  0
 41 42  1  0  0  0
 42 43  2  0  0  0
 43 44  1  0  0  0
 44 45  2  0  0  0
 45 46  1  0  0  0
 46 47  2  0  0  0
  5  6  1  0  0  0
  6  7  1  0  0  0
  7  8  2  0  0  0
  7  9  1  0  0  0
  9 48  1  0  0  0
 48 49  1  0  0  0
 49 50  2  0  0  0
 50 51  1  0  0  0
 51 52  1  0  0  0
 52 53  2  0  0  0
 53 54  1  0  0  0
 54 55  2  0  0  0
 55 56  1  0  0  0
 56 57  2  0  0  0
  9 10  1  0  0  0
 10 11  1  0  0  0
 11 12  2  0  0  0
 11 13  1  0  0  0
 13 59  1  0  0  0
 59 60  1  0  0  0
 60 61  2  0  0  0
 61 62  1  0  0  0
 62 63  1  0  0  0
 63 64  2  0  0  0
 64 65  1  0  0  0
 65 66  2  0  0  0
 66 67  1  0  0  0
 67 68  2  0  0  0
 13 14  1  0  0  0
 14 15  1  0  0  0
 15 16  2  0  0  0
 15 17  1  0  0  0
 17 70  1  0  0  0
 70 71  1  0  0  0
 71 72  2  0  0  0
 72 73  1  0  0  0
 73 74  2  0  0  0
 74 75  1  0  0  0
 75 76  2  0  0  0
 17 18  1  0  0  0
 18 19  1  0  0  0
 19 20  2  0  0  0
 19 21  1  0  0  0
 21 22  1  0  0  0
 22 23  1  0  0  0
 23 24  1  0  0  0
 24 25  1  0  0  0
 25 26  1  0  0  0
 26 27  2  0  0  0
 26 28  1  0  0  0
 28 77  1  0  0  0
 77 78  1  0  0  0
 78 79  2  0  0  0
 79 80  1  0  0  0
 80 81  2  0  0  0
 81 82  1  0  0  0
 82 83  2  0  0  0
 28 29  1  0  0  0
 29 30  1  0  0  0
 30 31  2  0  0  0
 30  1  1  0  0  0
 47 42  1  0  0  0
 57 49  1  0  0  0
 68 60  1  0  0  0
 76 71  1  0  0  0
 25 21  1  0  0  0
 83 78  1  0  0  0
 57 52  1  0  0  0
 68 63  1  0  0  0
  2 32  1  0  0  0
  6 33  1  0  0  0
 51 58  1  0  0  0
 10 34  1  0  0  0
 62 69  1  0  0  0
 14 35  1  0  0  0
 18 36  1  0  0  0
 29 37  1  0  0  0
M  END
> <minimizedAffinity>
-7.24049

> <CNNscore>
0.2473528236

> <CNNaffinity>
7.6509742737

> <CNN_VS>
1.8924901485

> <CNNaffinity_variance>
1.1726262569

$$$$
[H]c1nc(OC([H])([H])c2c(-c3c([H])c([H])c([H])c([H])c3F)noc2C([H])([H])[H])c([H])c([H])c1C(=O)N1C([H])([H])C([H])([H])OC([H])([H])C1([H])[H]


 29 32  0  0  0  0  0  0  0  0999 V2000
   36.9729   11.8222  -16.4705 O   0  0  0  0  0  0  0  0  0  0  0  0
   36.6635   12.4069  -15.1945 C   0  0  0  0  0  0  0  0  0  0  0  0
   37.1355   12.0753  -14.0012 C   0  0  0  0  0  0  0  0  0  0  0  0
   36.7560   12.7420  -12.8033 C   0  0  0  0  0  0  0  0  0  0  0  0
   35.8619   13.7679  -12.8601 C   0  0  0  0  0  0  0  0  0  0  0  0
   35.3562   14.1165  -14.1417 C   0  0  0  0  0  0  0  0  0  0  0  0
   35.7623   13.4533  -15.1974 N   0  0  0  0  0  0  0  0  0  0  0  0
   35.4590   14.6630  -11.8257 C   0  0  0  0  0  0  0  0  0  0  0  0
   34.1763   15.0157  -11.9590 O   0  0  0  0  0  0  0  0  0  0  0  0
   36.0918   15.2567  -10.7228 N   0  0  0  0  0  0  0  0  0  0  0  0
   37.4447   15.0948  -10.3930 C   0  0  0  0  0  0  0  0  0  0  0  0
   37.7551   15.2575   -8.9315 C   0  0  0  0  0  0  0  0  0  0  0  0
   36.7482   15.7942   -8.1718 O   0  0  0  0  0  0  0  0  0  0  0  0
   36.0201   16.7543   -8.8269 C   0  0  0  0  0  0  0  0  0  0  0  0
   35.2225   16.1441   -9.9417 C   0  0  0  0  0  0  0  0  0  0  0  0
   38.2349   11.0810  -16.4268 C   0  0  0  0  0  0  0  0  0  0  0  0
   38.0882   10.3491  -19.4748 C   0  0  0  0  0  0  0  0  0  0  0  0
   39.0793   11.2063  -18.8263 C   0  0  0  0  0  0  0  0  0  0  0  0
   40.1105   11.7605  -19.4096 O   0  0  0  0  0  0  0  0  0  0  0  0
   40.7906   12.4559  -18.6010 N   0  0  0  0  0  0  0  0  0  0  0  0
   40.2395   12.4192  -17.3306 C   0  0  0  0  0  0  0  0  0  0  0  0
   39.1366   11.6190  -17.4758 C   0  0  0  0  0  0  0  0  0  0  0  0
   40.8561   13.0044  -16.1690 C   0  0  0  0  0  0  0  0  0  0  0  0
   40.1461   13.7755  -15.2265 C   0  0  0  0  0  0  0  0  0  0  0  0
   40.7177   14.2607  -14.0551 C   0  0  0  0  0  0  0  0  0  0  0  0
   42.0312   13.9856  -13.7951 C   0  0  0  0  0  0  0  0  0  0  0  0
   42.7846   13.2212  -14.6982 C   0  0  0  0  0  0  0  0  0  0  0  0
   42.1652   12.7619  -15.8542 C   0  0  0  0  0  0  0  0  0  0  0  0
   42.9183   12.0124  -16.7159 F   0  0  0  0  0  0  0  0  0  0  0  0
 17 18  1  0  0  0
 18 19  1  0  0  0
 19 20  1  0  0  0
 20 21  2  0  0  0
 21 22  1  0  0  0
 22 16  1  0  0  0
 16  1  1  0  0  0
  1  2  1  0  0  0
  2  3  2  0  0  0
  3  4  1  0  0  0
  4  5  2  0  0  0
  5  6  1  0  0  0
  6  7  2  0  0  0
  5  8  1  0  0  0
  8  9  2  0  0  0
  8 10  1  0  0  0
 10 11  1  0  0  0
 11 12  1  0  0  0
 12 13  1  0  0  0
 13 14  1  0  0  0
 14 15  1  0  0  0
 21 23  1  0  0  0
 23 24  2  0  0  0
 24 25  1  0  0  0
 25 26  2  0  0  0
 26 27  1  0  0  0
 27 28  2  0  0  0
 28 29  1  0  0  0
 22 18  2  0  0  0
  7  2  1  0  0  0
 15 10  1  0  0  0
 28 23  1  0  0  0
M  END
> <minimizedAffinity>
-8.94241

> <CNNscore>
0.6873119473

> <CNNaffinity>
6.9560394287

> <CNN_VS>
4.7809691429

> <CNNaffinity_variance>
0.2938653529

$$$$
[H]c1nc(OC([H])([H])c2c(-c3c([H])c([H])c([H])c([H])c3F)noc2C([H])([H])[H])c([H])c([H])c1C(=O)N1C([H])([H])C([H])([H])OC([H])([H])C1([H])[H]


 29 32  0  0  0  0  0  0  0  0999 V2000
   40.3794   12.9851  -14.8455 O   0  0  0  0  0  0  0  0  0  0  0  0
   41.8087   13.0768  -14.9651 C   0  0  0  0  0  0  0  0  0  0  0  0
   42.5606   12.8583  -16.0345 C   0  0  0  0  0  0  0  0  0  0  0  0
   43.9768   12.9925  -16.0287 C   0  0  0  0  0  0  0  0  0  0  0  0
   44.6122   13.3548  -14.8798 C   0  0  0  0  0  0  0  0  0  0  0  0
   43.8013   13.5839  -13.7353 C   0  0  0  0  0  0  0  0  0  0  0  0
   42.5009   13.4429  -13.8276 N   0  0  0  0  0  0  0  0  0  0  0  0
   45.9839   13.6913  -14.6829 C   0  0  0  0  0  0  0  0  0  0  0  0
   46.7540   12.5989  -14.6527 O   0  0  0  0  0  0  0  0  0  0  0  0
   46.6988   14.8860  -14.5069 N   0  0  0  0  0  0  0  0  0  0  0  0
   46.1222   16.1623  -14.4439 C   0  0  0  0  0  0  0  0  0  0  0  0
   47.0281   17.2791  -14.8808 C   0  0  0  0  0  0  0  0  0  0  0  0
   48.3497   16.9440  -15.0233 O   0  0  0  0  0  0  0  0  0  0  0  0
   48.7865   16.0327  -14.0961 C   0  0  0  0  0  0  0  0  0  0  0  0
   48.1423   14.6968  -14.3234 C   0  0  0  0  0  0  0  0  0  0  0  0
   39.7134   13.3562  -16.0956 C   0  0  0  0  0  0  0  0  0  0  0  0
   40.3339   11.4030  -18.4719 C   0  0  0  0  0  0  0  0  0  0  0  0
   39.1293   11.4201  -17.6436 C   0  0  0  0  0  0  0  0  0  0  0  0
   38.0800   10.6557  -17.8030 O   0  0  0  0  0  0  0  0  0  0  0  0
   37.1926   10.8876  -16.9320 N   0  0  0  0  0  0  0  0  0  0  0  0
   37.5974   11.8908  -16.0668 C   0  0  0  0  0  0  0  0  0  0  0  0
   38.8446   12.2308  -16.5214 C   0  0  0  0  0  0  0  0  0  0  0  0
   36.7547   12.4661  -15.0515 C   0  0  0  0  0  0  0  0  0  0  0  0
   35.6579   13.3018  -15.3438 C   0  0  0  0  0  0  0  0  0  0  0  0
   34.7858   13.7803  -14.3717 C   0  0  0  0  0  0  0  0  0  0  0  0
   34.9931   13.4325  -13.0662 C   0  0  0  0  0  0  0  0  0  0  0  0
   36.0686   12.6016  -12.7191 C   0  0  0  0  0  0  0  0  0  0  0  0
   36.9106   12.1524  -13.7290 C   0  0  0  0  0  0  0  0  0  0  0  0
   37.9480   11.3374  -13.3668 F   0  0  0  0  0  0  0  0  0  0  0  0
 17 18  1  0  0  0
 18 19  1  0  0  0
 19 20  1  0  0  0
 20 21  2  0  0  0
 21 22  1  0  0  0
 22 16  1  0  0  0
 16  1  1  0  0  0
  1  2  1  0  0  0
  2  3  2  0  0  0
  3  4  1  0  0  0
  4  5  2  0  0  0
  5  6  1  0  0  0
  6  7  2  0  0  0
  5  8  1  0  0  0
  8  9  2  0  0  0
  8 10  1  0  0  0
 10 11  1  0  0  0
 11 12  1  0  0  0
 12 13  1  0  0  0
 13 14  1  0  0  0
 14 15  1  0  0  0
 21 23  1  0  0  0
 23 24  2  0  0  0
 24 25  1  0  0  0
 25 26  2  0  0  0
 26 27  1  0  0  0
 27 28  2  0  0  0
 28 29  1  0  0  0
 22 18  2  0  0  0
  7  2  1  0  0  0
 15 10  1  0  0  0
 28 23  1  0  0  0
M  END
> <minimizedAffinity>
-8.57172

> <CNNscore>
0.4901155829

> <CNNaffinity>
6.2489347458

> <CNN_VS>
3.0627002716

> <CNNaffinity_variance>
0.1690779030

$$$$
[H]c1nc(OC([H])([H])c2c(-c3c([H])c([H])c([H])c([H])c3F)noc2C([H])([H])[H])c([H])c([H])c1C(=O)N1C([H])([H])C([H])([H])OC([H])([H])C1([H])[H]


 29 32  0  0  0  0  0  0  0  0999 V2000
   42.3390   13.6160  -16.1129 O   0  0  0  0  0  0  0  0  0  0  0  0
   41.0011   13.0916  -16.0891 C   0  0  0  0  0  0  0  0  0  0  0  0
   40.0643   13.2684  -15.1683 C   0  0  0  0  0  0  0  0  0  0  0  0
   38.7640   12.6995  -15.2642 C   0  0  0  0  0  0  0  0  0  0  0  0
   38.4465   11.9276  -16.3405 C   0  0  0  0  0  0  0  0  0  0  0  0
   39.4561   11.7383  -17.3226 C   0  0  0  0  0  0  0  0  0  0  0  0
   40.6282   12.3031  -17.1598 N   0  0  0  0  0  0  0  0  0  0  0  0
   37.1797   11.3899  -16.7144 C   0  0  0  0  0  0  0  0  0  0  0  0
   37.2978   10.5230  -17.7254 O   0  0  0  0  0  0  0  0  0  0  0  0
   35.8575   11.5657  -16.2785 N   0  0  0  0  0  0  0  0  0  0  0  0
   35.4578   12.4568  -15.2727 C   0  0  0  0  0  0  0  0  0  0  0  0
   34.2032   12.0582  -14.5475 C   0  0  0  0  0  0  0  0  0  0  0  0
   33.4845   11.0450  -15.1273 O   0  0  0  0  0  0  0  0  0  0  0  0
   33.5005   11.0773  -16.4983 C   0  0  0  0  0  0  0  0  0  0  0  0
   34.8734   10.7676  -17.0185 C   0  0  0  0  0  0  0  0  0  0  0  0
   43.0521   13.3184  -14.8691 C   0  0  0  0  0  0  0  0  0  0  0  0
   44.5255   11.4023  -16.8703 C   0  0  0  0  0  0  0  0  0  0  0  0
   45.1419   12.4033  -16.0011 C   0  0  0  0  0  0  0  0  0  0  0  0
   46.4255   12.6188  -15.8724 O   0  0  0  0  0  0  0  0  0  0  0  0
   46.6658   13.5532  -15.0545 N   0  0  0  0  0  0  0  0  0  0  0  0
   45.4911   14.0695  -14.5327 C   0  0  0  0  0  0  0  0  0  0  0  0
   44.5104   13.3331  -15.1442 C   0  0  0  0  0  0  0  0  0  0  0  0
   45.4409   15.0523  -13.4821 C   0  0  0  0  0  0  0  0  0  0  0  0
   45.2621   14.7193  -12.1242 C   0  0  0  0  0  0  0  0  0  0  0  0
   45.3094   15.6573  -11.0983 C   0  0  0  0  0  0  0  0  0  0  0  0
   45.5370   16.9687  -11.4093 C   0  0  0  0  0  0  0  0  0  0  0  0
   45.7234   17.3556  -12.7446 C   0  0  0  0  0  0  0  0  0  0  0  0
   45.6651   16.3787  -13.7310 C   0  0  0  0  0  0  0  0  0  0  0  0
   45.8573   16.7792  -15.0250 F   0  0  0  0  0  0  0  0  0  0  0  0
 17 18  1  0  0  0
 18 19  1  0  0  0
 19 20  1  0  0  0
 20 21  2  0  0  0
 21 22  1  0  0  0
 22 16  1  0  0  0
 16  1  1  0  0  0
  1  2  1  0  0  0
  2  3  2  0  0  0
  3  4  1  0  0  0
  4  5  2  0  0  0
  5  6  1  0  0  0
  6  7  2  0  0  0
  5  8  1  0  0  0
  8  9  2  0  0  0
  8 10  1  0  0  0
 10 11  1  0  0  0
 11 12  1  0  0  0
 12 13  1  0  0  0
 13 14  1  0  0  0
 14 15  1  0  0  0
 21 23  1  0  0  0
 23 24  2  0  0  0
 24 25  1  0  0  0
 25 26  2  0  0  0
 26 27  1  0  0  0
 27 28  2  0  0  0
 28 29  1  0  0  0
 22 18  2  0  0  0
  7  2  1  0  0  0
 15 10  1  0  0  0
 28 23  1  0  0  0
M  END
> <minimizedAffinity>
-8.78393

> <CNNscore>
0.4357905686

> <CNNaffinity>
6.3675699234

> <CNN_VS>
2.7749269009

> <CNNaffinity_variance>
0.2040797919

$$$$
[H]c1nc(OC([H])([H])c2c(-c3c([H])c([H])c([H])c([H])c3F)noc2C([H])([H])[H])c([H])c([H])c1C(=O)N1C([H])([H])C([H])([H])OC([H])([H])C1([H])[H]


 29 32  0  0  0  0  0  0  0  0999 V2000
   39.5019   13.4244  -15.3811 O   0  0  0  0  0  0  0  0  0  0  0  0
   40.9330   13.3830  -15.2539 C   0  0  0  0  0  0  0  0  0  0  0  0
   41.8291   13.0157  -16.1587 C   0  0  0  0  0  0  0  0  0  0  0  0
   43.2303   13.0276  -15.9134 C   0  0  0  0  0  0  0  0  0  0  0  0
   43.6955   13.4249  -14.6965 C   0  0  0  0  0  0  0  0  0  0  0  0
   42.7299   13.8139  -13.7290 C   0  0  0  0  0  0  0  0  0  0  0  0
   41.4562   13.7782  -14.0386 N   0  0  0  0  0  0  0  0  0  0  0  0
   45.0408   13.6570  -14.2842 C   0  0  0  0  0  0  0  0  0  0  0  0
   45.6625   12.5122  -13.9835 O   0  0  0  0  0  0  0  0  0  0  0  0
   45.8464   14.7934  -14.1151 N   0  0  0  0  0  0  0  0  0  0  0  0
   45.4188   16.1143  -14.3096 C   0  0  0  0  0  0  0  0  0  0  0  0
   46.5099   17.0740  -14.6933 C   0  0  0  0  0  0  0  0  0  0  0  0
   47.7884   16.6024  -14.5440 O   0  0  0  0  0  0  0  0  0  0  0  0
   47.9475   15.7876  -13.4523 C   0  0  0  0  0  0  0  0  0  0  0  0
   47.2037   14.4984  -13.6418 C   0  0  0  0  0  0  0  0  0  0  0  0
   38.8869   12.1837  -14.9052 C   0  0  0  0  0  0  0  0  0  0  0  0
   39.2446   10.7721  -17.6849 C   0  0  0  0  0  0  0  0  0  0  0  0
   37.9930   11.2502  -17.0997 C   0  0  0  0  0  0  0  0  0  0  0  0
   36.8189   11.2213  -17.6754 O   0  0  0  0  0  0  0  0  0  0  0  0
   35.9165   11.6961  -16.9270 N   0  0  0  0  0  0  0  0  0  0  0  0
   36.4448   12.1115  -15.7157 C   0  0  0  0  0  0  0  0  0  0  0  0
   37.7796   11.8212  -15.8246 C   0  0  0  0  0  0  0  0  0  0  0  0
   35.6926   12.8116  -14.7077 C   0  0  0  0  0  0  0  0  0  0  0  0
   36.1910   13.9341  -14.0160 C   0  0  0  0  0  0  0  0  0  0  0  0
   35.4316   14.6695  -13.1120 C   0  0  0  0  0  0  0  0  0  0  0  0
   34.1393   14.2941  -12.8723 C   0  0  0  0  0  0  0  0  0  0  0  0
   33.5918   13.1854  -13.5346 C   0  0  0  0  0  0  0  0  0  0  0  0
   34.3942   12.4847  -14.4268 C   0  0  0  0  0  0  0  0  0  0  0  0
   33.8357   11.4118  -15.0660 F   0  0  0  0  0  0  0  0  0  0  0  0
 17 18  1  0  0  0
 18 19  1  0  0  0
 19 20  1  0  0  0
 20 21  2  0  0  0
 21 22  1  0  0  0
 22 16  1  0  0  0
 16  1  1  0  0  0
  1  2  1  0  0  0
  2  3  2  0  0  0
  3  4  1  0  0  0
  4  5  2  0  0  0
  5  6  1  0  0  0
  6  7  2  0  0  0
  5  8  1  0  0  0
  8  9  2  0  0  0
  8 10  1  0  0  0
 10 11  1  0  0  0
 11 12  1  0  0  0
 12 13  1  0  0  0
 13 14  1  0  0  0
 14 15  1  0  0  0
 21 23  1  0  0  0
 23 24  2  0  0  0
 24 25  1  0  0  0
 25 26  2  0  0  0
 26 27  1  0  0  0
 27 28  2  0  0  0
 28 29  1  0  0  0
 22 18  2  0  0  0
  7  2  1  0  0  0
 15 10  1  0  0  0
 28 23  1  0  0  0
M  END
> <minimizedAffinity>
-8.40771

> <CNNscore>
0.4025569856

> <CNNaffinity>
6.2287855148

> <CNN_VS>
2.5074410439

> <CNNaffinity_variance>
0.1404790431

$$$$
[H]c1nc(OC([H])([H])c2c(-c3c([H])c([H])c([H])c([H])c3F)noc2C([H])([H])[H])c([H])c([H])c1C(=O)N1C([H])([H])C([H])([H])OC([H])([H])C1([H])[H]


 29 32  0  0  0  0  0  0  0  0999 V2000
   39.2511   13.0180  -16.1559 O   0  0  0  0  0  0  0  0  0  0  0  0
   40.4553   13.3150  -15.4298 C   0  0  0  0  0  0  0  0  0  0  0  0
   40.5858   13.9730  -14.2866 C   0  0  0  0  0  0  0  0  0  0  0  0
   41.8423   14.1956  -13.6578 C   0  0  0  0  0  0  0  0  0  0  0  0
   42.9787   13.7255  -14.2431 C   0  0  0  0  0  0  0  0  0  0  0  0
   42.8331   13.0242  -15.4706 C   0  0  0  0  0  0  0  0  0  0  0  0
   41.6365   12.8583  -15.9805 N   0  0  0  0  0  0  0  0  0  0  0  0
   44.3076   13.6997  -13.7263 C   0  0  0  0  0  0  0  0  0  0  0  0
   45.1833   14.1904  -14.6094 O   0  0  0  0  0  0  0  0  0  0  0  0
   44.8993   13.2758  -12.5266 N   0  0  0  0  0  0  0  0  0  0  0  0
   44.2114   12.6754  -11.4628 C   0  0  0  0  0  0  0  0  0  0  0  0
   44.8444   12.8797  -10.1151 C   0  0  0  0  0  0  0  0  0  0  0  0
   46.1195   13.3826  -10.1334 O   0  0  0  0  0  0  0  0  0  0  0  0
   46.8753   12.9208  -11.1805 C   0  0  0  0  0  0  0  0  0  0  0  0
   46.3553   13.4534  -12.4833 C   0  0  0  0  0  0  0  0  0  0  0  0
   38.8022   11.6464  -15.9086 C   0  0  0  0  0  0  0  0  0  0  0  0
   37.6194   10.3483  -18.5092 C   0  0  0  0  0  0  0  0  0  0  0  0
   36.8725   11.0255  -17.4504 C   0  0  0  0  0  0  0  0  0  0  0  0
   35.5849   11.2552  -17.4489 O   0  0  0  0  0  0  0  0  0  0  0  0
   35.2151   11.8529  -16.3972 N   0  0  0  0  0  0  0  0  0  0  0  0
   36.2911   12.0910  -15.5580 C   0  0  0  0  0  0  0  0  0  0  0  0
   37.3568   11.5555  -16.2329 C   0  0  0  0  0  0  0  0  0  0  0  0
   36.2114   12.8661  -14.3477 C   0  0  0  0  0  0  0  0  0  0  0  0
   36.3683   12.3067  -13.0634 C   0  0  0  0  0  0  0  0  0  0  0  0
   36.3873   13.0676  -11.8994 C   0  0  0  0  0  0  0  0  0  0  0  0
   36.2455   14.4240  -11.9917 C   0  0  0  0  0  0  0  0  0  0  0  0
   36.0877   15.0337  -13.2451 C   0  0  0  0  0  0  0  0  0  0  0  0
   36.0744   14.2270  -14.3765 C   0  0  0  0  0  0  0  0  0  0  0  0
   35.9266   14.8452  -15.5879 F   0  0  0  0  0  0  0  0  0  0  0  0
 17 18  1  0  0  0
 18 19  1  0  0  0
 19 20  1  0  0  0
 20 21  2  0  0  0
 21 22  1  0  0  0
 22 16  1  0  0  0
 16  1  1  0  0  0
  1  2  1  0  0  0
  2  3  2  0  0  0
  3  4  1  0  0  0
  4  5  2  0  0  0
  5  6  1  0  0  0
  6  7  2  0  0  0
  5  8  1  0  0  0
  8  9  2  0  0  0
  8 10  1  0  0  0
 10 11  1  0  0  0
 11 12  1  0  0  0
 12 13  1  0  0  0
 13 14  1  0  0  0
 14 15  1  0  0  0
 21 23  1  0  0  0
 23 24  2  0  0  0
 24 25  1  0  0  0
 25 26  2  0  0  0
 26 27  1  0  0  0
 27 28  2  0  0  0
 28 29  1  0  0  0
 22 18  2  0  0  0
  7  2  1  0  0  0
 15 10  1  0  0  0
 28 23  1  0  0  0
M  END
> <minimizedAffinity>
-7.52800

> <CNNscore>
0.3884157538

> <CNNaffinity>
6.4396972656

> <CNN_VS>
2.5012798309

> <CNNaffinity_variance>
0.2686531842

$$$$
[H]c1nc(OC([H])([H])c2c(-c3c([H])c([H])c([H])c([H])c3F)noc2C([H])([H])[H])c([H])c([H])c1C(=O)N1C([H])([H])C([H])([H])OC([H])([H])C1([H])[H]


 29 32  0  0  0  0  0  0  0  0999 V2000
   39.4908   13.1253  -16.5016 O   0  0  0  0  0  0  0  0  0  0  0  0
   40.5047   13.4681  -15.5423 C   0  0  0  0  0  0  0  0  0  0  0  0
   40.3765   14.1677  -14.4240 C   0  0  0  0  0  0  0  0  0  0  0  0
   41.4632   14.4337  -13.5454 C   0  0  0  0  0  0  0  0  0  0  0  0
   42.7043   13.9630  -13.8508 C   0  0  0  0  0  0  0  0  0  0  0  0
   42.8366   13.2168  -15.0531 C   0  0  0  0  0  0  0  0  0  0  0  0
   41.7818   13.0127  -15.8048 N   0  0  0  0  0  0  0  0  0  0  0  0
   43.8884   13.9782  -13.0563 C   0  0  0  0  0  0  0  0  0  0  0  0
   43.8122   13.0992  -12.0517 O   0  0  0  0  0  0  0  0  0  0  0  0
   45.0923   14.6987  -13.0805 N   0  0  0  0  0  0  0  0  0  0  0  0
   45.3991   15.7151  -13.9961 C   0  0  0  0  0  0  0  0  0  0  0  0
   46.8676   15.8961  -14.2595 C   0  0  0  0  0  0  0  0  0  0  0  0
   47.7061   15.2449  -13.3924 O   0  0  0  0  0  0  0  0  0  0  0  0
   47.2421   15.2125  -12.1022 C   0  0  0  0  0  0  0  0  0  0  0  0
   46.0215   14.3458  -12.0009 C   0  0  0  0  0  0  0  0  0  0  0  0
   39.1361   11.7069  -16.4207 C   0  0  0  0  0  0  0  0  0  0  0  0
   37.6718   10.2287  -18.7697 C   0  0  0  0  0  0  0  0  0  0  0  0
   37.0459   10.9647  -17.6724 C   0  0  0  0  0  0  0  0  0  0  0  0
   35.7638   11.1792  -17.5279 O   0  0  0  0  0  0  0  0  0  0  0  0
   35.5129   11.8397  -16.4788 N   0  0  0  0  0  0  0  0  0  0  0  0
   36.6780   12.1444  -15.7943 C   0  0  0  0  0  0  0  0  0  0  0  0
   37.6640   11.5784  -16.5593 C   0  0  0  0  0  0  0  0  0  0  0  0
   36.7307   12.9956  -14.6347 C   0  0  0  0  0  0  0  0  0  0  0  0
   36.1732   14.2899  -14.6037 C   0  0  0  0  0  0  0  0  0  0  0  0
   36.1382   15.0758  -13.4567 C   0  0  0  0  0  0  0  0  0  0  0  0
   36.6690   14.5816  -12.2981 C   0  0  0  0  0  0  0  0  0  0  0  0
   37.2352   13.2985  -12.2718 C   0  0  0  0  0  0  0  0  0  0  0  0
   37.2456   12.5556  -13.4461 C   0  0  0  0  0  0  0  0  0  0  0  0
   37.7965   11.3044  -13.3937 F   0  0  0  0  0  0  0  0  0  0  0  0
 17 18  1  0  0  0
 18 19  1  0  0  0
 19 20  1  0  0  0
 20 21  2  0  0  0
 21 22  1  0  0  0
 22 16  1  0  0  0
 16  1  1  0  0  0
  1  2  1  0  0  0
  2  3  2  0  0  0
  3  4  1  0  0  0
  4  5  2  0  0  0
  5  6  1  0  0  0
  6  7  2  0  0  0
  5  8  1  0  0  0
  8  9  2  0  0  0
  8 10  1  0  0  0
 10 11  1  0  0  0
 11 12  1  0  0  0
 12 13  1  0  0  0
 13 14  1  0  0  0
 14 15  1  0  0  0
 21 23  1  0  0  0
 23 24  2  0  0  0
 24 25  1  0  0  0
 25 26  2  0  0  0
 26 27  1  0  0  0
 27 28  2  0  0  0
 28 29  1  0  0  0
 22 18  2  0  0  0
  7  2  1  0  0  0
 15 10  1  0  0  0
 28 23  1  0  0  0
M  END
> <minimizedAffinity>
-7.72528

> <CNNscore>
0.3838447034

> <CNNaffinity>
6.2334709167

> <CNN_VS>
2.3926846981

> <CNNaffinity_variance>
0.1495176256

$$$$
[H]c1nc(OC([H])([H])c2c(-c3c([H])c([H])c([H])c([H])c3F)noc2C([H])([H])[H])c([H])c([H])c1C(=O)N1C([H])([H])C([H])([H])OC([H])([H])C1([H])[H]


 29 32  0  0  0  0  0  0  0  0999 V2000
   39.5858   13.1384  -15.8919 O   0  0  0  0  0  0  0  0  0  0  0  0
   40.9358   13.3227  -15.4343 C   0  0  0  0  0  0  0  0  0  0  0  0
   42.0651   13.0459  -16.0704 C   0  0  0  0  0  0  0  0  0  0  0  0
   43.3506   13.2849  -15.5101 C   0  0  0  0  0  0  0  0  0  0  0  0
   43.4500   13.8161  -14.2599 C   0  0  0  0  0  0  0  0  0  0  0  0
   42.2358   14.1072  -13.5811 C   0  0  0  0  0  0  0  0  0  0  0  0
   41.0915   13.8606  -14.1721 N   0  0  0  0  0  0  0  0  0  0  0  0
   44.6118   14.2732  -13.5707 C   0  0  0  0  0  0  0  0  0  0  0  0
   44.5411   15.5831  -13.3124 O   0  0  0  0  0  0  0  0  0  0  0  0
   45.7976   13.6757  -13.1169 N   0  0  0  0  0  0  0  0  0  0  0  0
   46.1411   12.3302  -13.3098 C   0  0  0  0  0  0  0  0  0  0  0  0
   47.0633   11.7653  -12.2663 C   0  0  0  0  0  0  0  0  0  0  0  0
   47.6476   12.6862  -11.4358 O   0  0  0  0  0  0  0  0  0  0  0  0
   47.9639   13.8650  -12.0616 C   0  0  0  0  0  0  0  0  0  0  0  0
   46.7195   14.6055  -12.4545 C   0  0  0  0  0  0  0  0  0  0  0  0
   39.1249   11.7681  -15.6595 C   0  0  0  0  0  0  0  0  0  0  0  0
   40.3584   10.8727  -18.4025 C   0  0  0  0  0  0  0  0  0  0  0  0
   38.9379   10.9984  -18.0800 C   0  0  0  0  0  0  0  0  0  0  0  0
   37.9453   10.8154  -18.9118 O   0  0  0  0  0  0  0  0  0  0  0  0
   36.8244   10.9852  -18.3508 N   0  0  0  0  0  0  0  0  0  0  0  0
   36.9837   11.3204  -17.0162 C   0  0  0  0  0  0  0  0  0  0  0  0
   38.3427   11.3250  -16.8404 C   0  0  0  0  0  0  0  0  0  0  0  0
   35.9010   11.7014  -16.1476 C   0  0  0  0  0  0  0  0  0  0  0  0
   35.8996   12.8943  -15.3968 C   0  0  0  0  0  0  0  0  0  0  0  0
   34.8148   13.3108  -14.6323 C   0  0  0  0  0  0  0  0  0  0  0  0
   33.6911   12.5333  -14.5973 C   0  0  0  0  0  0  0  0  0  0  0  0
   33.6376   11.3365  -15.3271 C   0  0  0  0  0  0  0  0  0  0  0  0
   34.7496   10.9662  -16.0734 C   0  0  0  0  0  0  0  0  0  0  0  0
   34.6708    9.7989  -16.7824 F   0  0  0  0  0  0  0  0  0  0  0  0
 17 18  1  0  0  0
 18 19  1  0  0  0
 19 20  1  0  0  0
 20 21  2  0  0  0
 21 22  1  0  0  0
 22 16  1  0  0  0
 16  1  1  0  0  0
  1  2  1  0  0  0
  2  3  2  0  0  0
  3  4  1  0  0  0
  4  5  2  0  0  0
  5  6  1  0  0  0
  6  7  2  0  0  0
  5  8  1  0  0  0
  8  9  2  0  0  0
  8 10  1  0  0  0
 10 11  1  0  0  0
 11 12  1  0  0  0
 12 13  1  0  0  0
 13 14  1  0  0  0
 14 15  1  0  0  0
 21 23  1  0  0  0
 23 24  2  0  0  0
 24 25  1  0  0  0
 25 26  2  0  0  0
 26 27  1  0  0  0
 27 28  2  0  0  0
 28 29  1  0  0  0
 22 18  2  0  0  0
  7  2  1  0  0  0
 15 10  1  0  0  0
 28 23  1  0  0  0
M  END
> <minimizedAffinity>
-8.51902

> <CNNscore>
0.3797389865

> <CNNaffinity>
6.3505382538

> <CNN_VS>
2.4115469456

> <CNNaffinity_variance>
0.1195307150

$$$$
[H]c1nc(OC([H])([H])c2c(-c3c([H])c([H])c([H])c([H])c3F)noc2C([H])([H])[H])c([H])c([H])c1C(=O)N1C([H])([H])C([H])([H])OC([H])([H])C1([H])[H]


 29 32  0  0  0  0  0  0  0  0999 V2000
   39.2931   14.7063  -14.5809 O   0  0  0  0  0  0  0  0  0  0  0  0
   39.4062   15.1687  -13.2248 C   0  0  0  0  0  0  0  0  0  0  0  0
   40.4319   15.7762  -12.6454 C   0  0  0  0  0  0  0  0  0  0  0  0
   40.4184   16.1974  -11.2868 C   0  0  0  0  0  0  0  0  0  0  0  0
   39.3130   15.9703  -10.5242 C   0  0  0  0  0  0  0  0  0  0  0  0
   38.2178   15.3150  -11.1496 C   0  0  0  0  0  0  0  0  0  0  0  0
   38.3106   14.9638  -12.4095 N   0  0  0  0  0  0  0  0  0  0  0  0
   39.0236   16.4322   -9.2065 C   0  0  0  0  0  0  0  0  0  0  0  0
   39.4650   15.5737   -8.2815 O   0  0  0  0  0  0  0  0  0  0  0  0
   38.3839   17.5583   -8.6662 N   0  0  0  0  0  0  0  0  0  0  0  0
   37.7858   18.5780   -9.4198 C   0  0  0  0  0  0  0  0  0  0  0  0
   37.7402   19.9154   -8.7357 C   0  0  0  0  0  0  0  0  0  0  0  0
   38.0366   19.9029   -7.3974 O   0  0  0  0  0  0  0  0  0  0  0  0
   37.5796   18.7860   -6.7457 C   0  0  0  0  0  0  0  0  0  0  0  0
   38.3260   17.5663   -7.1999 C   0  0  0  0  0  0  0  0  0  0  0  0
   40.0463   13.4678  -14.7880 C   0  0  0  0  0  0  0  0  0  0  0  0
   41.1964   12.1207  -17.3784 C   0  0  0  0  0  0  0  0  0  0  0  0
   39.8156   12.0649  -16.9010 C   0  0  0  0  0  0  0  0  0  0  0  0
   38.8155   11.4901  -17.5175 O   0  0  0  0  0  0  0  0  0  0  0  0
   37.7378   11.5939  -16.8635 N   0  0  0  0  0  0  0  0  0  0  0  0
   37.9387   12.2932  -15.6847 C   0  0  0  0  0  0  0  0  0  0  0  0
   39.2757   12.5929  -15.7063 C   0  0  0  0  0  0  0  0  0  0  0  0
   36.8802   12.6854  -14.7915 C   0  0  0  0  0  0  0  0  0  0  0  0
   35.8524   13.5768  -15.1601 C   0  0  0  0  0  0  0  0  0  0  0  0
   34.7772   13.8821  -14.3324 C   0  0  0  0  0  0  0  0  0  0  0  0
   34.7036   13.2981  -13.0987 C   0  0  0  0  0  0  0  0  0  0  0  0
   35.6986   12.4018  -12.6814 C   0  0  0  0  0  0  0  0  0  0  0  0
   36.7520   12.1326  -13.5467 C   0  0  0  0  0  0  0  0  0  0  0  0
   37.7061   11.2497  -13.1203 F   0  0  0  0  0  0  0  0  0  0  0  0
 17 18  1  0  0  0
 18 19  1  0  0  0
 19 20  1  0  0  0
 20 21  2  0  0  0
 21 22  1  0  0  0
 22 16  1  0  0  0
 16  1  1  0  0  0
  1  2  1  0  0  0
  2  3  2  0  0  0
  3  4  1  0  0  0
  4  5  2  0  0  0
  5  6  1  0  0  0
  6  7  2  0  0  0
  5  8  1  0  0  0
  8  9  2  0  0  0
  8 10  1  0  0  0
 10 11  1  0  0  0
 11 12  1  0  0  0
 12 13  1  0  0  0
 13 14  1  0  0  0
 14 15  1  0  0  0
 21 23  1  0  0  0
 23 24  2  0  0  0
 24 25  1  0  0  0
 25 26  2  0  0  0
 26 27  1  0  0  0
 27 28  2  0  0  0
 28 29  1  0  0  0
 22 18  2  0  0  0
  7  2  1  0  0  0
 15 10  1  0  0  0
 28 23  1  0  0  0
M  END
> <minimizedAffinity>
-8.59293

> <CNNscore>
0.3508764505

> <CNNaffinity>
5.8667325974

> <CNN_VS>
2.0584983826

> <CNNaffinity_variance>
0.2548620999

$$$$
[H]c1nc(OC([H])([H])c2c(-c3c([H])c([H])c([H])c([H])c3F)noc2C([H])([H])[H])c([H])c([H])c1C(=O)N1C([H])([H])C([H])([H])OC([H])([H])C1([H])[H]


 29 32  0  0  0  0  0  0  0  0999 V2000
   39.3601   13.1246  -15.9784 O   0  0  0  0  0  0  0  0  0  0  0  0
   40.5339   13.4683  -15.2236 C   0  0  0  0  0  0  0  0  0  0  0  0
   41.7686   13.0084  -15.3677 C   0  0  0  0  0  0  0  0  0  0  0  0
   42.8565   13.4373  -14.5576 C   0  0  0  0  0  0  0  0  0  0  0  0
   42.6415   14.3580  -13.5772 C   0  0  0  0  0  0  0  0  0  0  0  0
   41.3150   14.8446  -13.4248 C   0  0  0  0  0  0  0  0  0  0  0  0
   40.3699   14.4001  -14.2177 N   0  0  0  0  0  0  0  0  0  0  0  0
   43.5940   15.0339  -12.7590 C   0  0  0  0  0  0  0  0  0  0  0  0
   44.6471   15.4430  -13.4739 O   0  0  0  0  0  0  0  0  0  0  0  0
   43.6831   15.3552  -11.3959 N   0  0  0  0  0  0  0  0  0  0  0  0
   42.7394   14.9930  -10.4245 C   0  0  0  0  0  0  0  0  0  0  0  0
   42.6758   15.9165   -9.2406 C   0  0  0  0  0  0  0  0  0  0  0  0
   43.7058   16.8153   -9.1387 O   0  0  0  0  0  0  0  0  0  0  0  0
   44.9140   16.3123   -9.5490 C   0  0  0  0  0  0  0  0  0  0  0  0
   44.9108   16.0708  -11.0298 C   0  0  0  0  0  0  0  0  0  0  0  0
   38.8483   11.8060  -15.5999 C   0  0  0  0  0  0  0  0  0  0  0  0
   37.3848   10.4176  -18.0036 C   0  0  0  0  0  0  0  0  0  0  0  0
   36.7676   11.2136  -16.9438 C   0  0  0  0  0  0  0  0  0  0  0  0
   35.5009   11.5291  -16.8628 O   0  0  0  0  0  0  0  0  0  0  0  0
   35.2534   12.2200  -15.8326 N   0  0  0  0  0  0  0  0  0  0  0  0
   36.4053   12.4413  -15.0957 C   0  0  0  0  0  0  0  0  0  0  0  0
   37.3788   11.7909  -15.8077 C   0  0  0  0  0  0  0  0  0  0  0  0
   36.4699   13.3001  -13.9422 C   0  0  0  0  0  0  0  0  0  0  0  0
   36.8686   14.6504  -14.0090 C   0  0  0  0  0  0  0  0  0  0  0  0
   36.8399   15.5071  -12.9137 C   0  0  0  0  0  0  0  0  0  0  0  0
   36.4086   15.0278  -11.7084 C   0  0  0  0  0  0  0  0  0  0  0  0
   35.9985   13.6920  -11.5857 C   0  0  0  0  0  0  0  0  0  0  0  0
   36.0484   12.8783  -12.7109 C   0  0  0  0  0  0  0  0  0  0  0  0
   35.6364   11.5816  -12.5681 F   0  0  0  0  0  0  0  0  0  0  0  0
 17 18  1  0  0  0
 18 19  1  0  0  0
 19 20  1  0  0  0
 20 21  2  0  0  0
 21 22  1  0  0  0
 22 16  1  0  0  0
 16  1  1  0  0  0
  1  2  1  0  0  0
  2  3  2  0  0  0
  3  4  1  0  0  0
  4  5  2  0  0  0
  5  6  1  0  0  0
  6  7  2  0  0  0
  5  8  1  0  0  0
  8  9  2  0  0  0
  8 10  1  0  0  0
 10 11  1  0  0  0
 11 12  1  0  0  0
 12 13  1  0  0  0
 13 14  1  0  0  0
 14 15  1  0  0  0
 21 23  1  0  0  0
 23 24  2  0  0  0
 24 25  1  0  0  0
 25 26  2  0  0  0
 26 27  1  0  0  0
 27 28  2  0  0  0
 28 29  1  0  0  0
 22 18  2  0  0  0
  7  2  1  0  0  0
 15 10  1  0  0  0
 28 23  1  0  0  0
M  END
> <minimizedAffinity>
-7.91187

> <CNNscore>
0.3244564235

> <CNNaffinity>
6.0999960899

> <CNN_VS>
1.9791829586

> <CNNaffinity_variance>
0.3259327710

$$$$
[H]O[C@@]1([H])C([H])([H])C([H])([H])C2([H])[C@]1(C([H])([H])[H])C([H])([H])C([H])([H])[C@@]1([H])[C@@]2([H])C([H])([H])C([H])([H])C2=C([H])C(=O)C([H])([H])C([H])([H])[C@@]21C([H])([H])[H]


 22 25  0  0  0  0  0  0  0  0999 V2000
   38.4514   17.1843   -8.8099 C   0  0  0  0  0  0  0  0  0  0  0  0
   38.0411   16.4352   -7.5383 C   0  0  0  0  0  0  0  0  0  0  0  0
   38.7426   17.0107   -6.3503 C   0  0  0  0  0  0  0  0  0  0  0  0
   40.1973   16.6064   -6.2645 C   0  0  0  0  0  0  0  0  0  0  0  0
   40.2573   15.1124   -6.2424 C   0  0  0  0  0  0  0  0  0  0  0  0
   39.5742   14.4459   -7.3783 C   0  0  0  0  0  0  0  0  0  0  0  0
   39.3703   12.9744   -6.9908 C   0  0  0  0  0  0  0  0  0  0  0  0
   40.7130   12.3124   -6.9131 C   0  0  0  0  0  0  0  0  0  0  0  0
   41.6759   13.1327   -6.1026 C   0  0  0  0  0  0  0  0  0  0  0  0
   42.5013   12.4451   -5.3184 C   0  0  0  0  0  0  0  0  0  0  0  0
   43.4823   13.1249   -4.4826 C   0  0  0  0  0  0  0  0  0  0  0  0
   44.0917   12.4995   -3.5657 O   0  0  0  0  0  0  0  0  0  0  0  0
   43.7260   14.5711   -4.7599 C   0  0  0  0  0  0  0  0  0  0  0  0
   42.3508   15.2099   -4.9750 C   0  0  0  0  0  0  0  0  0  0  0  0
   41.6901   14.6008   -6.1843 C   0  0  0  0  0  0  0  0  0  0  0  0
   42.4655   15.0449   -7.4044 C   0  0  0  0  0  0  0  0  0  0  0  0
   38.2642   14.9938   -7.7685 C   0  0  0  0  0  0  0  0  0  0  0  0
   37.0905   14.3315   -7.0527 C   0  0  0  0  0  0  0  0  0  0  0  0
   35.9465   15.2164   -7.5667 C   0  0  0  0  0  0  0  0  0  0  0  0
   36.5376   16.5969   -7.2912 C   0  0  0  0  0  0  0  0  0  0  0  0
   35.9728   17.5498   -8.1004 O   0  0  0  0  0  0  0  0  0  0  0  0
   35.9642   18.4552   -7.6922 H   0  0  0  0  0  0  0  0  0  0  0  0
  2  1  1  0  0  0
  2  3  1  0  0  0
  3  4  1  0  0  0
  4  5  1  0  0  0
  5  6  1  0  0  0
  6  7  1  0  0  0
  7  8  1  0  0  0
  8  9  1  0  0  0
  9 10  2  0  0  0
 10 11  1  0  0  0
 11 12  2  0  0  0
 11 13  1  0  0  0
 13 14  1  0  0  0
 14 15  1  0  0  0
 15 16  1  0  0  0
  6 17  1  0  0  0
 17 18  1  0  0  0
 18 19  1  0  0  0
 19 20  1  0  0  0
 20 21  1  0  0  0
 17  2  1  0  0  0
 20  2  1  0  0  0
 15  5  1  0  0  0
 15  9  1  0  0  0
 21 22  1  0  0  0
M  END
> <minimizedAffinity>
-4.38509

> <CNNscore>
0.6046932340

> <CNNaffinity>
4.7907247543

> <CNN_VS>
2.8969187737

> <CNNaffinity_variance>
0.1011726707

$$$$
[H]O[C@@]1([H])C([H])([H])C([H])([H])C2([H])[C@]1(C([H])([H])[H])C([H])([H])C([H])([H])[C@@]1([H])[C@@]2([H])C([H])([H])C([H])([H])C2=C([H])C(=O)C([H])([H])C([H])([H])[C@@]21C([H])([H])[H]


 22 25  0  0  0  0  0  0  0  0999 V2000
   35.9043   12.1322  -12.4676 C   0  0  0  0  0  0  0  0  0  0  0  0
   36.1929   13.3218  -13.3885 C   0  0  0  0  0  0  0  0  0  0  0  0
   35.4210   13.1889  -14.6617 C   0  0  0  0  0  0  0  0  0  0  0  0
   36.0030   12.1612  -15.6062 C   0  0  0  0  0  0  0  0  0  0  0  0
   37.4210   12.5455  -15.8844 C   0  0  0  0  0  0  0  0  0  0  0  0
   38.2674   12.7154  -14.6777 C   0  0  0  0  0  0  0  0  0  0  0  0
   39.5208   13.4933  -15.1030 C   0  0  0  0  0  0  0  0  0  0  0  0
   40.3320   12.6255  -16.0173 C   0  0  0  0  0  0  0  0  0  0  0  0
   39.4745   12.0195  -17.0918 C   0  0  0  0  0  0  0  0  0  0  0  0
   40.0317   11.9381  -18.2967 C   0  0  0  0  0  0  0  0  0  0  0  0
   39.3030   11.3697  -19.4233 C   0  0  0  0  0  0  0  0  0  0  0  0
   39.7307   11.5139  -20.6063 O   0  0  0  0  0  0  0  0  0  0  0  0
   38.0486   10.6223  -19.1141 C   0  0  0  0  0  0  0  0  0  0  0  0
   37.2931   11.4536  -18.0730 C   0  0  0  0  0  0  0  0  0  0  0  0
   38.1092   11.5519  -16.8104 C   0  0  0  0  0  0  0  0  0  0  0  0
   38.1509   10.1770  -16.1818 C   0  0  0  0  0  0  0  0  0  0  0  0
   37.6573   13.4306  -13.5443 C   0  0  0  0  0  0  0  0  0  0  0  0
   37.9030   14.9364  -13.5723 C   0  0  0  0  0  0  0  0  0  0  0  0
   37.0339   15.3585  -12.3795 C   0  0  0  0  0  0  0  0  0  0  0  0
   35.7395   14.6263  -12.7250 C   0  0  0  0  0  0  0  0  0  0  0  0
   34.9780   14.4079  -11.6050 O   0  0  0  0  0  0  0  0  0  0  0  0
   34.0042   14.3657  -11.7956 H   0  0  0  0  0  0  0  0  0  0  0  0
  2  1  1  0  0  0
  2  3  1  0  0  0
  3  4  1  0  0  0
  4  5  1  0  0  0
  5  6  1  0  0  0
  6  7  1  0  0  0
  7  8  1  0  0  0
  8  9  1  0  0  0
  9 10  2  0  0  0
 10 11  1  0  0  0
 11 12  2  0  0  0
 11 13  1  0  0  0
 13 14  1  0  0  0
 14 15  1  0  0  0
 15 16  1  0  0  0
  6 17  1  0  0  0
 17 18  1  0  0  0
 18 19  1  0  0  0
 19 20  1  0  0  0
 20 21  1  0  0  0
 17  2  1  0  0  0
 20  2  1  0  0  0
 15  5  1  0  0  0
 15  9  1  0  0  0
 21 22  1  0  0  0
M  END
> <minimizedAffinity>
-6.86957

> <CNNscore>
0.5912041068

> <CNNaffinity>
6.3648533821

> <CNN_VS>
3.7629275322

> <CNNaffinity_variance>
0.1694115698

$$$$
[H]O[C@@]1([H])C([H])([H])C([H])([H])C2([H])[C@]1(C([H])([H])[H])C([H])([H])C([H])([H])[C@@]1([H])[C@@]2([H])C([H])([H])C([H])([H])C2=C([H])C(=O)C([H])([H])C([H])([H])[C@@]21C([H])([H])[H]


 22 25  0  0  0  0  0  0  0  0999 V2000
   34.1483   14.9566   -4.9376 C   0  0  0  0  0  0  0  0  0  0  0  0
   34.7418   15.0621   -6.3459 C   0  0  0  0  0  0  0  0  0  0  0  0
   35.4618   13.8005   -6.6990 C   0  0  0  0  0  0  0  0  0  0  0  0
   36.8028   13.6684   -6.0126 C   0  0  0  0  0  0  0  0  0  0  0  0
   37.6229   14.8652   -6.3745 C   0  0  0  0  0  0  0  0  0  0  0  0
   36.9848   16.1704   -6.0736 C   0  0  0  0  0  0  0  0  0  0  0  0
   37.7433   17.2447   -6.8655 C   0  0  0  0  0  0  0  0  0  0  0  0
   39.1285   17.3604   -6.3043 C   0  0  0  0  0  0  0  0  0  0  0  0
   39.7663   16.0087   -6.1517 C   0  0  0  0  0  0  0  0  0  0  0  0
   41.0624   15.9465   -6.4435 C   0  0  0  0  0  0  0  0  0  0  0  0
   41.7962   14.6922   -6.3354 C   0  0  0  0  0  0  0  0  0  0  0  0
   42.9516   14.5760   -6.8403 O   0  0  0  0  0  0  0  0  0  0  0  0
   41.1257   13.5726   -5.6111 C   0  0  0  0  0  0  0  0  0  0  0  0
   39.6718   13.5533   -6.0919 C   0  0  0  0  0  0  0  0  0  0  0  0
   38.9911   14.8411   -5.7069 C   0  0  0  0  0  0  0  0  0  0  0  0
   38.8507   14.8545   -4.2012 C   0  0  0  0  0  0  0  0  0  0  0  0
   35.5552   16.2931   -6.4048 C   0  0  0  0  0  0  0  0  0  0  0  0
   35.3006   16.8228   -7.8130 C   0  0  0  0  0  0  0  0  0  0  0  0
   33.7730   16.6822   -7.8658 C   0  0  0  0  0  0  0  0  0  0  0  0
   33.6243   15.2430   -7.3784 C   0  0  0  0  0  0  0  0  0  0  0  0
   32.3787   15.0246   -6.8466 O   0  0  0  0  0  0  0  0  0  0  0  0
   32.0748   14.0831   -6.9347 H   0  0  0  0  0  0  0  0  0  0  0  0
  2  1  1  0  0  0
  2  3  1  0  0  0
  3  4  1  0  0  0
  4  5  1  0  0  0
  5  6  1  0  0  0
  6  7  1  0  0  0
  7  8  1  0  0  0
  8  9  1  0  0  0
  9 10  2  0  0  0
 10 11  1  0  0  0
 11 12  2  0  0  0
 11 13  1  0  0  0
 13 14  1  0  0  0
 14 15  1  0  0  0
 15 16  1  0  0  0
  6 17  1  0  0  0
 17 18  1  0  0  0
 18 19  1  0  0  0
 19 20  1  0  0  0
 20 21  1  0  0  0
 17  2  1  0  0  0
 20  2  1  0  0  0
 15  5  1  0  0  0
 15  9  1  0  0  0
 21 22  1  0  0  0
M  END
> <minimizedAffinity>
-4.34652

> <CNNscore>
0.5764200687

> <CNNaffinity>
4.9412398338

> <CNN_VS>
2.8482298851

> <CNNaffinity_variance>
0.1622072011

$$$$
[H]O[C@@]1([H])C([H])([H])C([H])([H])C2([H])[C@]1(C([H])([H])[H])C([H])([H])C([H])([H])[C@@]1([H])[C@@]2([H])C([H])([H])C([H])([H])C2=C([H])C(=O)C([H])([H])C([H])([H])[C@@]21C([H])([H])[H]


 22 25  0  0  0  0  0  0  0  0999 V2000
   39.1497   15.6575   -4.7149 C   0  0  0  0  0  0  0  0  0  0  0  0
   39.2280   15.1166   -6.1459 C   0  0  0  0  0  0  0  0  0  0  0  0
   39.2138   13.6219   -6.1349 C   0  0  0  0  0  0  0  0  0  0  0  0
   40.5316   13.0173   -5.7052 C   0  0  0  0  0  0  0  0  0  0  0  0
   41.5929   13.5299   -6.6254 C   0  0  0  0  0  0  0  0  0  0  0  0
   41.6770   15.0085   -6.7151 C   0  0  0  0  0  0  0  0  0  0  0  0
   42.4929   15.3457   -7.9710 C   0  0  0  0  0  0  0  0  0  0  0  0
   43.9067   14.8969   -7.7547 C   0  0  0  0  0  0  0  0  0  0  0  0
   43.9548   13.4883   -7.2344 C   0  0  0  0  0  0  0  0  0  0  0  0
   44.9363   12.7297   -7.7142 C   0  0  0  0  0  0  0  0  0  0  0  0
   45.0907   11.3449   -7.2878 C   0  0  0  0  0  0  0  0  0  0  0  0
   45.8594   10.5590   -7.9162 O   0  0  0  0  0  0  0  0  0  0  0  0
   44.3090   10.9103   -6.0930 C   0  0  0  0  0  0  0  0  0  0  0  0
   42.9023   11.4929   -6.2588 C   0  0  0  0  0  0  0  0  0  0  0  0
   42.9713   12.9979   -6.2576 C   0  0  0  0  0  0  0  0  0  0  0  0
   43.3595   13.4392   -4.8642 C   0  0  0  0  0  0  0  0  0  0  0  0
   40.3984   15.7339   -6.8012 C   0  0  0  0  0  0  0  0  0  0  0  0
   39.9257   15.9648   -8.2337 C   0  0  0  0  0  0  0  0  0  0  0  0
   38.5501   16.5846   -7.9512 C   0  0  0  0  0  0  0  0  0  0  0  0
   38.0047   15.5693   -6.9499 C   0  0  0  0  0  0  0  0  0  0  0  0
   37.0329   16.1257   -6.1573 O   0  0  0  0  0  0  0  0  0  0  0  0
   36.3645   15.4654   -5.8355 H   0  0  0  0  0  0  0  0  0  0  0  0
  2  1  1  0  0  0
  2  3  1  0  0  0
  3  4  1  0  0  0
  4  5  1  0  0  0
  5  6  1  0  0  0
  6  7  1  0  0  0
  7  8  1  0  0  0
  8  9  1  0  0  0
  9 10  2  0  0  0
 10 11  1  0  0  0
 11 12  2  0  0  0
 11 13  1  0  0  0
 13 14  1  0  0  0
 14 15  1  0  0  0
 15 16  1  0  0  0
  6 17  1  0  0  0
 17 18  1  0  0  0
 18 19  1  0  0  0
 19 20  1  0  0  0
 20 21  1  0  0  0
 17  2  1  0  0  0
 20  2  1  0  0  0
 15  5  1  0  0  0
 15  9  1  0  0  0
 21 22  1  0  0  0
M  END
> <minimizedAffinity>
-4.32139

> <CNNscore>
0.5470346212

> <CNNaffinity>
4.5029873848

> <CNN_VS>
2.4632899761

> <CNNaffinity_variance>
0.0073864236

$$$$
[H]O[C@@]1([H])C([H])([H])C([H])([H])C2([H])[C@]1(C([H])([H])[H])C([H])([H])C([H])([H])[C@@]1([H])[C@@]2([H])C([H])([H])C([H])([H])C2=C([H])C(=O)C([H])([H])C([H])([H])[C@@]21C([H])([H])[H]


 22 25  0  0  0  0  0  0  0  0999 V2000
   46.8012    9.4275  -11.1050 C   0  0  0  0  0  0  0  0  0  0  0  0
   47.3298   10.7992  -10.6739 C   0  0  0  0  0  0  0  0  0  0  0  0
   48.1350   10.6722   -9.4208 C   0  0  0  0  0  0  0  0  0  0  0  0
   47.2858   10.4762   -8.1850 C   0  0  0  0  0  0  0  0  0  0  0  0
   46.3393   11.6300   -8.0914 C   0  0  0  0  0  0  0  0  0  0  0  0
   45.5022   11.8468   -9.2970 C   0  0  0  0  0  0  0  0  0  0  0  0
   44.9216   13.2649   -9.2028 C   0  0  0  0  0  0  0  0  0  0  0  0
   43.9563   13.3086   -8.0568 C   0  0  0  0  0  0  0  0  0  0  0  0
   44.5561   12.7039   -6.8192 C   0  0  0  0  0  0  0  0  0  0  0  0
   44.2582   13.3151   -5.6761 C   0  0  0  0  0  0  0  0  0  0  0  0
   44.7782   12.8255   -4.4061 C   0  0  0  0  0  0  0  0  0  0  0  0
   44.7008   13.5363   -3.3610 O   0  0  0  0  0  0  0  0  0  0  0  0
   45.3957   11.4667   -4.4028 C   0  0  0  0  0  0  0  0  0  0  0  0
   46.2732   11.3853   -5.6554 C   0  0  0  0  0  0  0  0  0  0  0  0
   45.4151   11.5124   -6.8872 C   0  0  0  0  0  0  0  0  0  0  0  0
   44.5654   10.2653   -6.9861 C   0  0  0  0  0  0  0  0  0  0  0  0
   46.1817   11.7247  -10.5977 C   0  0  0  0  0  0  0  0  0  0  0  0
   46.7510   13.0436  -11.1125 C   0  0  0  0  0  0  0  0  0  0  0  0
   47.4877   12.5338  -12.3589 C   0  0  0  0  0  0  0  0  0  0  0  0
   48.2620   11.3681  -11.7485 C   0  0  0  0  0  0  0  0  0  0  0  0
   48.5931   10.4383  -12.7012 O   0  0  0  0  0  0  0  0  0  0  0  0
   49.4239    9.9376  -12.4877 H   0  0  0  0  0  0  0  0  0  0  0  0
  2  1  1  0  0  0
  2  3  1  0  0  0
  3  4  1  0  0  0
  4  5  1  0  0  0
  5  6  1  0  0  0
  6  7  1  0  0  0
  7  8  1  0  0  0
  8  9  1  0  0  0
  9 10  2  0  0  0
 10 11  1  0  0  0
 11 12  2  0  0  0
 11 13  1  0  0  0
 13 14  1  0  0  0
 14 15  1  0  0  0
 15 16  1  0  0  0
  6 17  1  0  0  0
 17 18  1  0  0  0
 18 19  1  0  0  0
 19 20  1  0  0  0
 20 21  1  0  0  0
 17  2  1  0  0  0
 20  2  1  0  0  0
 15  5  1  0  0  0
 15  9  1  0  0  0
 21 22  1  0  0  0
M  END
> <minimizedAffinity>
-4.26392

> <CNNscore>
0.4712645710

> <CNNaffinity>
4.5442481041

> <CNN_VS>
2.1415431499

> <CNNaffinity_variance>
0.0774973258

$$$$
[H]O[C@@]1([H])C([H])([H])C([H])([H])C2([H])[C@]1(C([H])([H])[H])C([H])([H])C([H])([H])[C@@]1([H])[C@@]2([H])C([H])([H])C([H])([H])C2=C([H])C(=O)C([H])([H])C([H])([H])[C@@]21C([H])([H])[H]


 22 25  0  0  0  0  0  0  0  0999 V2000
   34.6344   15.9113  -10.1580 C   0  0  0  0  0  0  0  0  0  0  0  0
   34.6214   16.0512   -8.6325 C   0  0  0  0  0  0  0  0  0  0  0  0
   35.4269   17.2394   -8.2156 C   0  0  0  0  0  0  0  0  0  0  0  0
   36.9187   17.0075   -8.3028 C   0  0  0  0  0  0  0  0  0  0  0  0
   37.2484   15.8206   -7.4551 C   0  0  0  0  0  0  0  0  0  0  0  0
   36.4872   14.5905   -7.7847 C   0  0  0  0  0  0  0  0  0  0  0  0
   36.6298   13.6308   -6.5949 C   0  0  0  0  0  0  0  0  0  0  0  0
   38.0581   13.1835   -6.5129 C   0  0  0  0  0  0  0  0  0  0  0  0
   38.9981   14.3524   -6.5982 C   0  0  0  0  0  0  0  0  0  0  0  0
   40.0703   14.2886   -5.8138 C   0  0  0  0  0  0  0  0  0  0  0  0
   41.0578   15.3600   -5.8046 C   0  0  0  0  0  0  0  0  0  0  0  0
   41.9365   15.4187   -4.8949 O   0  0  0  0  0  0  0  0  0  0  0  0
   40.9797   16.3659   -6.9044 C   0  0  0  0  0  0  0  0  0  0  0  0
   39.4972   16.7120   -7.0720 C   0  0  0  0  0  0  0  0  0  0  0  0
   38.7330   15.4853   -7.4973 C   0  0  0  0  0  0  0  0  0  0  0  0
   39.1627   15.1413   -8.9059 C   0  0  0  0  0  0  0  0  0  0  0  0
   35.0497   14.7616   -8.0547 C   0  0  0  0  0  0  0  0  0  0  0  0
   34.1764   14.6193   -6.8114 C   0  0  0  0  0  0  0  0  0  0  0  0
   32.8144   14.9928   -7.4127 C   0  0  0  0  0  0  0  0  0  0  0  0
   33.1910   16.2840   -8.1352 C   0  0  0  0  0  0  0  0  0  0  0  0
   32.3176   16.5540   -9.1581 O   0  0  0  0  0  0  0  0  0  0  0  0
   32.2270   17.5242   -9.3499 H   0  0  0  0  0  0  0  0  0  0  0  0
  2  1  1  0  0  0
  2  3  1  0  0  0
  3  4  1  0  0  0
  4  5  1  0  0  0
  5  6  1  0  0  0
  6  7  1  0  0  0
  7  8  1  0  0  0
  8  9  1  0  0  0
  9 10  2  0  0  0
 10 11  1  0  0  0
 11 12  2  0  0  0
 11 13  1  0  0  0
 13 14  1  0  0  0
 14 15  1  0  0  0
 15 16  1  0  0  0
  6 17  1  0  0  0
 17 18  1  0  0  0
 18 19  1  0  0  0
 19 20  1  0  0  0
 20 21  1  0  0  0
 17  2  1  0  0  0
 20  2  1  0  0  0
 15  5  1  0  0  0
 15  9  1  0  0  0
 21 22  1  0  0  0
M  END
> <minimizedAffinity>
-5.37499

> <CNNscore>
0.4353798628

> <CNNaffinity>
4.9227585793

> <CNN_VS>
2.1432700157

> <CNNaffinity_variance>
0.1446186453

$$$$
[H]O[C@@]1([H])C([H])([H])C([H])([H])C2([H])[C@]1(C([H])([H])[H])C([H])([H])C([H])([H])[C@@]1([H])[C@@]2([H])C([H])([H])C([H])([H])C2=C([H])C(=O)C([H])([H])C([H])([H])[C@@]21C([H])([H])[H]


 22 25  0  0  0  0  0  0  0  0999 V2000
   44.6746   14.9426  -14.2552 C   0  0  0  0  0  0  0  0  0  0  0  0
   45.4974   15.7867  -13.2769 C   0  0  0  0  0  0  0  0  0  0  0  0
   46.6043   14.9690  -12.6930 C   0  0  0  0  0  0  0  0  0  0  0  0
   46.1310   13.9917  -11.6406 C   0  0  0  0  0  0  0  0  0  0  0  0
   45.4289   14.7705  -10.5745 C   0  0  0  0  0  0  0  0  0  0  0  0
   44.3186   15.6269  -11.0592 C   0  0  0  0  0  0  0  0  0  0  0  0
   44.0010   16.6378   -9.9482 C   0  0  0  0  0  0  0  0  0  0  0  0
   43.4264   15.8955   -8.7796 C   0  0  0  0  0  0  0  0  0  0  0  0
   44.2656   14.6990   -8.4314 C   0  0  0  0  0  0  0  0  0  0  0  0
   44.4033   14.4495   -7.1322 C   0  0  0  0  0  0  0  0  0  0  0  0
   45.1931   13.3175   -6.6653 C   0  0  0  0  0  0  0  0  0  0  0  0
   45.5252   13.2221   -5.4473 O   0  0  0  0  0  0  0  0  0  0  0  0
   45.5823   12.2953   -7.6808 C   0  0  0  0  0  0  0  0  0  0  0  0
   46.0375   13.0679   -8.9224 C   0  0  0  0  0  0  0  0  0  0  0  0
   44.8868   13.8687   -9.4739 C   0  0  0  0  0  0  0  0  0  0  0  0
   43.8744   12.8941  -10.0327 C   0  0  0  0  0  0  0  0  0  0  0  0
   44.5667   16.3834  -12.2980 C   0  0  0  0  0  0  0  0  0  0  0  0
   45.1462   17.7741  -12.0554 C   0  0  0  0  0  0  0  0  0  0  0  0
   45.4083   18.1976  -13.5073 C   0  0  0  0  0  0  0  0  0  0  0  0
   46.1498   16.9621  -14.0120 C   0  0  0  0  0  0  0  0  0  0  0  0
   46.0528   16.8468  -15.3755 O   0  0  0  0  0  0  0  0  0  0  0  0
   46.8285   16.3812  -15.7854 H   0  0  0  0  0  0  0  0  0  0  0  0
  2  1  1  0  0  0
  2  3  1  0  0  0
  3  4  1  0  0  0
  4  5  1  0  0  0
  5  6  1  0  0  0
  6  7  1  0  0  0
  7  8  1  0  0  0
  8  9  1  0  0  0
  9 10  2  0  0  0
 10 11  1  0  0  0
 11 12  2  0  0  0
 11 13  1  0  0  0
 13 14  1  0  0  0
 14 15  1  0  0  0
 15 16  1  0  0  0
  6 17  1  0  0  0
 17 18  1  0  0  0
 18 19  1  0  0  0
 19 20  1  0  0  0
 20 21  1  0  0  0
 17  2  1  0  0  0
 20  2  1  0  0  0
 15  5  1  0  0  0
 15  9  1  0  0  0
 21 22  1  0  0  0
M  END
> <minimizedAffinity>
-4.26541

> <CNNscore>
0.4248175025

> <CNNaffinity>
4.6826028824

> <CNN_VS>
1.9892516136

> <CNNaffinity_variance>
0.0817662701

$$$$
[H]O[C@@]1([H])C([H])([H])C([H])([H])C2([H])[C@]1(C([H])([H])[H])C([H])([H])C([H])([H])[C@@]1([H])[C@@]2([H])C([H])([H])C([H])([H])C2=C([H])C(=O)C([H])([H])C([H])([H])[C@@]21C([H])([H])[H]


 22 25  0  0  0  0  0  0  0  0999 V2000
   34.3466   11.8783  -13.5290 C   0  0  0  0  0  0  0  0  0  0  0  0
   34.8039   13.2817  -13.9390 C   0  0  0  0  0  0  0  0  0  0  0  0
   35.1491   13.3084  -15.3932 C   0  0  0  0  0  0  0  0  0  0  0  0
   36.4769   12.6538  -15.7019 C   0  0  0  0  0  0  0  0  0  0  0  0
   37.5282   13.3468  -14.8954 C   0  0  0  0  0  0  0  0  0  0  0  0
   37.2675   13.3846  -13.4353 C   0  0  0  0  0  0  0  0  0  0  0  0
   38.1861   14.4573  -12.8334 C   0  0  0  0  0  0  0  0  0  0  0  0
   39.6054   13.9907  -12.9543 C   0  0  0  0  0  0  0  0  0  0  0  0
   39.8996   13.5037  -14.3448 C   0  0  0  0  0  0  0  0  0  0  0  0
   41.1038   13.8087  -14.8199 C   0  0  0  0  0  0  0  0  0  0  0  0
   41.5101   13.3935  -16.1562 C   0  0  0  0  0  0  0  0  0  0  0  0
   42.5440   13.8850  -16.6973 O   0  0  0  0  0  0  0  0  0  0  0  0
   40.6584   12.3766  -16.8405 C   0  0  0  0  0  0  0  0  0  0  0  0
   39.2047   12.7893  -16.5916 C   0  0  0  0  0  0  0  0  0  0  0  0
   38.9072   12.7400  -15.1155 C   0  0  0  0  0  0  0  0  0  0  0  0
   38.9256   11.2887  -14.6910 C   0  0  0  0  0  0  0  0  0  0  0  0
   35.8875   13.6916  -13.0234 C   0  0  0  0  0  0  0  0  0  0  0  0
   35.6330   15.1814  -12.8128 C   0  0  0  0  0  0  0  0  0  0  0  0
   34.1210   15.1471  -12.5508 C   0  0  0  0  0  0  0  0  0  0  0  0
   33.6690   14.2896  -13.7303 C   0  0  0  0  0  0  0  0  0  0  0  0
   32.4677   13.6802  -13.4703 O   0  0  0  0  0  0  0  0  0  0  0  0
   31.9324   13.5048  -14.2882 H   0  0  0  0  0  0  0  0  0  0  0  0
  2  1  1  0  0  0
  2  3  1  0  0  0
  3  4  1  0  0  0
  4  5  1  0  0  0
  5  6  1  0  0  0
  6  7  1  0  0  0
  7  8  1  0  0  0
  8  9  1  0  0  0
  9 10  2  0  0  0
 10 11  1  0  0  0
 11 12  2  0  0  0
 11 13  1  0  0  0
 13 14  1  0  0  0
 14 15  1  0  0  0
 15 16  1  0  0  0
  6 17  1  0  0  0
 17 18  1  0  0  0
 18 19  1  0  0  0
 19 20  1  0  0  0
 20 21  1  0  0  0
 17  2  1  0  0  0
 20  2  1  0  0  0
 15  5  1  0  0  0
 15  9  1  0  0  0
 21 22  1  0  0  0
M  END
> <minimizedAffinity>
-5.29114

> <CNNscore>
0.4103510082

> <CNNaffinity>
6.1994714737

> <CNN_VS>
2.5439593792

> <CNNaffinity_variance>
0.3685511053

$$$$
[H]O[C@@]1([H])C([H])([H])C([H])([H])C2([H])[C@]1(C([H])([H])[H])C([H])([H])C([H])([H])[C@@]1([H])[C@@]2([H])C([H])([H])C([H])([H])C2=C([H])C(=O)C([H])([H])C([H])([H])[C@@]21C([H])([H])[H]


 22 25  0  0  0  0  0  0  0  0999 V2000
   34.9054    9.2949  -16.7497 C   0  0  0  0  0  0  0  0  0  0  0  0
   34.9756   10.8246  -16.7921 C   0  0  0  0  0  0  0  0  0  0  0  0
   35.7056   11.2747  -18.0165 C   0  0  0  0  0  0  0  0  0  0  0  0
   37.2031   11.0878  -17.9191 C   0  0  0  0  0  0  0  0  0  0  0  0
   37.6806   11.8333  -16.7140 C   0  0  0  0  0  0  0  0  0  0  0  0
   37.0034   11.4649  -15.4463 C   0  0  0  0  0  0  0  0  0  0  0  0
   37.2975   12.5771  -14.4297 C   0  0  0  0  0  0  0  0  0  0  0  0
   38.7599   12.5477  -14.1021 C   0  0  0  0  0  0  0  0  0  0  0  0
   39.5942   12.4887  -15.3501 C   0  0  0  0  0  0  0  0  0  0  0  0
   40.7145   13.2051  -15.3293 C   0  0  0  0  0  0  0  0  0  0  0  0
   41.6099   13.2308  -16.4786 C   0  0  0  0  0  0  0  0  0  0  0  0
   42.5356   14.0913  -16.5552 O   0  0  0  0  0  0  0  0  0  0  0  0
   41.3818   12.2077  -17.5411 C   0  0  0  0  0  0  0  0  0  0  0  0
   39.8684   12.1480  -17.7688 C   0  0  0  0  0  0  0  0  0  0  0  0
   39.1821   11.6847  -16.5102 C   0  0  0  0  0  0  0  0  0  0  0  0
   39.5503   10.2340  -16.2932 C   0  0  0  0  0  0  0  0  0  0  0  0
   35.5428   11.2888  -15.5103 C   0  0  0  0  0  0  0  0  0  0  0  0
   34.7629   12.5670  -15.2162 C   0  0  0  0  0  0  0  0  0  0  0  0
   33.3402   12.0703  -15.5087 C   0  0  0  0  0  0  0  0  0  0  0  0
   33.5646   11.4166  -16.8701 C   0  0  0  0  0  0  0  0  0  0  0  0
   32.6103   10.4654  -17.1278 O   0  0  0  0  0  0  0  0  0  0  0  0
   32.4290   10.3450  -18.0969 H   0  0  0  0  0  0  0  0  0  0  0  0
  2  1  1  0  0  0
  2  3  1  0  0  0
  3  4  1  0  0  0
  4  5  1  0  0  0
  5  6  1  0  0  0
  6  7  1  0  0  0
  7  8  1  0  0  0
  8  9  1  0  0  0
  9 10  2  0  0  0
 10 11  1  0  0  0
 11 12  2  0  0  0
 11 13  1  0  0  0
 13 14  1  0  0  0
 14 15  1  0  0  0
 15 16  1  0  0  0
  6 17  1  0  0  0
 17 18  1  0  0  0
 18 19  1  0  0  0
 19 20  1  0  0  0
 20 21  1  0  0  0
 17  2  1  0  0  0
 20  2  1  0  0  0
 15  5  1  0  0  0
 15  9  1  0  0  0
 21 22  1  0  0  0
M  END
> <minimizedAffinity>
-5.31841

> <CNNscore>
0.4082375169

> <CNNaffinity>
6.3330297470

> <CNN_VS>
2.5853803158

> <CNNaffinity_variance>
0.2522657514

$$$$
[H]C1=C(C(=O)[O-])N2C(=O)/C(=C(\[H])c3sc4c(c3[H])C([H])([H])C(=O)C([H])([H])C4([H])[H])[C@@]2([H])S1


 22 25  0  0  0  0  0  0  0  0999 V2000
   38.4974   11.3278  -17.4208 C   0  0  0  0  0  0  0  0  0  0  0  0
   39.4545   11.5405  -16.5644 C   0  0  0  0  0  0  0  0  0  0  0  0
   38.6040   11.9432  -15.0119 S   0  0  0  0  0  0  0  0  0  0  0  0
   37.0781   12.4996  -15.8913 C   0  0  0  0  0  0  0  0  0  0  0  0
   37.1780   11.4347  -16.9290 N   0  0  0  0  0  0  0  0  0  0  0  0
   35.7836   11.2176  -16.7102 C   0  0  0  0  0  0  0  0  0  0  0  0
   34.9334   10.5758  -17.3793 O   0  0  0  0  0  0  0  0  0  0  0  0
   35.8126   12.0092  -15.4682 C   0  0  0  0  0  0  0  0  0  0  0  0
   34.9424   12.1375  -14.4987 C   0  0  0  0  0  0  0  0  0  0  0  0
   35.0871   13.0191  -13.3481 C   0  0  0  0  0  0  0  0  0  0  0  0
   36.0677   13.2112  -12.4404 C   0  0  0  0  0  0  0  0  0  0  0  0
   35.8851   14.1615  -11.4942 C   0  0  0  0  0  0  0  0  0  0  0  0
   36.8686   14.5209  -10.3836 C   0  0  0  0  0  0  0  0  0  0  0  0
   36.0413   14.9543   -9.2298 C   0  0  0  0  0  0  0  0  0  0  0  0
   35.9952   14.3708   -8.1568 O   0  0  0  0  0  0  0  0  0  0  0  0
   35.2382   16.1970   -9.4746 C   0  0  0  0  0  0  0  0  0  0  0  0
   34.3105   15.9558  -10.5968 C   0  0  0  0  0  0  0  0  0  0  0  0
   34.7362   14.8623  -11.5119 C   0  0  0  0  0  0  0  0  0  0  0  0
   33.9067   14.1871  -12.8567 S   0  0  0  0  0  0  0  0  0  0  0  0
   40.0729   11.0467  -19.3487 O   0  0  0  0  0  0  0  0  0  0  0  0
   38.7834   10.9699  -18.8296 C   0  0  0  0  0  0  0  0  0  0  0  0
   37.8864   10.5851  -19.6154 O   0  0  0  0  0  0  0  0  0  0  0  0
 20 21  1  0  0  0
 21 22  2  0  0  0
 21  1  1  0  0  0
  1  2  2  0  0  0
  2  3  1  0  0  0
  3  4  1  0  0  0
  4  5  1  0  0  0
  5  6  1  0  0  0
  6  7  2  0  0  0
  6  8  1  0  0  0
  8  9  2  0  0  0
  9 10  1  0  0  0
 10 11  2  0  0  0
 11 12  1  0  0  0
 12 13  1  0  0  0
 13 14  1  0  0  0
 14 15  2  0  0  0
 14 16  1  0  0  0
 16 17  1  0  0  0
 17 18  1  0  0  0
 18 19  1  0  0  0
  5  1  1  0  0  0
 19 10  1  0  0  0
  8  4  1  0  0  0
 18 12  2  0  0  0
M  CHG 1  20  -1
M  END
> <minimizedAffinity>
-7.53448

> <CNNscore>
0.3778728545

> <CNNaffinity>
5.9789514542

> <CNN_VS>
2.2592835426

> <CNNaffinity_variance>
0.1243530735

$$$$
[H]C1=C(C(=O)[O-])N2C(=O)/C(=C(\[H])c3sc4c(c3[H])C([H])([H])C(=O)C([H])([H])C4([H])[H])[C@@]2([H])S1


 22 25  0  0  0  0  0  0  0  0999 V2000
   35.4152   11.3543  -16.2808 C   0  0  0  0  0  0  0  0  0  0  0  0
   35.1894   12.2744  -15.3879 C   0  0  0  0  0  0  0  0  0  0  0  0
   36.7814   13.1235  -15.1870 S   0  0  0  0  0  0  0  0  0  0  0  0
   37.7360   11.6591  -15.7832 C   0  0  0  0  0  0  0  0  0  0  0  0
   36.7214   11.3032  -16.8150 N   0  0  0  0  0  0  0  0  0  0  0  0
   37.8215   11.1465  -17.7119 C   0  0  0  0  0  0  0  0  0  0  0  0
   37.8905   10.6099  -18.8475 O   0  0  0  0  0  0  0  0  0  0  0  0
   38.7320   11.8367  -16.7819 C   0  0  0  0  0  0  0  0  0  0  0  0
   39.9394   12.3161  -16.9430 C   0  0  0  0  0  0  0  0  0  0  0  0
   40.7501   12.9256  -15.8973 C   0  0  0  0  0  0  0  0  0  0  0  0
   40.4578   13.6533  -14.7984 C   0  0  0  0  0  0  0  0  0  0  0  0
   41.4792   14.0454  -14.0016 C   0  0  0  0  0  0  0  0  0  0  0  0
   41.3534   14.8747  -12.7264 C   0  0  0  0  0  0  0  0  0  0  0  0
   42.5960   15.6820  -12.6399 C   0  0  0  0  0  0  0  0  0  0  0  0
   42.6304   16.9025  -12.6957 O   0  0  0  0  0  0  0  0  0  0  0  0
   43.8494   14.8753  -12.4740 C   0  0  0  0  0  0  0  0  0  0  0  0
   44.0027   13.9815  -13.6384 C   0  0  0  0  0  0  0  0  0  0  0  0
   42.7290   13.6870  -14.3493 C   0  0  0  0  0  0  0  0  0  0  0  0
   42.4744   12.7998  -15.7986 S   0  0  0  0  0  0  0  0  0  0  0  0
   33.1768   10.9007  -17.3114 O   0  0  0  0  0  0  0  0  0  0  0  0
   34.3483   10.4281  -16.7261 C   0  0  0  0  0  0  0  0  0  0  0  0
   34.4471    9.1855  -16.5978 O   0  0  0  0  0  0  0  0  0  0  0  0
 20 21  1  0  0  0
 21 22  2  0  0  0
 21  1  1  0  0  0
  1  2  2  0  0  0
  2  3  1  0  0  0
  3  4  1  0  0  0
  4  5  1  0  0  0
  5  6  1  0  0  0
  6  7  2  0  0  0
  6  8  1  0  0  0
  8  9  2  0  0  0
  9 10  1  0  0  0
 10 11  2  0  0  0
 11 12  1  0  0  0
 12 13  1  0  0  0
 13 14  1  0  0  0
 14 15  2  0  0  0
 14 16  1  0  0  0
 16 17  1  0  0  0
 17 18  1  0  0  0
 18 19  1  0  0  0
  5  1  1  0  0  0
 19 10  1  0  0  0
  8  4  1  0  0  0
 18 12  2  0  0  0
M  CHG 1  20  -1
M  END
> <minimizedAffinity>
-7.89201

> <CNNscore>
0.3472777903

> <CNNaffinity>
6.2015876770

> <CNN_VS>
2.1536736488

> <CNNaffinity_variance>
0.1855887175

$$$$
[H]C1=C(C(=O)[O-])N2C(=O)/C(=C(\[H])c3sc4c(c3[H])C([H])([H])C(=O)C([H])([H])C4([H])[H])[C@@]2([H])S1


 22 25  0  0  0  0  0  0  0  0999 V2000
   35.0278   15.8560  -10.6047 C   0  0  0  0  0  0  0  0  0  0  0  0
   36.2103   16.3295  -10.8735 C   0  0  0  0  0  0  0  0  0  0  0  0
   36.6357   15.6196  -12.4893 S   0  0  0  0  0  0  0  0  0  0  0  0
   35.4880   14.1906  -12.2605 C   0  0  0  0  0  0  0  0  0  0  0  0
   34.4495   15.0161  -11.5815 N   0  0  0  0  0  0  0  0  0  0  0  0
   33.5061   14.3674  -12.4350 C   0  0  0  0  0  0  0  0  0  0  0  0
   32.2502   14.3139  -12.3869 O   0  0  0  0  0  0  0  0  0  0  0  0
   34.5807   13.8527  -13.3014 C   0  0  0  0  0  0  0  0  0  0  0  0
   34.5514   13.3034  -14.4892 C   0  0  0  0  0  0  0  0  0  0  0  0
   35.7079   12.7796  -15.2036 C   0  0  0  0  0  0  0  0  0  0  0  0
   37.0404   12.9485  -15.0682 C   0  0  0  0  0  0  0  0  0  0  0  0
   37.8588   12.2672  -15.9035 C   0  0  0  0  0  0  0  0  0  0  0  0
   39.3839   12.3298  -15.9121 C   0  0  0  0  0  0  0  0  0  0  0  0
   39.7932   12.1239  -17.3240 C   0  0  0  0  0  0  0  0  0  0  0  0
   40.3692   12.9607  -18.0037 O   0  0  0  0  0  0  0  0  0  0  0  0
   39.4420   10.7766  -17.8814 C   0  0  0  0  0  0  0  0  0  0  0  0
   37.9770   10.6043  -17.8335 C   0  0  0  0  0  0  0  0  0  0  0  0
   37.2981   11.4589  -16.8219 C   0  0  0  0  0  0  0  0  0  0  0  0
   35.6185   11.6548  -16.5172 S   0  0  0  0  0  0  0  0  0  0  0  0
   34.9332   16.9697   -8.3622 O   0  0  0  0  0  0  0  0  0  0  0  0
   34.3213   16.2021   -9.3494 C   0  0  0  0  0  0  0  0  0  0  0  0
   33.1497   15.8234   -9.1171 O   0  0  0  0  0  0  0  0  0  0  0  0
 20 21  1  0  0  0
 21 22  2  0  0  0
 21  1  1  0  0  0
  1  2  2  0  0  0
  2  3  1  0  0  0
  3  4  1  0  0  0
  4  5  1  0  0  0
  5  6  1  0  0  0
  6  7  2  0  0  0
  6  8  1  0  0  0
  8  9  2  0  0  0
  9 10  1  0  0  0
 10 11  2  0  0  0
 11 12  1  0  0  0
 12 13  1  0  0  0
 13 14  1  0  0  0
 14 15  2  0  0  0
 14 16  1  0  0  0
 16 17  1  0  0  0
 17 18  1  0  0  0
 18 19  1  0  0  0
  5  1  1  0  0  0
 19 10  1  0  0  0
  8  4  1  0  0  0
 18 12  2  0  0  0
M  CHG 1  20  -1
M  END
> <minimizedAffinity>
-8.01562

> <CNNscore>
0.3232473135

> <CNNaffinity>
6.0186691284

> <CNN_VS>
1.9455186129

> <CNNaffinity_variance>
0.4112330079

$$$$
[H]C1=C(C(=O)[O-])N2C(=O)/C(=C(\[H])c3sc4c(c3[H])C([H])([H])C(=O)C([H])([H])C4([H])[H])[C@@]2([H])S1


 22 25  0  0  0  0  0  0  0  0999 V2000
   42.4762   13.6810  -14.6941 C   0  0  0  0  0  0  0  0  0  0  0  0
   42.3587   12.8840  -15.7168 C   0  0  0  0  0  0  0  0  0  0  0  0
   40.5744   12.8128  -16.0441 S   0  0  0  0  0  0  0  0  0  0  0  0
   40.1495   13.2760  -14.3074 C   0  0  0  0  0  0  0  0  0  0  0  0
   41.2807   14.2393  -14.1910 N   0  0  0  0  0  0  0  0  0  0  0  0
   40.3336   15.1420  -13.6188 C   0  0  0  0  0  0  0  0  0  0  0  0
   40.4962   16.2165  -12.9854 O   0  0  0  0  0  0  0  0  0  0  0  0
   39.2047   14.3124  -14.0744 C   0  0  0  0  0  0  0  0  0  0  0  0
   37.9195   14.5528  -14.1381 C   0  0  0  0  0  0  0  0  0  0  0  0
   36.9038   13.5972  -14.5591 C   0  0  0  0  0  0  0  0  0  0  0  0
   36.8274   12.7045  -15.5689 C   0  0  0  0  0  0  0  0  0  0  0  0
   35.7219   11.9283  -15.6531 C   0  0  0  0  0  0  0  0  0  0  0  0
   35.4479   10.8717  -16.7201 C   0  0  0  0  0  0  0  0  0  0  0  0
   33.9761   10.8571  -16.9121 C   0  0  0  0  0  0  0  0  0  0  0  0
   33.4135   11.1667  -17.9520 O   0  0  0  0  0  0  0  0  0  0  0  0
   33.1976   10.4230  -15.7059 C   0  0  0  0  0  0  0  0  0  0  0  0
   33.4728   11.3558  -14.5957 C   0  0  0  0  0  0  0  0  0  0  0  0
   34.7610   12.0896  -14.7247 C   0  0  0  0  0  0  0  0  0  0  0  0
   35.4058   13.3343  -13.7311 S   0  0  0  0  0  0  0  0  0  0  0  0
   44.0251   15.2018  -13.4427 O   0  0  0  0  0  0  0  0  0  0  0  0
   43.7989   14.0001  -14.1083 C   0  0  0  0  0  0  0  0  0  0  0  0
   44.7696   13.2114  -14.1835 O   0  0  0  0  0  0  0  0  0  0  0  0
 20 21  1  0  0  0
 21 22  2  0  0  0
 21  1  1  0  0  0
  1  2  2  0  0  0
  2  3  1  0  0  0
  3  4  1  0  0  0
  4  5  1  0  0  0
  5  6  1  0  0  0
  6  7  2  0  0  0
  6  8  1  0  0  0
  8  9  2  0  0  0
  9 10  1  0  0  0
 10 11  2  0  0  0
 11 12  1  0  0  0
 12 13  1  0  0  0
 13 14  1  0  0  0
 14 15  2  0  0  0
 14 16  1  0  0  0
 16 17  1  0  0  0
 17 18  1  0  0  0
 18 19  1  0  0  0
  5  1  1  0  0  0
 19 10  1  0  0  0
  8  4  1  0  0  0
 18 12  2  0  0  0
M  CHG 1  20  -1
M  END
> <minimizedAffinity>
-7.24949

> <CNNscore>
0.2901574671

> <CNNaffinity>
5.9792933464

> <CNN_VS>
1.7349365950

> <CNNaffinity_variance>
0.2555116713

$$$$
[H]C1=C(C(=O)[O-])N2C(=O)/C(=C(\[H])c3sc4c(c3[H])C([H])([H])C(=O)C([H])([H])C4([H])[H])[C@@]2([H])S1


 22 25  0  0  0  0  0  0  0  0999 V2000
   35.2952   11.3489  -16.2891 C   0  0  0  0  0  0  0  0  0  0  0  0
   35.0197   12.2729  -15.4144 C   0  0  0  0  0  0  0  0  0  0  0  0
   36.5889   13.1491  -15.1583 S   0  0  0  0  0  0  0  0  0  0  0  0
   37.5894   11.6950  -15.7026 C   0  0  0  0  0  0  0  0  0  0  0  0
   36.6223   11.3141  -16.7705 N   0  0  0  0  0  0  0  0  0  0  0  0
   37.7596   11.1674  -17.6215 C   0  0  0  0  0  0  0  0  0  0  0  0
   37.8822   10.6222  -18.7486 O   0  0  0  0  0  0  0  0  0  0  0  0
   38.6214   11.8801  -16.6626 C   0  0  0  0  0  0  0  0  0  0  0  0
   39.8267   12.3773  -16.7800 C   0  0  0  0  0  0  0  0  0  0  0  0
   40.5854   13.0087  -15.7087 C   0  0  0  0  0  0  0  0  0  0  0  0
   41.8559   12.8843  -15.2696 C   0  0  0  0  0  0  0  0  0  0  0  0
   42.2564   13.6689  -14.2421 C   0  0  0  0  0  0  0  0  0  0  0  0
   43.6428   13.6708  -13.6037 C   0  0  0  0  0  0  0  0  0  0  0  0
   43.4342   14.0152  -12.1750 C   0  0  0  0  0  0  0  0  0  0  0  0
   43.6812   13.2652  -11.2420 O   0  0  0  0  0  0  0  0  0  0  0  0
   42.8817   15.3900  -11.9427 C   0  0  0  0  0  0  0  0  0  0  0  0
   41.5659   15.4964  -12.6027 C   0  0  0  0  0  0  0  0  0  0  0  0
   41.3655   14.5297  -13.7162 C   0  0  0  0  0  0  0  0  0  0  0  0
   39.9606   14.2385  -14.6617 S   0  0  0  0  0  0  0  0  0  0  0  0
   33.0913   10.8524  -17.3727 O   0  0  0  0  0  0  0  0  0  0  0  0
   34.2616   10.4019  -16.7678 C   0  0  0  0  0  0  0  0  0  0  0  0
   34.3887    9.1608  -16.6516 O   0  0  0  0  0  0  0  0  0  0  0  0
 20 21  1  0  0  0
 21 22  2  0  0  0
 21  1  1  0  0  0
  1  2  2  0  0  0
  2  3  1  0  0  0
  3  4  1  0  0  0
  4  5  1  0  0  0
  5  6  1  0  0  0
  6  7  2  0  0  0
  6  8  1  0  0  0
  8  9  2  0  0  0
  9 10  1  0  0  0
 10 11  2  0  0  0
 11 12  1  0  0  0
 12 13  1  0  0  0
 13 14  1  0  0  0
 14 15  2  0  0  0
 14 16  1  0  0  0
 16 17  1  0  0  0
 17 18  1  0  0  0
 18 19  1  0  0  0
  5  1  1  0  0  0
 19 10  1  0  0  0
  8  4  1  0  0  0
 18 12  2  0  0  0
M  CHG 1  20  -1
M  END
> <minimizedAffinity>
-8.24051

> <CNNscore>
0.2680124640

> <CNNaffinity>
6.0388441086

> <CNN_VS>
1.6184854507

> <CNNaffinity_variance>
0.0653318539

$$$$
[H]C1=C(C(=O)[O-])N2C(=O)/C(=C(\[H])c3sc4c(c3[H])C([H])([H])C(=O)C([H])([H])C4([H])[H])[C@@]2([H])S1


 22 25  0  0  0  0  0  0  0  0999 V2000
   35.6566   13.3725  -14.1262 C   0  0  0  0  0  0  0  0  0  0  0  0
   36.2448   14.3300  -13.4689 C   0  0  0  0  0  0  0  0  0  0  0  0
   37.9175   14.4116  -14.1699 S   0  0  0  0  0  0  0  0  0  0  0  0
   37.8545   12.6583  -14.7475 C   0  0  0  0  0  0  0  0  0  0  0  0
   36.4178   12.7418  -15.1346 N   0  0  0  0  0  0  0  0  0  0  0  0
   36.8009   12.0927  -16.3475 C   0  0  0  0  0  0  0  0  0  0  0  0
   36.1099   11.5401  -17.2416 O   0  0  0  0  0  0  0  0  0  0  0  0
   38.2271   12.3519  -16.0848 C   0  0  0  0  0  0  0  0  0  0  0  0
   39.2838   12.2546  -16.8513 C   0  0  0  0  0  0  0  0  0  0  0  0
   40.6573   12.4885  -16.4259 C   0  0  0  0  0  0  0  0  0  0  0  0
   41.2091   13.1154  -15.3653 C   0  0  0  0  0  0  0  0  0  0  0  0
   42.5582   13.1193  -15.2565 C   0  0  0  0  0  0  0  0  0  0  0  0
   43.3652   13.7768  -14.1401 C   0  0  0  0  0  0  0  0  0  0  0  0
   44.6405   14.2141  -14.7610 C   0  0  0  0  0  0  0  0  0  0  0  0
   44.9932   15.3799  -14.8635 O   0  0  0  0  0  0  0  0  0  0  0  0
   45.4975   13.0944  -15.2721 C   0  0  0  0  0  0  0  0  0  0  0  0
   44.7518   12.3535  -16.3080 C   0  0  0  0  0  0  0  0  0  0  0  0
   43.2738   12.4973  -16.2116 C   0  0  0  0  0  0  0  0  0  0  0  0
   42.0541   11.9064  -17.2678 S   0  0  0  0  0  0  0  0  0  0  0  0
   33.6599   11.9014  -14.4825 O   0  0  0  0  0  0  0  0  0  0  0  0
   34.2550   12.9854  -13.8429 C   0  0  0  0  0  0  0  0  0  0  0  0
   33.5434   13.6097  -13.0220 O   0  0  0  0  0  0  0  0  0  0  0  0
 20 21  1  0  0  0
 21 22  2  0  0  0
 21  1  1  0  0  0
  1  2  2  0  0  0
  2  3  1  0  0  0
  3  4  1  0  0  0
  4  5  1  0  0  0
  5  6  1  0  0  0
  6  7  2  0  0  0
  6  8  1  0  0  0
  8  9  2  0  0  0
  9 10  1  0  0  0
 10 11  2  0  0  0
 11 12  1  0  0  0
 12 13  1  0  0  0
 13 14  1  0  0  0
 14 15  2  0  0  0
 14 16  1  0  0  0
 16 17  1  0  0  0
 17 18  1  0  0  0
 18 19  1  0  0  0
  5  1  1  0  0  0
 19 10  1  0  0  0
  8  4  1  0  0  0
 18 12  2  0  0  0
M  CHG 1  20  -1
M  END
> <minimizedAffinity>
-7.87637

> <CNNscore>
0.2629587054

> <CNNaffinity>
5.7475152016

> <CNN_VS>
1.5113592148

> <CNNaffinity_variance>
0.0612571463

$$$$
[H]C1=C(C(=O)[O-])N2C(=O)/C(=C(\[H])c3sc4c(c3[H])C([H])([H])C(=O)C([H])([H])C4([H])[H])[C@@]2([H])S1


 22 25  0  0  0  0  0  0  0  0999 V2000
   41.3553   15.8576  -12.7027 C   0  0  0  0  0  0  0  0  0  0  0  0
   40.2681   16.0342  -12.0086 C   0  0  0  0  0  0  0  0  0  0  0  0
   39.1245   14.7585  -12.6089 S   0  0  0  0  0  0  0  0  0  0  0  0
   39.9924   14.6222  -14.2336 C   0  0  0  0  0  0  0  0  0  0  0  0
   41.3439   14.7918  -13.6290 N   0  0  0  0  0  0  0  0  0  0  0  0
   41.7449   13.6860  -14.4388 C   0  0  0  0  0  0  0  0  0  0  0  0
   42.8876   13.2499  -14.7328 O   0  0  0  0  0  0  0  0  0  0  0  0
   40.3435   13.3371  -14.7298 C   0  0  0  0  0  0  0  0  0  0  0  0
   39.8066   12.2693  -15.2636 C   0  0  0  0  0  0  0  0  0  0  0  0
   38.3890   12.0924  -15.5491 C   0  0  0  0  0  0  0  0  0  0  0  0
   37.2583   12.5218  -14.9497 C   0  0  0  0  0  0  0  0  0  0  0  0
   36.0723   12.1928  -15.5126 C   0  0  0  0  0  0  0  0  0  0  0  0
   34.6925   12.5758  -14.9840 C   0  0  0  0  0  0  0  0  0  0  0  0
   33.7863   11.4632  -15.3637 C   0  0  0  0  0  0  0  0  0  0  0  0
   33.2124   10.7382  -14.5643 O   0  0  0  0  0  0  0  0  0  0  0  0
   33.6148   11.2801  -16.8423 C   0  0  0  0  0  0  0  0  0  0  0  0
   34.9289   10.9832  -17.4449 C   0  0  0  0  0  0  0  0  0  0  0  0
   36.0870   11.4564  -16.6390 C   0  0  0  0  0  0  0  0  0  0  0  0
   37.7673   11.2212  -16.9105 S   0  0  0  0  0  0  0  0  0  0  0  0
   43.4690   16.4605  -11.5000 O   0  0  0  0  0  0  0  0  0  0  0  0
   42.5460   16.7175  -12.5101 C   0  0  0  0  0  0  0  0  0  0  0  0
   42.7777   17.7095  -13.2398 O   0  0  0  0  0  0  0  0  0  0  0  0
 20 21  1  0  0  0
 21 22  2  0  0  0
 21  1  1  0  0  0
  1  2  2  0  0  0
  2  3  1  0  0  0
  3  4  1  0  0  0
  4  5  1  0  0  0
  5  6  1  0  0  0
  6  7  2  0  0  0
  6  8  1  0  0  0
  8  9  2  0  0  0
  9 10  1  0  0  0
 10 11  2  0  0  0
 11 12  1  0  0  0
 12 13  1  0  0  0
 13 14  1  0  0  0
 14 15  2  0  0  0
 14 16  1  0  0  0
 16 17  1  0  0  0
 17 18  1  0  0  0
 18 19  1  0  0  0
  5  1  1  0  0  0
 19 10  1  0  0  0
  8  4  1  0  0  0
 18 12  2  0  0  0
M  CHG 1  20  -1
M  END
> <minimizedAffinity>
-6.76428

> <CNNscore>
0.2212505937

> <CNNaffinity>
5.6685495377

> <CNN_VS>
1.2541699409

> <CNNaffinity_variance>
0.3039686978

$$$$
[H]C1=C(C(=O)[O-])N2C(=O)/C(=C(\[H])c3sc4c(c3[H])C([H])([H])C(=O)C([H])([H])C4([H])[H])[C@@]2([H])S1


 22 25  0  0  0  0  0  0  0  0999 V2000
   35.6997   13.3152  -14.1616 C   0  0  0  0  0  0  0  0  0  0  0  0
   36.1512   14.3405  -13.4985 C   0  0  0  0  0  0  0  0  0  0  0  0
   37.8697   14.5285  -14.0527 S   0  0  0  0  0  0  0  0  0  0  0  0
   37.9929   12.7553  -14.5547 C   0  0  0  0  0  0  0  0  0  0  0  0
   36.5954   12.7095  -15.0699 N   0  0  0  0  0  0  0  0  0  0  0  0
   37.1356   12.0477  -16.2142 C   0  0  0  0  0  0  0  0  0  0  0  0
   36.5729   11.4085  -17.1401 O   0  0  0  0  0  0  0  0  0  0  0  0
   38.5081   12.4294  -15.8389 C   0  0  0  0  0  0  0  0  0  0  0  0
   39.6345   12.3877  -16.5044 C   0  0  0  0  0  0  0  0  0  0  0  0
   40.9418   12.7461  -15.9708 C   0  0  0  0  0  0  0  0  0  0  0  0
   42.2058   12.5793  -16.4146 C   0  0  0  0  0  0  0  0  0  0  0  0
   43.2169   13.0765  -15.6649 C   0  0  0  0  0  0  0  0  0  0  0  0
   44.7049   12.9835  -15.9922 C   0  0  0  0  0  0  0  0  0  0  0  0
   45.4069   12.9141  -14.6863 C   0  0  0  0  0  0  0  0  0  0  0  0
   46.0603   11.9540  -14.3051 O   0  0  0  0  0  0  0  0  0  0  0  0
   45.2573   14.1403  -13.8358 C   0  0  0  0  0  0  0  0  0  0  0  0
   43.8264   14.3473  -13.5393 C   0  0  0  0  0  0  0  0  0  0  0  0
   42.9053   13.7100  -14.5190 C   0  0  0  0  0  0  0  0  0  0  0  0
   41.1904   13.6074  -14.4892 S   0  0  0  0  0  0  0  0  0  0  0  0
   33.3700   13.5675  -13.2745 O   0  0  0  0  0  0  0  0  0  0  0  0
   34.3116   12.8286  -13.9856 C   0  0  0  0  0  0  0  0  0  0  0  0
   33.9214   11.7378  -14.4631 O   0  0  0  0  0  0  0  0  0  0  0  0
 20 21  1  0  0  0
 21 22  2  0  0  0
 21  1  1  0  0  0
  1  2  2  0  0  0
  2  3  1  0  0  0
  3  4  1  0  0  0
  4  5  1  0  0  0
  5  6  1  0  0  0
  6  7  2  0  0  0
  6  8  1  0  0  0
  8  9  2  0  0  0
  9 10  1  0  0  0
 10 11  2  0  0  0
 11 12  1  0  0  0
 12 13  1  0  0  0
 13 14  1  0  0  0
 14 15  2  0  0  0
 14 16  1  0  0  0
 16 17  1  0  0  0
 17 18  1  0  0  0
 18 19  1  0  0  0
  5  1  1  0  0  0
 19 10  1  0  0  0
  8  4  1  0  0  0
 18 12  2  0  0  0
M  CHG 1  20  -1
M  END
> <minimizedAffinity>
-8.08464

> <CNNscore>
0.2131349444

> <CNNaffinity>
5.6599464417

> <CNN_VS>
1.2063323259

> <CNNaffinity_variance>
0.0455225855

$$$$
[H]C1=C(C(=O)[O-])N2C(=O)/C(=C(\[H])c3sc4c(c3[H])C([H])([H])C(=O)C([H])([H])C4([H])[H])[C@@]2([H])S1


 22 25  0  0  0  0  0  0  0  0999 V2000
   38.9906   11.5447  -17.4958 C   0  0  0  0  0  0  0  0  0  0  0  0
   40.0017   11.9472  -16.7814 C   0  0  0  0  0  0  0  0  0  0  0  0
   39.2781   12.4313  -15.1883 S   0  0  0  0  0  0  0  0  0  0  0  0
   37.6155   12.7290  -15.9358 C   0  0  0  0  0  0  0  0  0  0  0  0
   37.7262   11.5712  -16.8674 N   0  0  0  0  0  0  0  0  0  0  0  0
   36.3959   11.2394  -16.4681 C   0  0  0  0  0  0  0  0  0  0  0  0
   35.5585   10.4445  -16.9673 O   0  0  0  0  0  0  0  0  0  0  0  0
   36.4648   12.1628  -15.3223 C   0  0  0  0  0  0  0  0  0  0  0  0
   35.6918   12.3089  -14.2761 C   0  0  0  0  0  0  0  0  0  0  0  0
   35.8554   13.3229  -13.2430 C   0  0  0  0  0  0  0  0  0  0  0  0
   35.8972   13.2793  -11.8944 C   0  0  0  0  0  0  0  0  0  0  0  0
   36.1014   14.4370  -11.2238 C   0  0  0  0  0  0  0  0  0  0  0  0
   36.1733   14.5934   -9.7072 C   0  0  0  0  0  0  0  0  0  0  0  0
   35.6367   15.9450   -9.4100 C   0  0  0  0  0  0  0  0  0  0  0  0
   34.6196   16.1566   -8.7660 O   0  0  0  0  0  0  0  0  0  0  0  0
   36.4513   17.0727   -9.9704 C   0  0  0  0  0  0  0  0  0  0  0  0
   36.4980   16.9470  -11.4402 C   0  0  0  0  0  0  0  0  0  0  0  0
   36.2521   15.5668  -11.9394 C   0  0  0  0  0  0  0  0  0  0  0  0
   36.1050   15.0075  -13.5574 S   0  0  0  0  0  0  0  0  0  0  0  0
   38.0872   10.6004  -19.6336 O   0  0  0  0  0  0  0  0  0  0  0  0
   39.1664   11.0636  -18.8858 C   0  0  0  0  0  0  0  0  0  0  0  0
   40.2849   11.0494  -19.4504 O   0  0  0  0  0  0  0  0  0  0  0  0
 20 21  1  0  0  0
 21 22  2  0  0  0
 21  1  1  0  0  0
  1  2  2  0  0  0
  2  3  1  0  0  0
  3  4  1  0  0  0
  4  5  1  0  0  0
  5  6  1  0  0  0
  6  7  2  0  0  0
  6  8  1  0  0  0
  8  9  2  0  0  0
  9 10  1  0  0  0
 10 11  2  0  0  0
 11 12  1  0  0  0
 12 13  1  0  0  0
 13 14  1  0  0  0
 14 15  2  0  0  0
 14 16  1  0  0  0
 16 17  1  0  0  0
 17 18  1  0  0  0
 18 19  1  0  0  0
  5  1  1  0  0  0
 19 10  1  0  0  0
  8  4  1  0  0  0
 18 12  2  0  0  0
M  CHG 1  20  -1
M  END
> <minimizedAffinity>
-6.86750

> <CNNscore>
0.2016171515

> <CNNaffinity>
5.7800126076

> <CNN_VS>
1.1653497219

> <CNNaffinity_variance>
0.1222731844

$$$$
[H]OC(=O)C([H])([H])C([H])(C(=O)C([H])([H])Oc1c([H])c([H])c([H])c([H])c1[H])N([H])C(=O)[C@@]([H])(N([H])C(=O)[C@@]([H])(N([H])C(=O)OC([H])([H])c1c([H])c([H])c([H])c([H])c1[H])C([H])(C([H])([H])[H])C([H])([H])[H])C([H])([H])[H]


 42 43  0  0  0  0  0  0  0  0999 V2000
   38.8454   17.1244   -9.2022 C   0  0  0  0  0  0  0  0  0  0  0  0
   37.9241   18.3004   -8.9327 C   0  0  0  0  0  0  0  0  0  0  0  0
   38.5160   16.0290  -11.3931 C   0  0  0  0  0  0  0  0  0  0  0  0
   39.5179   16.6984  -11.7779 O   0  0  0  0  0  0  0  0  0  0  0  0
   38.0865   16.1996  -10.0579 N   0  0  0  0  0  0  0  0  0  0  0  0
   37.2755   15.7317   -9.6080 H   0  0  0  0  0  0  0  0  0  0  0  0
   37.8245   15.0909  -12.3279 C   0  0  0  0  0  0  0  0  0  0  0  0
   38.7050   14.0892  -12.8382 N   0  0  0  0  0  0  0  0  0  0  0  0
   39.5074   14.1707  -13.9925 C   0  0  0  0  0  0  0  0  0  0  0  0
   39.5008   15.2079  -14.7125 O   0  0  0  0  0  0  0  0  0  0  0  0
   38.7625   13.1833  -12.2792 H   0  0  0  0  0  0  0  0  0  0  0  0
   40.3284   13.1353  -14.3946 O   0  0  0  0  0  0  0  0  0  0  0  0
   40.8051   13.0334  -15.6829 C   0  0  0  0  0  0  0  0  0  0  0  0
   40.0145   12.2453  -16.6343 C   0  0  0  0  0  0  0  0  0  0  0  0
   40.5597   11.9768  -17.8986 C   0  0  0  0  0  0  0  0  0  0  0  0
   39.8930   11.2589  -18.8344 C   0  0  0  0  0  0  0  0  0  0  0  0
   38.6236   10.7621  -18.5518 C   0  0  0  0  0  0  0  0  0  0  0  0
   38.0534   11.0041  -17.3212 C   0  0  0  0  0  0  0  0  0  0  0  0
   38.7566   11.7357  -16.3963 C   0  0  0  0  0  0  0  0  0  0  0  0
   35.4832   15.4996  -11.7858 C   0  0  0  0  0  0  0  0  0  0  0  0
   36.6009   14.4893  -11.6443 C   0  0  0  0  0  0  0  0  0  0  0  0
   36.2373   13.1574  -12.1722 C   0  0  0  0  0  0  0  0  0  0  0  0
   39.2304   16.4089   -7.9821 C   0  0  0  0  0  0  0  0  0  0  0  0
   39.4892   17.0480   -6.9315 O   0  0  0  0  0  0  0  0  0  0  0  0
   39.3285   15.0008   -7.9271 N   0  0  0  0  0  0  0  0  0  0  0  0
   39.1230   14.4447   -8.7662 H   0  0  0  0  0  0  0  0  0  0  0  0
   39.7209   14.3139   -6.6965 C   0  0  0  0  0  0  0  0  0  0  0  0
   40.4020   13.0585   -6.9638 C   0  0  0  0  0  0  0  0  0  0  0  0
   39.7584   12.0254   -6.6660 O   0  0  0  0  0  0  0  0  0  0  0  0
   41.7328   12.7858   -7.5386 C   0  0  0  0  0  0  0  0  0  0  0  0
   42.3597   13.5729   -8.3342 O   0  0  0  0  0  0  0  0  0  0  0  0
   42.9983   14.3749   -9.1470 C   0  0  0  0  0  0  0  0  0  0  0  0
   44.3588   14.3549   -9.4225 C   0  0  0  0  0  0  0  0  0  0  0  0
   44.9365   15.2164  -10.2708 C   0  0  0  0  0  0  0  0  0  0  0  0
   44.1896   16.1697  -10.9107 C   0  0  0  0  0  0  0  0  0  0  0  0
   42.8293   16.2507  -10.6857 C   0  0  0  0  0  0  0  0  0  0  0  0
   42.2661   15.3753   -9.8294 C   0  0  0  0  0  0  0  0  0  0  0  0
   38.5277   14.0982   -5.8099 C   0  0  0  0  0  0  0  0  0  0  0  0
   37.2865   13.7554   -6.5049 C   0  0  0  0  0  0  0  0  0  0  0  0
   36.7913   12.4846   -6.5794 O   0  0  0  0  0  0  0  0  0  0  0  0
   36.6366   14.6961   -7.0670 O   0  0  0  0  0  0  0  0  0  0  0  0
   35.8072   12.2273   -6.5678 H   0  0  0  0  0  0  0  0  0  0  0  0
 20 21  1  0  0  0
 21 22  1  0  0  0
 21  7  1  0  0  0
  7  8  1  0  0  0
  8  9  1  0  0  0
  9 10  2  0  0  0
  9 12  1  0  0  0
 12 13  1  0  0  0
 13 14  1  0  0  0
 14 15  2  0  0  0
 15 16  1  0  0  0
 16 17  2  0  0  0
 17 18  1  0  0  0
 18 19  2  0  0  0
  7  3  1  0  0  0
  3  4  2  0  0  0
  3  5  1  0  0  0
  5  1  1  0  0  0
  1  2  1  0  0  0
  1 23  1  0  0  0
 23 24  2  0  0  0
 23 25  1  0  0  0
 25 27  1  0  0  0
 27 38  1  0  0  0
 38 39  1  0  0  0
 39 40  1  0  0  0
 39 41  2  0  0  0
 27 28  1  0  0  0
 28 29  2  0  0  0
 28 30  1  0  0  0
 30 31  1  0  0  0
 31 32  1  0  0  0
 32 33  2  0  0  0
 33 34  1  0  0  0
 34 35  2  0  0  0
 35 36  1  0  0  0
 36 37  2  0  0  0
 19 14  1  0  0  0
 37 32  1  0  0  0
  8 11  1  0  0  0
  5  6  1  0  0  0
 25 26  1  0  0  0
 40 42  1  0  0  0
M  END
> <minimizedAffinity>
-7.27820

> <CNNscore>
0.3735651374

> <CNNaffinity>
6.1843810081

> <CNN_VS>
2.3102691174

> <CNNaffinity_variance>
0.1052707806

$$$$
[H]OC(=O)C([H])([H])C([H])(C(=O)C([H])([H])Oc1c([H])c([H])c([H])c([H])c1[H])N([H])C(=O)[C@@]([H])(N([H])C(=O)[C@@]([H])(N([H])C(=O)OC([H])([H])c1c([H])c([H])c([H])c([H])c1[H])C([H])(C([H])([H])[H])C([H])([H])[H])C([H])([H])[H]


 42 43  0  0  0  0  0  0  0  0999 V2000
   36.6616   14.9321   -9.8904 C   0  0  0  0  0  0  0  0  0  0  0  0
   37.9958   15.4381   -9.3725 C   0  0  0  0  0  0  0  0  0  0  0  0
   36.1276   14.1759  -12.1820 C   0  0  0  0  0  0  0  0  0  0  0  0
   35.6861   13.1239  -11.6359 O   0  0  0  0  0  0  0  0  0  0  0  0
   36.6691   15.1740  -11.3411 N   0  0  0  0  0  0  0  0  0  0  0  0
   37.0798   16.0784  -11.6453 H   0  0  0  0  0  0  0  0  0  0  0  0
   36.0673   14.3449  -13.6652 C   0  0  0  0  0  0  0  0  0  0  0  0
   37.3627   14.5064  -14.2441 N   0  0  0  0  0  0  0  0  0  0  0  0
   38.4717   13.6511  -14.0982 C   0  0  0  0  0  0  0  0  0  0  0  0
   38.3951   12.6084  -13.3903 O   0  0  0  0  0  0  0  0  0  0  0  0
   37.5007   15.3676  -14.8571 H   0  0  0  0  0  0  0  0  0  0  0  0
   39.6844   13.9051  -14.7087 O   0  0  0  0  0  0  0  0  0  0  0  0
   40.4627   12.9018  -15.2426 C   0  0  0  0  0  0  0  0  0  0  0  0
   39.9711   12.2398  -16.4556 C   0  0  0  0  0  0  0  0  0  0  0  0
   40.6540   12.4568  -17.6615 C   0  0  0  0  0  0  0  0  0  0  0  0
   40.2625   11.8848  -18.8257 C   0  0  0  0  0  0  0  0  0  0  0  0
   39.1482   11.0506  -18.8472 C   0  0  0  0  0  0  0  0  0  0  0  0
   38.4504   10.8121  -17.6835 C   0  0  0  0  0  0  0  0  0  0  0  0
   38.8743   11.4084  -16.5215 C   0  0  0  0  0  0  0  0  0  0  0  0
   33.8318   13.5497  -14.2245 C   0  0  0  0  0  0  0  0  0  0  0  0
   35.2987   13.1831  -14.2865 C   0  0  0  0  0  0  0  0  0  0  0  0
   35.7484   12.8560  -15.6560 C   0  0  0  0  0  0  0  0  0  0  0  0
   35.5175   15.6434   -9.3126 C   0  0  0  0  0  0  0  0  0  0  0  0
   35.3498   16.8659   -9.5502 O   0  0  0  0  0  0  0  0  0  0  0  0
   34.5702   15.0072   -8.4800 N   0  0  0  0  0  0  0  0  0  0  0  0
   34.6740   14.0080   -8.2647 H   0  0  0  0  0  0  0  0  0  0  0  0
   33.4410   15.7441   -7.9124 C   0  0  0  0  0  0  0  0  0  0  0  0
   33.5579   15.9011   -6.4727 C   0  0  0  0  0  0  0  0  0  0  0  0
   34.4535   15.2134   -5.9293 O   0  0  0  0  0  0  0  0  0  0  0  0
   32.8009   16.7454   -5.5293 C   0  0  0  0  0  0  0  0  0  0  0  0
   32.0037   17.6898   -5.8727 O   0  0  0  0  0  0  0  0  0  0  0  0
   31.1893   18.6519   -6.2233 C   0  0  0  0  0  0  0  0  0  0  0  0
   31.5521   19.9103   -6.6841 C   0  0  0  0  0  0  0  0  0  0  0  0
   30.6513   20.8427   -7.0226 C   0  0  0  0  0  0  0  0  0  0  0  0
   29.3101   20.5830   -6.9236 C   0  0  0  0  0  0  0  0  0  0  0  0
   28.8738   19.3528   -6.4723 C   0  0  0  0  0  0  0  0  0  0  0  0
   29.7948   18.4275   -6.1369 C   0  0  0  0  0  0  0  0  0  0  0  0
   32.1430   15.0810   -8.2757 C   0  0  0  0  0  0  0  0  0  0  0  0
   31.2578   15.8686   -9.1342 C   0  0  0  0  0  0  0  0  0  0  0  0
   30.0057   16.2672   -8.7611 O   0  0  0  0  0  0  0  0  0  0  0  0
   31.6830   16.1988  -10.2890 O   0  0  0  0  0  0  0  0  0  0  0  0
   29.5616   17.1474   -9.0118 H   0  0  0  0  0  0  0  0  0  0  0  0
 20 21  1  0  0  0
 21 22  1  0  0  0
 21  7  1  0  0  0
  7  8  1  0  0  0
  8  9  1  0  0  0
  9 10  2  0  0  0
  9 12  1  0  0  0
 12 13  1  0  0  0
 13 14  1  0  0  0
 14 15  2  0  0  0
 15 16  1  0  0  0
 16 17  2  0  0  0
 17 18  1  0  0  0
 18 19  2  0  0  0
  7  3  1  0  0  0
  3  4  2  0  0  0
  3  5  1  0  0  0
  5  1  1  0  0  0
  1  2  1  0  0  0
  1 23  1  0  0  0
 23 24  2  0  0  0
 23 25  1  0  0  0
 25 27  1  0  0  0
 27 38  1  0  0  0
 38 39  1  0  0  0
 39 40  1  0  0  0
 39 41  2  0  0  0
 27 28  1  0  0  0
 28 29  2  0  0  0
 28 30  1  0  0  0
 30 31  1  0  0  0
 31 32  1  0  0  0
 32 33  2  0  0  0
 33 34  1  0  0  0
 34 35  2  0  0  0
 35 36  1  0  0  0
 36 37  2  0  0  0
 19 14  1  0  0  0
 37 32  1  0  0  0
  8 11  1  0  0  0
  5  6  1  0  0  0
 25 26  1  0  0  0
 40 42  1  0  0  0
M  END
> <minimizedAffinity>
-7.21464

> <CNNscore>
0.2504651845

> <CNNaffinity>
5.9783449173

> <CNN_VS>
1.4973672628

> <CNNaffinity_variance>
0.0880090371

$$$$
[H]OC(=O)C([H])([H])C([H])(C(=O)C([H])([H])Oc1c([H])c([H])c([H])c([H])c1[H])N([H])C(=O)[C@@]([H])(N([H])C(=O)[C@@]([H])(N([H])C(=O)OC([H])([H])c1c([H])c([H])c([H])c([H])c1[H])C([H])(C([H])([H])[H])C([H])([H])[H])C([H])([H])[H]


 42 43  0  0  0  0  0  0  0  0999 V2000
   35.1031   14.0070  -12.1460 C   0  0  0  0  0  0  0  0  0  0  0  0
   34.0372   14.8600  -12.8097 C   0  0  0  0  0  0  0  0  0  0  0  0
   36.2226   15.5928  -10.6163 C   0  0  0  0  0  0  0  0  0  0  0  0
   35.2422   15.3983   -9.8411 O   0  0  0  0  0  0  0  0  0  0  0  0
   36.2257   14.9112  -11.8540 N   0  0  0  0  0  0  0  0  0  0  0  0
   36.9513   14.9827  -12.5938 H   0  0  0  0  0  0  0  0  0  0  0  0
   37.3335   16.5103  -10.2210 C   0  0  0  0  0  0  0  0  0  0  0  0
   37.0597   17.1955   -8.9984 N   0  0  0  0  0  0  0  0  0  0  0  0
   37.3200   18.5478   -8.7050 C   0  0  0  0  0  0  0  0  0  0  0  0
   37.8572   19.3034   -9.5622 O   0  0  0  0  0  0  0  0  0  0  0  0
   36.6039   16.6182   -8.2267 H   0  0  0  0  0  0  0  0  0  0  0  0
   37.0104   19.1101   -7.4821 O   0  0  0  0  0  0  0  0  0  0  0  0
   37.3312   20.4128   -7.1698 C   0  0  0  0  0  0  0  0  0  0  0  0
   36.2288   21.3758   -7.0791 C   0  0  0  0  0  0  0  0  0  0  0  0
   35.8244   22.0439   -8.2444 C   0  0  0  0  0  0  0  0  0  0  0  0
   34.8167   22.9495   -8.2444 C   0  0  0  0  0  0  0  0  0  0  0  0
   34.1473   23.2409   -7.0591 C   0  0  0  0  0  0  0  0  0  0  0  0
   34.5145   22.6058   -5.8929 C   0  0  0  0  0  0  0  0  0  0  0  0
   35.5404   21.6939   -5.9286 C   0  0  0  0  0  0  0  0  0  0  0  0
   39.7049   16.6351  -10.7717 C   0  0  0  0  0  0  0  0  0  0  0  0
   38.6472   15.7373  -10.1673 C   0  0  0  0  0  0  0  0  0  0  0  0
   38.9962   15.2799   -8.8057 C   0  0  0  0  0  0  0  0  0  0  0  0
   35.5943   12.9307  -13.0116 C   0  0  0  0  0  0  0  0  0  0  0  0
   36.0044   11.8546  -12.5086 O   0  0  0  0  0  0  0  0  0  0  0  0
   35.6314   13.0460  -14.4189 N   0  0  0  0  0  0  0  0  0  0  0  0
   35.3028   13.9107  -14.8660 H   0  0  0  0  0  0  0  0  0  0  0  0
   36.1325   11.9571  -15.2577 C   0  0  0  0  0  0  0  0  0  0  0  0
   37.5328   12.1325  -15.6035 C   0  0  0  0  0  0  0  0  0  0  0  0
   37.9640   11.3680  -16.4979 O   0  0  0  0  0  0  0  0  0  0  0  0
   38.5452   13.0707  -15.0833 C   0  0  0  0  0  0  0  0  0  0  0  0
   39.8036   12.9912  -15.3190 O   0  0  0  0  0  0  0  0  0  0  0  0
   41.0872   12.9087  -15.5583 C   0  0  0  0  0  0  0  0  0  0  0  0
   41.6873   12.2134  -16.5993 C   0  0  0  0  0  0  0  0  0  0  0  0
   43.0154   12.1786  -16.7735 C   0  0  0  0  0  0  0  0  0  0  0  0
   43.8480   12.8418  -15.9115 C   0  0  0  0  0  0  0  0  0  0  0  0
   43.3228   13.5547  -14.8515 C   0  0  0  0  0  0  0  0  0  0  0  0
   41.9845   13.5784  -14.6929 C   0  0  0  0  0  0  0  0  0  0  0  0
   35.2895   11.8122  -16.4925 C   0  0  0  0  0  0  0  0  0  0  0  0
   33.9275   11.3275  -16.2659 C   0  0  0  0  0  0  0  0  0  0  0  0
   33.3925   11.1382  -15.0234 O   0  0  0  0  0  0  0  0  0  0  0  0
   33.2065   11.0718  -17.2848 O   0  0  0  0  0  0  0  0  0  0  0  0
   32.4228   11.2997  -14.7617 H   0  0  0  0  0  0  0  0  0  0  0  0
 20 21  1  0  0  0
 21 22  1  0  0  0
 21  7  1  0  0  0
  7  8  1  0  0  0
  8  9  1  0  0  0
  9 10  2  0  0  0
  9 12  1  0  0  0
 12 13  1  0  0  0
 13 14  1  0  0  0
 14 15  2  0  0  0
 15 16  1  0  0  0
 16 17  2  0  0  0
 17 18  1  0  0  0
 18 19  2  0  0  0
  7  3  1  0  0  0
  3  4  2  0  0  0
  3  5  1  0  0  0
  5  1  1  0  0  0
  1  2  1  0  0  0
  1 23  1  0  0  0
 23 24  2  0  0  0
 23 25  1  0  0  0
 25 27  1  0  0  0
 27 38  1  0  0  0
 38 39  1  0  0  0
 39 40  1  0  0  0
 39 41  2  0  0  0
 27 28  1  0  0  0
 28 29  2  0  0  0
 28 30  1  0  0  0
 30 31  1  0  0  0
 31 32  1  0  0  0
 32 33  2  0  0  0
 33 34  1  0  0  0
 34 35  2  0  0  0
 35 36  1  0  0  0
 36 37  2  0  0  0
 19 14  1  0  0  0
 37 32  1  0  0  0
  8 11  1  0  0  0
  5  6  1  0  0  0
 25 26  1  0  0  0
 40 42  1  0  0  0
M  END
> <minimizedAffinity>
-7.16104

> <CNNscore>
0.2158338279

> <CNNaffinity>
5.9016904831

> <CNN_VS>
1.2737843990

> <CNNaffinity_variance>
0.2620678842

$$$$
[H]OC(=O)C([H])([H])C([H])(C(=O)C([H])([H])Oc1c([H])c([H])c([H])c([H])c1[H])N([H])C(=O)[C@@]([H])(N([H])C(=O)[C@@]([H])(N([H])C(=O)OC([H])([H])c1c([H])c([H])c([H])c([H])c1[H])C([H])(C([H])([H])[H])C([H])([H])[H])C([H])([H])[H]


 42 43  0  0  0  0  0  0  0  0999 V2000
   36.8858   14.8683  -10.9238 C   0  0  0  0  0  0  0  0  0  0  0  0
   38.2183   15.5638  -10.7116 C   0  0  0  0  0  0  0  0  0  0  0  0
   36.2619   13.4605  -12.8569 C   0  0  0  0  0  0  0  0  0  0  0  0
   36.0058   12.5610  -12.0052 O   0  0  0  0  0  0  0  0  0  0  0  0
   36.7402   14.7006  -12.3777 N   0  0  0  0  0  0  0  0  0  0  0  0
   37.0050   15.5225  -12.9551 H   0  0  0  0  0  0  0  0  0  0  0  0
   36.0559   13.2072  -14.3148 C   0  0  0  0  0  0  0  0  0  0  0  0
   37.1684   12.5384  -14.9098 N   0  0  0  0  0  0  0  0  0  0  0  0
   38.4899   13.0136  -15.0135 C   0  0  0  0  0  0  0  0  0  0  0  0
   38.8062   14.1485  -14.5595 O   0  0  0  0  0  0  0  0  0  0  0  0
   36.9752   11.5714  -15.3150 H   0  0  0  0  0  0  0  0  0  0  0  0
   39.4938   12.2771  -15.6115 O   0  0  0  0  0  0  0  0  0  0  0  0
   40.3697   12.8302  -16.5193 C   0  0  0  0  0  0  0  0  0  0  0  0
   41.7963   12.8092  -16.1791 C   0  0  0  0  0  0  0  0  0  0  0  0
   42.2289   13.5322  -15.0576 C   0  0  0  0  0  0  0  0  0  0  0  0
   43.5291   13.5660  -14.6782 C   0  0  0  0  0  0  0  0  0  0  0  0
   44.4832   12.8666  -15.4119 C   0  0  0  0  0  0  0  0  0  0  0  0
   44.0985   12.1440  -16.5201 C   0  0  0  0  0  0  0  0  0  0  0  0
   42.7726   12.1319  -16.8768 C   0  0  0  0  0  0  0  0  0  0  0  0
   33.6394   13.4818  -14.4811 C   0  0  0  0  0  0  0  0  0  0  0  0
   34.7477   12.4525  -14.5281 C   0  0  0  0  0  0  0  0  0  0  0  0
   34.7341   11.6550  -15.7725 C   0  0  0  0  0  0  0  0  0  0  0  0
   35.7477   15.6533  -10.4364 C   0  0  0  0  0  0  0  0  0  0  0  0
   35.0422   16.3090  -11.2435 O   0  0  0  0  0  0  0  0  0  0  0  0
   35.3959   15.7117   -9.0696 N   0  0  0  0  0  0  0  0  0  0  0  0
   35.9489   15.1873   -8.3805 H   0  0  0  0  0  0  0  0  0  0  0  0
   34.2578   16.5084   -8.6111 C   0  0  0  0  0  0  0  0  0  0  0  0
   34.5880   17.3169   -7.4499 C   0  0  0  0  0  0  0  0  0  0  0  0
   35.7818   17.6912   -7.3790 O   0  0  0  0  0  0  0  0  0  0  0  0
   33.7498   17.7853   -6.3300 C   0  0  0  0  0  0  0  0  0  0  0  0
   32.5385   18.1914   -6.4448 O   0  0  0  0  0  0  0  0  0  0  0  0
   31.3028   18.6053   -6.5603 C   0  0  0  0  0  0  0  0  0  0  0  0
   30.1592   17.8293   -6.4288 C   0  0  0  0  0  0  0  0  0  0  0  0
   28.9250   18.3333   -6.5639 C   0  0  0  0  0  0  0  0  0  0  0  0
   28.7425   19.6617   -6.8435 C   0  0  0  0  0  0  0  0  0  0  0  0
   29.8339   20.4956   -6.9888 C   0  0  0  0  0  0  0  0  0  0  0  0
   31.0673   19.9705   -6.8489 C   0  0  0  0  0  0  0  0  0  0  0  0
   33.0752   15.6257   -8.3310 C   0  0  0  0  0  0  0  0  0  0  0  0
   32.0112   15.6693   -9.3345 C   0  0  0  0  0  0  0  0  0  0  0  0
   31.6624   14.5998  -10.1093 O   0  0  0  0  0  0  0  0  0  0  0  0
   31.3789   16.7647   -9.4884 O   0  0  0  0  0  0  0  0  0  0  0  0
   30.7207   14.3700  -10.4180 H   0  0  0  0  0  0  0  0  0  0  0  0
 20 21  1  0  0  0
 21 22  1  0  0  0
 21  7  1  0  0  0
  7  8  1  0  0  0
  8  9  1  0  0  0
  9 10  2  0  0  0
  9 12  1  0  0  0
 12 13  1  0  0  0
 13 14  1  0  0  0
 14 15  2  0  0  0
 15 16  1  0  0  0
 16 17  2  0  0  0
 17 18  1  0  0  0
 18 19  2  0  0  0
  7  3  1  0  0  0
  3  4  2  0  0  0
  3  5  1  0  0  0
  5  1  1  0  0  0
  1  2  1  0  0  0
  1 23  1  0  0  0
 23 24  2  0  0  0
 23 25  1  0  0  0
 25 27  1  0  0  0
 27 38  1  0  0  0
 38 39  1  0  0  0
 39 40  1  0  0  0
 39 41  2  0  0  0
 27 28  1  0  0  0
 28 29  2  0  0  0
 28 30  1  0  0  0
 30 31  1  0  0  0
 31 32  1  0  0  0
 32 33  2  0  0  0
 33 34  1  0  0  0
 34 35  2  0  0  0
 35 36  1  0  0  0
 36 37  2  0  0  0
 19 14  1  0  0  0
 37 32  1  0  0  0
  8 11  1  0  0  0
  5  6  1  0  0  0
 25 26  1  0  0  0
 40 42  1  0  0  0
M  END
> <minimizedAffinity>
-7.00355

> <CNNscore>
0.2070297599

> <CNNaffinity>
5.7079052925

> <CNN_VS>
1.1817063093

> <CNNaffinity_variance>
0.2209190130

$$$$
[H]OC(=O)C([H])([H])C([H])(C(=O)C([H])([H])Oc1c([H])c([H])c([H])c([H])c1[H])N([H])C(=O)[C@@]([H])(N([H])C(=O)[C@@]([H])(N([H])C(=O)OC([H])([H])c1c([H])c([H])c([H])c([H])c1[H])C([H])(C([H])([H])[H])C([H])([H])[H])C([H])([H])[H]


 42 43  0  0  0  0  0  0  0  0999 V2000
   35.3049   15.9628   -9.1160 C   0  0  0  0  0  0  0  0  0  0  0  0
   36.2109   17.0542   -8.5756 C   0  0  0  0  0  0  0  0  0  0  0  0
   35.8329   14.9054  -11.2866 C   0  0  0  0  0  0  0  0  0  0  0  0
   36.1435   13.8821  -10.6112 O   0  0  0  0  0  0  0  0  0  0  0  0
   35.3931   16.0482  -10.5817 N   0  0  0  0  0  0  0  0  0  0  0  0
   35.1200   16.9601  -10.9975 H   0  0  0  0  0  0  0  0  0  0  0  0
   35.9283   14.8895  -12.7776 C   0  0  0  0  0  0  0  0  0  0  0  0
   37.2598   14.6445  -13.2315 N   0  0  0  0  0  0  0  0  0  0  0  0
   37.9259   13.4050  -13.2830 C   0  0  0  0  0  0  0  0  0  0  0  0
   37.3535   12.3471  -12.8990 O   0  0  0  0  0  0  0  0  0  0  0  0
   37.8052   15.4946  -13.5726 H   0  0  0  0  0  0  0  0  0  0  0  0
   39.2218   13.2827  -13.7450 O   0  0  0  0  0  0  0  0  0  0  0  0
   39.6102   13.7578  -14.9782 C   0  0  0  0  0  0  0  0  0  0  0  0
   39.5518   12.8258  -16.1092 C   0  0  0  0  0  0  0  0  0  0  0  0
   40.4075   13.0403  -17.1998 C   0  0  0  0  0  0  0  0  0  0  0  0
   40.4133   12.2272  -18.2835 C   0  0  0  0  0  0  0  0  0  0  0  0
   39.5493   11.1369  -18.3362 C   0  0  0  0  0  0  0  0  0  0  0  0
   38.6932   10.8920  -17.2848 C   0  0  0  0  0  0  0  0  0  0  0  0
   38.7131   11.7364  -16.2023 C   0  0  0  0  0  0  0  0  0  0  0  0
   33.5676   14.2832  -12.8239 C   0  0  0  0  0  0  0  0  0  0  0  0
   34.9306   13.8866  -13.3481 C   0  0  0  0  0  0  0  0  0  0  0  0
   34.9727   13.8013  -14.8232 C   0  0  0  0  0  0  0  0  0  0  0  0
   33.9021   16.1413   -8.7297 C   0  0  0  0  0  0  0  0  0  0  0  0
   32.9998   16.1208   -9.6042 O   0  0  0  0  0  0  0  0  0  0  0  0
   33.5037   16.3413   -7.3894 N   0  0  0  0  0  0  0  0  0  0  0  0
   34.2135   16.3626   -6.6469 H   0  0  0  0  0  0  0  0  0  0  0  0
   32.0962   16.5225   -7.0339 C   0  0  0  0  0  0  0  0  0  0  0  0
   31.7949   17.8980   -6.6756 C   0  0  0  0  0  0  0  0  0  0  0  0
   30.6735   18.3155   -7.0475 O   0  0  0  0  0  0  0  0  0  0  0  0
   32.5867   18.8980   -5.9346 C   0  0  0  0  0  0  0  0  0  0  0  0
   33.3418   19.7804   -6.4792 O   0  0  0  0  0  0  0  0  0  0  0  0
   34.1131   20.6792   -7.0351 C   0  0  0  0  0  0  0  0  0  0  0  0
   35.4817   20.5742   -7.2429 C   0  0  0  0  0  0  0  0  0  0  0  0
   36.2009   21.5458   -7.8212 C   0  0  0  0  0  0  0  0  0  0  0  0
   35.5990   22.7037   -8.2370 C   0  0  0  0  0  0  0  0  0  0  0  0
   34.2402   22.8797   -8.0629 C   0  0  0  0  0  0  0  0  0  0  0  0
   33.5334   21.8912   -7.4797 C   0  0  0  0  0  0  0  0  0  0  0  0
   31.7067   15.5830   -5.9284 C   0  0  0  0  0  0  0  0  0  0  0  0
   32.8218   15.0048   -5.1778 C   0  0  0  0  0  0  0  0  0  0  0  0
   33.6556   15.7389   -4.3831 O   0  0  0  0  0  0  0  0  0  0  0  0
   33.0197   13.7498   -5.2727 O   0  0  0  0  0  0  0  0  0  0  0  0
   34.0730   15.4270   -3.5094 H   0  0  0  0  0  0  0  0  0  0  0  0
 20 21  1  0  0  0
 21 22  1  0  0  0
 21  7  1  0  0  0
  7  8  1  0  0  0
  8  9  1  0  0  0
  9 10  2  0  0  0
  9 12  1  0  0  0
 12 13  1  0  0  0
 13 14  1  0  0  0
 14 15  2  0  0  0
 15 16  1  0  0  0
 16 17  2  0  0  0
 17 18  1  0  0  0
 18 19  2  0  0  0
  7  3  1  0  0  0
  3  4  2  0  0  0
  3  5  1  0  0  0
  5  1  1  0  0  0
  1  2  1  0  0  0
  1 23  1  0  0  0
 23 24  2  0  0  0
 23 25  1  0  0  0
 25 27  1  0  0  0
 27 38  1  0  0  0
 38 39  1  0  0  0
 39 40  1  0  0  0
 39 41  2  0  0  0
 27 28  1  0  0  0
 28 29  2  0  0  0
 28 30  1  0  0  0
 30 31  1  0  0  0
 31 32  1  0  0  0
 32 33  2  0  0  0
 33 34  1  0  0  0
 34 35  2  0  0  0
 35 36  1  0  0  0
 36 37  2  0  0  0
 19 14  1  0  0  0
 37 32  1  0  0  0
  8 11  1  0  0  0
  5  6  1  0  0  0
 25 26  1  0  0  0
 40 42  1  0  0  0
M  END
> <minimizedAffinity>
-7.58480

> <CNNscore>
0.1763104647

> <CNNaffinity>
5.8510022163

> <CNN_VS>
1.0315929651

> <CNNaffinity_variance>
0.0964853019

$$$$
[H]OC(=O)C([H])([H])C([H])(C(=O)C([H])([H])Oc1c([H])c([H])c([H])c([H])c1[H])N([H])C(=O)[C@@]([H])(N([H])C(=O)[C@@]([H])(N([H])C(=O)OC([H])([H])c1c([H])c([H])c([H])c([H])c1[H])C([H])(C([H])([H])[H])C([H])([H])[H])C([H])([H])[H]


 42 43  0  0  0  0  0  0  0  0999 V2000
   37.8339   15.1646  -11.3058 C   0  0  0  0  0  0  0  0  0  0  0  0
   39.1953   15.8277  -11.2000 C   0  0  0  0  0  0  0  0  0  0  0  0
   37.2112   13.6445  -13.1524 C   0  0  0  0  0  0  0  0  0  0  0  0
   37.1054   12.7517  -12.2626 O   0  0  0  0  0  0  0  0  0  0  0  0
   37.6008   14.9386  -12.7403 N   0  0  0  0  0  0  0  0  0  0  0  0
   37.7426   15.7635  -13.3556 H   0  0  0  0  0  0  0  0  0  0  0  0
   36.9262   13.3276  -14.5844 C   0  0  0  0  0  0  0  0  0  0  0  0
   38.0042   12.6296  -15.2086 N   0  0  0  0  0  0  0  0  0  0  0  0
   39.3267   13.0828  -15.3762 C   0  0  0  0  0  0  0  0  0  0  0  0
   39.6770   14.2226  -14.9609 O   0  0  0  0  0  0  0  0  0  0  0  0
   37.7812   11.6569  -15.5838 H   0  0  0  0  0  0  0  0  0  0  0  0
   40.2952   12.3187  -15.9975 O   0  0  0  0  0  0  0  0  0  0  0  0
   41.3060   12.8802  -16.7460 C   0  0  0  0  0  0  0  0  0  0  0  0
   42.6730   12.7659  -16.2270 C   0  0  0  0  0  0  0  0  0  0  0  0
   42.9860   13.4021  -15.0165 C   0  0  0  0  0  0  0  0  0  0  0  0
   44.2252   13.3469  -14.4716 C   0  0  0  0  0  0  0  0  0  0  0  0
   45.2355   12.6404  -15.1182 C   0  0  0  0  0  0  0  0  0  0  0  0
   44.9682   12.0016  -16.3093 C   0  0  0  0  0  0  0  0  0  0  0  0
   43.7016   12.0785  -16.8337 C   0  0  0  0  0  0  0  0  0  0  0  0
   34.5033   13.5878  -14.5164 C   0  0  0  0  0  0  0  0  0  0  0  0
   35.6077   12.5684  -14.6927 C   0  0  0  0  0  0  0  0  0  0  0  0
   35.4815   11.8010  -15.9497 C   0  0  0  0  0  0  0  0  0  0  0  0
   36.7479   16.0042  -10.7913 C   0  0  0  0  0  0  0  0  0  0  0  0
   35.9842   16.6054  -11.5879 O   0  0  0  0  0  0  0  0  0  0  0  0
   36.5115   16.1763   -9.4094 N   0  0  0  0  0  0  0  0  0  0  0  0
   37.1147   15.6992   -8.7281 H   0  0  0  0  0  0  0  0  0  0  0  0
   35.4232   17.0254   -8.9245 C   0  0  0  0  0  0  0  0  0  0  0  0
   35.8517   17.9037   -7.8494 C   0  0  0  0  0  0  0  0  0  0  0  0
   34.9436   18.5863   -7.3205 O   0  0  0  0  0  0  0  0  0  0  0  0
   37.1853   18.1288   -7.2604 C   0  0  0  0  0  0  0  0  0  0  0  0
   37.9559   17.2015   -6.8225 O   0  0  0  0  0  0  0  0  0  0  0  0
   38.7414   16.2547   -6.3772 C   0  0  0  0  0  0  0  0  0  0  0  0
   40.0693   16.3973   -5.9981 C   0  0  0  0  0  0  0  0  0  0  0  0
   40.8070   15.3716   -5.5518 C   0  0  0  0  0  0  0  0  0  0  0  0
   40.2663   14.1171   -5.4517 C   0  0  0  0  0  0  0  0  0  0  0  0
   38.9508   13.8987   -5.8113 C   0  0  0  0  0  0  0  0  0  0  0  0
   38.2245   14.9428   -6.2576 C   0  0  0  0  0  0  0  0  0  0  0  0
   34.2515   16.1879   -8.4978 C   0  0  0  0  0  0  0  0  0  0  0  0
   34.5805   15.0323   -7.6627 C   0  0  0  0  0  0  0  0  0  0  0  0
   35.3445   13.9850   -8.0933 O   0  0  0  0  0  0  0  0  0  0  0  0
   34.1294   15.0076   -6.4714 O   0  0  0  0  0  0  0  0  0  0  0  0
   36.0029   13.4556   -7.5267 H   0  0  0  0  0  0  0  0  0  0  0  0
 20 21  1  0  0  0
 21 22  1  0  0  0
 21  7  1  0  0  0
  7  8  1  0  0  0
  8  9  1  0  0  0
  9 10  2  0  0  0
  9 12  1  0  0  0
 12 13  1  0  0  0
 13 14  1  0  0  0
 14 15  2  0  0  0
 15 16  1  0  0  0
 16 17  2  0  0  0
 17 18  1  0  0  0
 18 19  2  0  0  0
  7  3  1  0  0  0
  3  4  2  0  0  0
  3  5  1  0  0  0
  5  1  1  0  0  0
  1  2  1  0  0  0
  1 23  1  0  0  0
 23 24  2  0  0  0
 23 25  1  0  0  0
 25 27  1  0  0  0
 27 38  1  0  0  0
 38 39  1  0  0  0
 39 40  1  0  0  0
 39 41  2  0  0  0
 27 28  1  0  0  0
 28 29  2  0  0  0
 28 30  1  0  0  0
 30 31  1  0  0  0
 31 32  1  0  0  0
 32 33  2  0  0  0
 33 34  1  0  0  0
 34 35  2  0  0  0
 35 36  1  0  0  0
 36 37  2  0  0  0
 19 14  1  0  0  0
 37 32  1  0  0  0
  8 11  1  0  0  0
  5  6  1  0  0  0
 25 26  1  0  0  0
 40 42  1  0  0  0
M  END
> <minimizedAffinity>
-6.72439

> <CNNscore>
0.1688938737

> <CNNaffinity>
5.7237844467

> <CNN_VS>
0.9667121172

> <CNNaffinity_variance>
0.2237238437

$$$$
[H]OC(=O)C([H])([H])C([H])(C(=O)C([H])([H])Oc1c([H])c([H])c([H])c([H])c1[H])N([H])C(=O)[C@@]([H])(N([H])C(=O)[C@@]([H])(N([H])C(=O)OC([H])([H])c1c([H])c([H])c([H])c([H])c1[H])C([H])(C([H])([H])[H])C([H])([H])[H])C([H])([H])[H]


 42 43  0  0  0  0  0  0  0  0999 V2000
   43.6968   14.5271  -11.1142 C   0  0  0  0  0  0  0  0  0  0  0  0
   44.0102   13.1658  -10.5200 C   0  0  0  0  0  0  0  0  0  0  0  0
   42.0383   15.7369   -9.7380 C   0  0  0  0  0  0  0  0  0  0  0  0
   43.0335   16.2564   -9.1552 O   0  0  0  0  0  0  0  0  0  0  0  0
   42.2943   14.8084  -10.7718 N   0  0  0  0  0  0  0  0  0  0  0  0
   41.5827   14.2935  -11.3264 H   0  0  0  0  0  0  0  0  0  0  0  0
   40.6465   16.1060   -9.3394 C   0  0  0  0  0  0  0  0  0  0  0  0
   39.6771   15.6680  -10.2920 N   0  0  0  0  0  0  0  0  0  0  0  0
   38.6660   16.4418  -10.8932 C   0  0  0  0  0  0  0  0  0  0  0  0
   38.5321   17.6645  -10.6082 O   0  0  0  0  0  0  0  0  0  0  0  0
   39.7303   14.6433  -10.5812 H   0  0  0  0  0  0  0  0  0  0  0  0
   37.7781   15.9122  -11.8091 O   0  0  0  0  0  0  0  0  0  0  0  0
   37.9345   14.6505  -12.3393 C   0  0  0  0  0  0  0  0  0  0  0  0
   36.7722   14.0478  -13.0004 C   0  0  0  0  0  0  0  0  0  0  0  0
   36.3063   12.8078  -12.5386 C   0  0  0  0  0  0  0  0  0  0  0  0
   35.2410   12.1838  -13.0966 C   0  0  0  0  0  0  0  0  0  0  0  0
   34.5724   12.7760  -14.1643 C   0  0  0  0  0  0  0  0  0  0  0  0
   34.9989   13.9939  -14.6470 C   0  0  0  0  0  0  0  0  0  0  0  0
   36.0823   14.5983  -14.0585 C   0  0  0  0  0  0  0  0  0  0  0  0
   39.3849   16.5546   -7.3023 C   0  0  0  0  0  0  0  0  0  0  0  0
   40.3549   15.5818   -7.9370 C   0  0  0  0  0  0  0  0  0  0  0  0
   39.8557   14.1906   -7.9296 C   0  0  0  0  0  0  0  0  0  0  0  0
   43.8274   14.5570  -12.5740 C   0  0  0  0  0  0  0  0  0  0  0  0
   44.0303   15.6464  -13.1666 O   0  0  0  0  0  0  0  0  0  0  0  0
   43.7332   13.3927  -13.3683 N   0  0  0  0  0  0  0  0  0  0  0  0
   43.5692   12.4836  -12.9186 H   0  0  0  0  0  0  0  0  0  0  0  0
   43.8619   13.4536  -14.8243 C   0  0  0  0  0  0  0  0  0  0  0  0
   42.6424   13.0431  -15.4992 C   0  0  0  0  0  0  0  0  0  0  0  0
   42.8071   12.4543  -16.5930 O   0  0  0  0  0  0  0  0  0  0  0  0
   41.2271   13.1945  -15.1119 C   0  0  0  0  0  0  0  0  0  0  0  0
   40.2422   12.6311  -15.7101 O   0  0  0  0  0  0  0  0  0  0  0  0
   39.2374   12.0578  -16.3213 C   0  0  0  0  0  0  0  0  0  0  0  0
   37.9087   12.0799  -15.9194 C   0  0  0  0  0  0  0  0  0  0  0  0
   36.9366   11.4631  -16.6050 C   0  0  0  0  0  0  0  0  0  0  0  0
   37.2246   10.7724  -17.7522 C   0  0  0  0  0  0  0  0  0  0  0  0
   38.5249   10.7061  -18.2134 C   0  0  0  0  0  0  0  0  0  0  0  0
   39.4890   11.3332  -17.5105 C   0  0  0  0  0  0  0  0  0  0  0  0
   45.0320   12.6320  -15.2848 C   0  0  0  0  0  0  0  0  0  0  0  0
   46.3413   13.2663  -15.1280 C   0  0  0  0  0  0  0  0  0  0  0  0
   46.5295   14.4555  -14.4828 O   0  0  0  0  0  0  0  0  0  0  0  0
   47.3559   12.6730  -15.6197 O   0  0  0  0  0  0  0  0  0  0  0  0
   47.3356   14.7031  -13.9138 H   0  0  0  0  0  0  0  0  0  0  0  0
 20 21  1  0  0  0
 21 22  1  0  0  0
 21  7  1  0  0  0
  7  8  1  0  0  0
  8  9  1  0  0  0
  9 10  2  0  0  0
  9 12  1  0  0  0
 12 13  1  0  0  0
 13 14  1  0  0  0
 14 15  2  0  0  0
 15 16  1  0  0  0
 16 17  2  0  0  0
 17 18  1  0  0  0
 18 19  2  0  0  0
  7  3  1  0  0  0
  3  4  2  0  0  0
  3  5  1  0  0  0
  5  1  1  0  0  0
  1  2  1  0  0  0
  1 23  1  0  0  0
 23 24  2  0  0  0
 23 25  1  0  0  0
 25 27  1  0  0  0
 27 38  1  0  0  0
 38 39  1  0  0  0
 39 40  1  0  0  0
 39 41  2  0  0  0
 27 28  1  0  0  0
 28 29  2  0  0  0
 28 30  1  0  0  0
 30 31  1  0  0  0
 31 32  1  0  0  0
 32 33  2  0  0  0
 33 34  1  0  0  0
 34 35  2  0  0  0
 35 36  1  0  0  0
 36 37  2  0  0  0
 19 14  1  0  0  0
 37 32  1  0  0  0
  8 11  1  0  0  0
  5  6  1  0  0  0
 25 26  1  0  0  0
 40 42  1  0  0  0
M  END
> <minimizedAffinity>
-7.61537

> <CNNscore>
0.1539656371

> <CNNaffinity>
5.8373374939

> <CNN_VS>
0.8987494111

> <CNNaffinity_variance>
0.4497813284

$$$$
[H]OC(=O)C([H])([H])C([H])(C(=O)C([H])([H])Oc1c([H])c([H])c([H])c([H])c1[H])N([H])C(=O)[C@@]([H])(N([H])C(=O)[C@@]([H])(N([H])C(=O)OC([H])([H])c1c([H])c([H])c([H])c([H])c1[H])C([H])(C([H])([H])[H])C([H])([H])[H])C([H])([H])[H]


 42 43  0  0  0  0  0  0  0  0999 V2000
   40.6025   16.2758  -10.4647 C   0  0  0  0  0  0  0  0  0  0  0  0
   41.4270   15.8708   -9.2562 C   0  0  0  0  0  0  0  0  0  0  0  0
   38.1774   15.8787  -10.7284 C   0  0  0  0  0  0  0  0  0  0  0  0
   38.0752   17.1342  -10.8441 O   0  0  0  0  0  0  0  0  0  0  0  0
   39.4670   15.3423  -10.5150 N   0  0  0  0  0  0  0  0  0  0  0  0
   39.7024   14.3386  -10.3875 H   0  0  0  0  0  0  0  0  0  0  0  0
   36.9682   15.0062  -10.8215 C   0  0  0  0  0  0  0  0  0  0  0  0
   35.7704   15.7038  -10.4787 N   0  0  0  0  0  0  0  0  0  0  0  0
   35.0072   15.5566   -9.3046 C   0  0  0  0  0  0  0  0  0  0  0  0
   35.3500   14.7345   -8.4096 O   0  0  0  0  0  0  0  0  0  0  0  0
   35.4206   16.4170  -11.1897 H   0  0  0  0  0  0  0  0  0  0  0  0
   33.8589   16.2889   -9.0745 O   0  0  0  0  0  0  0  0  0  0  0  0
   32.6006   15.7566   -9.2493 C   0  0  0  0  0  0  0  0  0  0  0  0
   31.6194   15.9803   -8.1823 C   0  0  0  0  0  0  0  0  0  0  0  0
   30.4299   15.2369   -8.1986 C   0  0  0  0  0  0  0  0  0  0  0  0
   29.4726   15.3861   -7.2515 C   0  0  0  0  0  0  0  0  0  0  0  0
   29.6561   16.3020   -6.2193 C   0  0  0  0  0  0  0  0  0  0  0  0
   30.8111   17.0514   -6.1678 C   0  0  0  0  0  0  0  0  0  0  0  0
   31.7603   16.8753   -7.1442 C   0  0  0  0  0  0  0  0  0  0  0  0
   35.9232   13.2177  -12.1068 C   0  0  0  0  0  0  0  0  0  0  0  0
   36.8919   14.3758  -12.2084 C   0  0  0  0  0  0  0  0  0  0  0  0
   36.5200   15.3406  -13.2646 C   0  0  0  0  0  0  0  0  0  0  0  0
   41.3433   16.1653  -11.7248 C   0  0  0  0  0  0  0  0  0  0  0  0
   40.9478   16.7834  -12.7450 O   0  0  0  0  0  0  0  0  0  0  0  0
   42.5089   15.3778  -11.8533 N   0  0  0  0  0  0  0  0  0  0  0  0
   42.8630   14.8592  -11.0401 H   0  0  0  0  0  0  0  0  0  0  0  0
   43.2247   15.2816  -13.1255 C   0  0  0  0  0  0  0  0  0  0  0  0
   43.1633   13.9435  -13.6883 C   0  0  0  0  0  0  0  0  0  0  0  0
   43.5214   13.0213  -12.9191 O   0  0  0  0  0  0  0  0  0  0  0  0
   42.7405   13.4757  -15.0219 C   0  0  0  0  0  0  0  0  0  0  0  0
   41.5526   13.0934  -15.3188 O   0  0  0  0  0  0  0  0  0  0  0  0
   40.3414   12.7036  -15.6232 C   0  0  0  0  0  0  0  0  0  0  0  0
   39.1917   12.9330  -14.8796 C   0  0  0  0  0  0  0  0  0  0  0  0
   37.9844   12.4965  -15.2635 C   0  0  0  0  0  0  0  0  0  0  0  0
   37.8372   11.7918  -16.4287 C   0  0  0  0  0  0  0  0  0  0  0  0
   38.9368   11.5246  -17.2207 C   0  0  0  0  0  0  0  0  0  0  0  0
   40.1428   11.9723  -16.8183 C   0  0  0  0  0  0  0  0  0  0  0  0
   44.6491   15.7304  -12.9640 C   0  0  0  0  0  0  0  0  0  0  0  0
   45.0666   16.0015  -11.5881 C   0  0  0  0  0  0  0  0  0  0  0  0
   44.9383   17.2222  -10.9888 O   0  0  0  0  0  0  0  0  0  0  0  0
   45.5745   15.0444  -10.9177 O   0  0  0  0  0  0  0  0  0  0  0  0
   44.7201   17.3844  -10.0085 H   0  0  0  0  0  0  0  0  0  0  0  0
 20 21  1  0  0  0
 21 22  1  0  0  0
 21  7  1  0  0  0
  7  8  1  0  0  0
  8  9  1  0  0  0
  9 10  2  0  0  0
  9 12  1  0  0  0
 12 13  1  0  0  0
 13 14  1  0  0  0
 14 15  2  0  0  0
 15 16  1  0  0  0
 16 17  2  0  0  0
 17 18  1  0  0  0
 18 19  2  0  0  0
  7  3  1  0  0  0
  3  4  2  0  0  0
  3  5  1  0  0  0
  5  1  1  0  0  0
  1  2  1  0  0  0
  1 23  1  0  0  0
 23 24  2  0  0  0
 23 25  1  0  0  0
 25 27  1  0  0  0
 27 38  1  0  0  0
 38 39  1  0  0  0
 39 40  1  0  0  0
 39 41  2  0  0  0
 27 28  1  0  0  0
 28 29  2  0  0  0
 28 30  1  0  0  0
 30 31  1  0  0  0
 31 32  1  0  0  0
 32 33  2  0  0  0
 33 34  1  0  0  0
 34 35  2  0  0  0
 35 36  1  0  0  0
 36 37  2  0  0  0
 19 14  1  0  0  0
 37 32  1  0  0  0
  8 11  1  0  0  0
  5  6  1  0  0  0
 25 26  1  0  0  0
 40 42  1  0  0  0
M  END
> <minimizedAffinity>
-6.90872

> <CNNscore>
0.1477859765

> <CNNaffinity>
5.6363782883

> <CNN_VS>
0.8329776525

> <CNNaffinity_variance>
0.2733889520

$$$$
[H]OC(=O)C([H])([H])C([H])(C(=O)C([H])([H])Oc1c([H])c([H])c([H])c([H])c1[H])N([H])C(=O)[C@@]([H])(N([H])C(=O)[C@@]([H])(N([H])C(=O)OC([H])([H])c1c([H])c([H])c([H])c([H])c1[H])C([H])(C([H])([H])[H])C([H])([H])[H])C([H])([H])[H]


 42 43  0  0  0  0  0  0  0  0999 V2000
   36.9493   14.6475  -10.6391 C   0  0  0  0  0  0  0  0  0  0  0  0
   38.2928   15.1624  -10.1552 C   0  0  0  0  0  0  0  0  0  0  0  0
   36.5177   13.4489  -12.7570 C   0  0  0  0  0  0  0  0  0  0  0  0
   36.0216   12.5362  -12.0354 O   0  0  0  0  0  0  0  0  0  0  0  0
   37.0392   14.5894  -12.1060 N   0  0  0  0  0  0  0  0  0  0  0  0
   37.4881   15.4072  -12.5630 H   0  0  0  0  0  0  0  0  0  0  0  0
   36.5398   13.3138  -14.2447 C   0  0  0  0  0  0  0  0  0  0  0  0
   37.7501   12.7202  -14.7157 N   0  0  0  0  0  0  0  0  0  0  0  0
   39.0112   13.3363  -14.8291 C   0  0  0  0  0  0  0  0  0  0  0  0
   39.1713   14.5457  -14.5036 O   0  0  0  0  0  0  0  0  0  0  0  0
   37.6902   11.6969  -15.0085 H   0  0  0  0  0  0  0  0  0  0  0  0
   40.1217   12.6626  -15.2988 O   0  0  0  0  0  0  0  0  0  0  0  0
   41.0058   13.2332  -16.1877 C   0  0  0  0  0  0  0  0  0  0  0  0
   42.4345   12.9778  -15.9760 C   0  0  0  0  0  0  0  0  0  0  0  0
   43.1057   12.1360  -16.8752 C   0  0  0  0  0  0  0  0  0  0  0  0
   44.4234   11.8479  -16.7479 C   0  0  0  0  0  0  0  0  0  0  0  0
   45.1537   12.3954  -15.6968 C   0  0  0  0  0  0  0  0  0  0  0  0
   44.5310   13.2273  -14.7922 C   0  0  0  0  0  0  0  0  0  0  0  0
   43.1941   13.4977  -14.9507 C   0  0  0  0  0  0  0  0  0  0  0  0
   34.1475   13.5271  -14.6617 C   0  0  0  0  0  0  0  0  0  0  0  0
   35.3037   12.5522  -14.7124 C   0  0  0  0  0  0  0  0  0  0  0  0
   35.4722   11.9347  -16.0448 C   0  0  0  0  0  0  0  0  0  0  0  0
   35.8362   15.5322  -10.2824 C   0  0  0  0  0  0  0  0  0  0  0  0
   35.6162   16.5710  -10.9544 O   0  0  0  0  0  0  0  0  0  0  0  0
   34.9770   15.2691   -9.1925 N   0  0  0  0  0  0  0  0  0  0  0  0
   35.1253   14.4283   -8.6210 H   0  0  0  0  0  0  0  0  0  0  0  0
   33.8772   16.1734   -8.8563 C   0  0  0  0  0  0  0  0  0  0  0  0
   34.1469   16.9388   -7.6511 C   0  0  0  0  0  0  0  0  0  0  0  0
   33.1385   17.4241   -7.0873 O   0  0  0  0  0  0  0  0  0  0  0  0
   35.4166   17.2414   -6.9638 C   0  0  0  0  0  0  0  0  0  0  0  0
   36.3494   16.3886   -6.7448 O   0  0  0  0  0  0  0  0  0  0  0  0
   37.3021   15.5201   -6.5214 C   0  0  0  0  0  0  0  0  0  0  0  0
   37.2685   14.1657   -6.8243 C   0  0  0  0  0  0  0  0  0  0  0  0
   38.2912   13.3412   -6.5602 C   0  0  0  0  0  0  0  0  0  0  0  0
   39.4320   13.8147   -5.9682 C   0  0  0  0  0  0  0  0  0  0  0  0
   39.5376   15.1515   -5.6375 C   0  0  0  0  0  0  0  0  0  0  0  0
   38.4987   15.9655   -5.9113 C   0  0  0  0  0  0  0  0  0  0  0  0
   32.5885   15.4119   -8.7306 C   0  0  0  0  0  0  0  0  0  0  0  0
   31.5388   15.8001   -9.6732 C   0  0  0  0  0  0  0  0  0  0  0  0
   30.2703   16.1342   -9.2921 O   0  0  0  0  0  0  0  0  0  0  0  0
   31.8293   15.8280  -10.9134 O   0  0  0  0  0  0  0  0  0  0  0  0
   29.6842   16.8416   -9.7289 H   0  0  0  0  0  0  0  0  0  0  0  0
 20 21  1  0  0  0
 21 22  1  0  0  0
 21  7  1  0  0  0
  7  8  1  0  0  0
  8  9  1  0  0  0
  9 10  2  0  0  0
  9 12  1  0  0  0
 12 13  1  0  0  0
 13 14  1  0  0  0
 14 15  2  0  0  0
 15 16  1  0  0  0
 16 17  2  0  0  0
 17 18  1  0  0  0
 18 19  2  0  0  0
  7  3  1  0  0  0
  3  4  2  0  0  0
  3  5  1  0  0  0
  5  1  1  0  0  0
  1  2  1  0  0  0
  1 23  1  0  0  0
 23 24  2  0  0  0
 23 25  1  0  0  0
 25 27  1  0  0  0
 27 38  1  0  0  0
 38 39  1  0  0  0
 39 40  1  0  0  0
 39 41  2  0  0  0
 27 28  1  0  0  0
 28 29  2  0  0  0
 28 30  1  0  0  0
 30 31  1  0  0  0
 31 32  1  0  0  0
 32 33  2  0  0  0
 33 34  1  0  0  0
 34 35  2  0  0  0
 35 36  1  0  0  0
 36 37  2  0  0  0
 19 14  1  0  0  0
 37 32  1  0  0  0
  8 11  1  0  0  0
  5  6  1  0  0  0
 25 26  1  0  0  0
 40 42  1  0  0  0
M  END
> <minimizedAffinity>
-6.85303

> <CNNscore>
0.1476636529

> <CNNaffinity>
5.8091683388

> <CNN_VS>
0.8578030467

> <CNNaffinity_variance>
0.2867312133

$$$$
[H]C1=C([H])C([H])(F)C([H])([H])C([H])=C1N([H])C(=O)C1(C(=O)N([H])c2c([H])c([H])c(Oc3c([H])c([H])nc4c([H])c(OC([H])([H])C([H])([H])C([H])([H])N5C([H])([H])C([H])([H])C([H])([H])C([H])([H])C5([H])[H])c(OC([H])([H])[H])c([H])c34)c(F)c2[H])C([H])([H])C1([H])[H]


 48 53  0  0  0  0  0  0  0  0999 V2000
   35.8114   15.7237   -8.2990 C   0  0  0  0  0  0  0  0  0  0  0  0
   34.5979   16.0410   -8.8713 C   0  0  0  0  0  0  0  0  0  0  0  0
   34.3435   15.7281  -10.2073 C   0  0  0  0  0  0  0  0  0  0  0  0
   35.2561   15.1075  -11.0019 C   0  0  0  0  0  0  0  0  0  0  0  0
   36.4749   14.7897  -10.4250 C   0  0  0  0  0  0  0  0  0  0  0  0
   36.7369   15.0945   -9.1067 C   0  0  0  0  0  0  0  0  0  0  0  0
   37.9764   14.7733   -8.6122 F   0  0  0  0  0  0  0  0  0  0  0  0
   35.0697   14.7935  -12.3780 N   0  0  0  0  0  0  0  0  0  0  0  0
   35.0927   13.4948  -12.8732 C   0  0  0  0  0  0  0  0  0  0  0  0
   35.2626   12.5690  -11.9856 O   0  0  0  0  0  0  0  0  0  0  0  0
   34.8796   15.6496  -12.9704 H   0  0  0  0  0  0  0  0  0  0  0  0
   34.9451   12.9952  -14.2593 C   0  0  0  0  0  0  0  0  0  0  0  0
   33.7879   12.0717  -14.4970 C   0  0  0  0  0  0  0  0  0  0  0  0
   33.6635   13.4872  -14.8904 C   0  0  0  0  0  0  0  0  0  0  0  0
   36.0780   12.7345  -15.1613 C   0  0  0  0  0  0  0  0  0  0  0  0
   36.8086   13.7971  -15.3849 O   0  0  0  0  0  0  0  0  0  0  0  0
   36.4528   11.5541  -15.7870 N   0  0  0  0  0  0  0  0  0  0  0  0
   35.8926   10.6891  -15.6993 H   0  0  0  0  0  0  0  0  0  0  0  0
   37.6078   11.4683  -16.6363 C   0  0  0  0  0  0  0  0  0  0  0  0
   37.5461   10.9156  -17.8315 C   0  0  0  0  0  0  0  0  0  0  0  0
   38.7271   10.8190  -18.7168 C   0  0  0  0  0  0  0  0  0  0  0  0
   39.9815   11.4110  -18.2253 C   0  0  0  0  0  0  0  0  0  0  0  0
   40.4041   12.3770  -19.1579 F   0  0  0  0  0  0  0  0  0  0  0  0
   39.9383   11.9964  -16.8843 C   0  0  0  0  0  0  0  0  0  0  0  0
   38.8506   12.0235  -16.1550 C   0  0  0  0  0  0  0  0  0  0  0  0
   36.0889   16.0252   -6.9762 O   0  0  0  0  0  0  0  0  0  0  0  0
   33.5340   18.7501   -5.2177 C   0  0  0  0  0  0  0  0  0  0  0  0
   34.3842   17.8383   -5.8048 C   0  0  0  0  0  0  0  0  0  0  0  0
   35.7326   18.1083   -5.9380 C   0  0  0  0  0  0  0  0  0  0  0  0
   36.6193   17.1974   -6.5298 C   0  0  0  0  0  0  0  0  0  0  0  0
   37.9593   17.4862   -6.6504 C   0  0  0  0  0  0  0  0  0  0  0  0
   38.4443   18.6950   -6.1823 C   0  0  0  0  0  0  0  0  0  0  0  0
   37.5916   19.5649   -5.6166 N   0  0  0  0  0  0  0  0  0  0  0  0
   36.2744   19.2929   -5.4915 C   0  0  0  0  0  0  0  0  0  0  0  0
   35.4051   20.2039   -4.9015 C   0  0  0  0  0  0  0  0  0  0  0  0
   34.0460   19.9443   -4.7613 C   0  0  0  0  0  0  0  0  0  0  0  0
   31.3007   18.6065   -6.1901 C   0  0  0  0  0  0  0  0  0  0  0  0
   32.1766   18.4844   -5.0801 O   0  0  0  0  0  0  0  0  0  0  0  0
   33.1746   20.8497   -4.1745 O   0  0  0  0  0  0  0  0  0  0  0  0
   33.3333   22.2193   -4.5195 C   0  0  0  0  0  0  0  0  0  0  0  0
   32.3719   22.5450   -5.6530 C   0  0  0  0  0  0  0  0  0  0  0  0
   32.9697   22.0564   -6.9322 C   0  0  0  0  0  0  0  0  0  0  0  0
   33.3658   23.1555   -7.7572 N   0  0  0  0  0  0  0  0  0  0  0  0
   33.8815   24.2455   -6.9258 C   0  0  0  0  0  0  0  0  0  0  0  0
   35.3655   24.3765   -7.0351 C   0  0  0  0  0  0  0  0  0  0  0  0
   36.0988   23.0534   -7.0950 C   0  0  0  0  0  0  0  0  0  0  0  0
   35.5489   22.1308   -8.1308 C   0  0  0  0  0  0  0  0  0  0  0  0
   34.3411   22.7761   -8.7540 C   0  0  0  0  0  0  0  0  0  0  0  0
 37 38  1  0  0  0
 38 27  1  0  0  0
 27 28  2  0  0  0
 28 29  1  0  0  0
 29 30  2  0  0  0
 30 26  1  0  0  0
 26  1  1  0  0  0
  1  2  2  0  0  0
  2  3  1  0  0  0
  3  4  2  0  0  0
  4  8  1  0  0  0
  8  9  1  0  0  0
  9 10  2  0  0  0
  9 12  1  0  0  0
 12 13  1  0  0  0
 13 14  1  0  0  0
 12 15  1  0  0  0
 15 16  2  0  0  0
 15 17  1  0  0  0
 17 19  1  0  0  0
 19 20  2  0  0  0
 20 21  1  0  0  0
 21 22  1  0  0  0
 22 23  1  0  0  0
 22 24  1  0  0  0
 24 25  2  0  0  0
  4  5  1  0  0  0
  5  6  2  0  0  0
  6  7  1  0  0  0
 30 31  1  0  0  0
 31 32  2  0  0  0
 32 33  1  0  0  0
 33 34  2  0  0  0
 34 35  1  0  0  0
 35 36  2  0  0  0
 36 39  1  0  0  0
 39 40  1  0  0  0
 40 41  1  0  0  0
 41 42  1  0  0  0
 42 43  1  0  0  0
 43 44  1  0  0  0
 44 45  1  0  0  0
 45 46  1  0  0  0
 46 47  1  0  0  0
 47 48  1  0  0  0
 36 27  1  0  0  0
 48 43  1  0  0  0
 34 29  1  0  0  0
  6  1  1  0  0  0
 14 12  1  0  0  0
 25 19  1  0  0  0
  8 11  1  0  0  0
 17 18  1  0  0  0
M  END
> <minimizedAffinity>
-8.43793

> <CNNscore>
0.0565633401

> <CNNaffinity>
6.5419769287

> <CNN_VS>
0.3700360656

> <CNNaffinity_variance>
0.2594388127

$$$$
[H]C1=C([H])C([H])(F)C([H])([H])C([H])=C1N([H])C(=O)C1(C(=O)N([H])c2c([H])c([H])c(Oc3c([H])c([H])nc4c([H])c(OC([H])([H])C([H])([H])C([H])([H])N5C([H])([H])C([H])([H])C([H])([H])C([H])([H])C5([H])[H])c(OC([H])([H])[H])c([H])c34)c(F)c2[H])C([H])([H])C1([H])[H]


 48 53  0  0  0  0  0  0  0  0999 V2000
   37.6628   15.8847   -8.6857 C   0  0  0  0  0  0  0  0  0  0  0  0
   36.3718   15.4026   -8.7246 C   0  0  0  0  0  0  0  0  0  0  0  0
   35.7859   15.0490   -9.9408 C   0  0  0  0  0  0  0  0  0  0  0  0
   36.4393   15.1575  -11.1286 C   0  0  0  0  0  0  0  0  0  0  0  0
   37.7363   15.6423  -11.0875 C   0  0  0  0  0  0  0  0  0  0  0  0
   38.3245   15.9949   -9.8919 C   0  0  0  0  0  0  0  0  0  0  0  0
   39.6029   16.4929   -9.9327 F   0  0  0  0  0  0  0  0  0  0  0  0
   35.8856   14.8467  -12.4029 N   0  0  0  0  0  0  0  0  0  0  0  0
   35.7090   13.5459  -12.8604 C   0  0  0  0  0  0  0  0  0  0  0  0
   36.0529   12.6171  -12.0281 O   0  0  0  0  0  0  0  0  0  0  0  0
   35.5949   15.7088  -12.9435 H   0  0  0  0  0  0  0  0  0  0  0  0
   35.1802   13.0476  -14.1505 C   0  0  0  0  0  0  0  0  0  0  0  0
   33.8258   12.4064  -14.0931 C   0  0  0  0  0  0  0  0  0  0  0  0
   33.9365   13.7988  -14.5651 C   0  0  0  0  0  0  0  0  0  0  0  0
   36.0236   12.5044  -15.2269 C   0  0  0  0  0  0  0  0  0  0  0  0
   35.3431   11.8311  -16.1193 O   0  0  0  0  0  0  0  0  0  0  0  0
   37.3959   12.6043  -15.4068 N   0  0  0  0  0  0  0  0  0  0  0  0
   38.0035   13.0746  -14.7144 H   0  0  0  0  0  0  0  0  0  0  0  0
   38.0674   12.0186  -16.5331 C   0  0  0  0  0  0  0  0  0  0  0  0
   37.4438   11.2053  -17.3621 C   0  0  0  0  0  0  0  0  0  0  0  0
   38.1223   10.5938  -18.5255 C   0  0  0  0  0  0  0  0  0  0  0  0
   39.5275   10.9670  -18.7523 C   0  0  0  0  0  0  0  0  0  0  0  0
   39.6302   11.5212  -20.0422 F   0  0  0  0  0  0  0  0  0  0  0  0
   40.1221   11.8747  -17.7697 C   0  0  0  0  0  0  0  0  0  0  0  0
   39.4536   12.3577  -16.7521 C   0  0  0  0  0  0  0  0  0  0  0  0
   38.2658   16.2440   -7.4920 O   0  0  0  0  0  0  0  0  0  0  0  0
   41.4184   13.5791   -7.4220 C   0  0  0  0  0  0  0  0  0  0  0  0
   40.3673   14.4700   -7.4483 C   0  0  0  0  0  0  0  0  0  0  0  0
   39.4706   14.5412   -6.3997 C   0  0  0  0  0  0  0  0  0  0  0  0
   38.3939   15.4396   -6.4006 C   0  0  0  0  0  0  0  0  0  0  0  0
   37.5138   15.4951   -5.3443 C   0  0  0  0  0  0  0  0  0  0  0  0
   37.6895   14.6513   -4.2613 C   0  0  0  0  0  0  0  0  0  0  0  0
   38.7216   13.7920   -4.2646 N   0  0  0  0  0  0  0  0  0  0  0  0
   39.5930   13.7285   -5.2948 C   0  0  0  0  0  0  0  0  0  0  0  0
   40.6577   12.8342   -5.2818 C   0  0  0  0  0  0  0  0  0  0  0  0
   41.5673   12.7526   -6.3307 C   0  0  0  0  0  0  0  0  0  0  0  0
   42.6733   14.6636   -9.2117 C   0  0  0  0  0  0  0  0  0  0  0  0
   42.3243   13.5028   -8.4735 O   0  0  0  0  0  0  0  0  0  0  0  0
   42.6303   11.8619   -6.3230 O   0  0  0  0  0  0  0  0  0  0  0  0
   43.1774   11.5159   -5.0578 C   0  0  0  0  0  0  0  0  0  0  0  0
   44.5858   12.0850   -4.9701 C   0  0  0  0  0  0  0  0  0  0  0  0
   44.5977   13.1530   -3.9252 C   0  0  0  0  0  0  0  0  0  0  0  0
   45.2637   14.3236   -4.4065 N   0  0  0  0  0  0  0  0  0  0  0  0
   44.8674   14.5918   -5.7908 C   0  0  0  0  0  0  0  0  0  0  0  0
   43.9560   15.7710   -5.8917 C   0  0  0  0  0  0  0  0  0  0  0  0
   42.9345   15.8583   -4.7778 C   0  0  0  0  0  0  0  0  0  0  0  0
   43.5442   15.7472   -3.4204 C   0  0  0  0  0  0  0  0  0  0  0  0
   45.0167   15.4813   -3.5773 C   0  0  0  0  0  0  0  0  0  0  0  0
 37 38  1  0  0  0
 38 27  1  0  0  0
 27 28  2  0  0  0
 28 29  1  0  0  0
 29 30  2  0  0  0
 30 26  1  0  0  0
 26  1  1  0  0  0
  1  2  2  0  0  0
  2  3  1  0  0  0
  3  4  2  0  0  0
  4  8  1  0  0  0
  8  9  1  0  0  0
  9 10  2  0  0  0
  9 12  1  0  0  0
 12 13  1  0  0  0
 13 14  1  0  0  0
 12 15  1  0  0  0
 15 16  2  0  0  0
 15 17  1  0  0  0
 17 19  1  0  0  0
 19 20  2  0  0  0
 20 21  1  0  0  0
 21 22  1  0  0  0
 22 23  1  0  0  0
 22 24  1  0  0  0
 24 25  2  0  0  0
  4  5  1  0  0  0
  5  6  2  0  0  0
  6  7  1  0  0  0
 30 31  1  0  0  0
 31 32  2  0  0  0
 32 33  1  0  0  0
 33 34  2  0  0  0
 34 35  1  0  0  0
 35 36  2  0  0  0
 36 39  1  0  0  0
 39 40  1  0  0  0
 40 41  1  0  0  0
 41 42  1  0  0  0
 42 43  1  0  0  0
 43 44  1  0  0  0
 44 45  1  0  0  0
 45 46  1  0  0  0
 46 47  1  0  0  0
 47 48  1  0  0  0
 36 27  1  0  0  0
 48 43  1  0  0  0
 34 29  1  0  0  0
  6  1  1  0  0  0
 14 12  1  0  0  0
 25 19  1  0  0  0
  8 11  1  0  0  0
 17 18  1  0  0  0
M  END
> <minimizedAffinity>
-7.98908

> <CNNscore>
0.0561705045

> <CNNaffinity>
6.4586343765

> <CNN_VS>
0.3627847433

> <CNNaffinity_variance>
0.3673867285

$$$$
[H]C1=C([H])C([H])(F)C([H])([H])C([H])=C1N([H])C(=O)C1(C(=O)N([H])c2c([H])c([H])c(Oc3c([H])c([H])nc4c([H])c(OC([H])([H])C([H])([H])C([H])([H])N5C([H])([H])C([H])([H])C([H])([H])C([H])([H])C5([H])[H])c(OC([H])([H])[H])c([H])c34)c(F)c2[H])C([H])([H])C1([H])[H]


 48 53  0  0  0  0  0  0  0  0999 V2000
   33.1091   15.5613  -10.2166 C   0  0  0  0  0  0  0  0  0  0  0  0
   34.4253   15.5035  -10.6227 C   0  0  0  0  0  0  0  0  0  0  0  0
   34.7544   15.0042  -11.8836 C   0  0  0  0  0  0  0  0  0  0  0  0
   33.8181   14.5568  -12.7625 C   0  0  0  0  0  0  0  0  0  0  0  0
   32.4961   14.6155  -12.3526 C   0  0  0  0  0  0  0  0  0  0  0  0
   32.1599   15.1063  -11.1094 C   0  0  0  0  0  0  0  0  0  0  0  0
   30.8319   15.1084  -10.7625 F   0  0  0  0  0  0  0  0  0  0  0  0
   34.0924   14.0055  -14.0462 N   0  0  0  0  0  0  0  0  0  0  0  0
   34.4706   12.6822  -14.2423 C   0  0  0  0  0  0  0  0  0  0  0  0
   34.5256   11.9597  -13.1705 O   0  0  0  0  0  0  0  0  0  0  0  0
   33.9443   14.7010  -14.8299 H   0  0  0  0  0  0  0  0  0  0  0  0
   34.8148   11.9586  -15.4875 C   0  0  0  0  0  0  0  0  0  0  0  0
   34.1176   10.6465  -15.6901 C   0  0  0  0  0  0  0  0  0  0  0  0
   33.6199   11.8366  -16.4040 C   0  0  0  0  0  0  0  0  0  0  0  0
   36.1421   12.0034  -16.1210 C   0  0  0  0  0  0  0  0  0  0  0  0
   36.0863   11.9680  -17.4281 O   0  0  0  0  0  0  0  0  0  0  0  0
   37.3974   12.0686  -15.5333 N   0  0  0  0  0  0  0  0  0  0  0  0
   37.5204   12.0456  -14.5066 H   0  0  0  0  0  0  0  0  0  0  0  0
   38.6061   12.1187  -16.3074 C   0  0  0  0  0  0  0  0  0  0  0  0
   39.5036   13.0669  -16.1255 C   0  0  0  0  0  0  0  0  0  0  0  0
   40.7522   13.1321  -16.9156 C   0  0  0  0  0  0  0  0  0  0  0  0
   40.9801   12.0585  -17.8959 C   0  0  0  0  0  0  0  0  0  0  0  0
   42.1990   11.4292  -17.5800 F   0  0  0  0  0  0  0  0  0  0  0  0
   39.9183   11.0583  -18.0179 C   0  0  0  0  0  0  0  0  0  0  0  0
   38.8296   11.0846  -17.2900 C   0  0  0  0  0  0  0  0  0  0  0  0
   32.7569   16.0506   -8.9700 O   0  0  0  0  0  0  0  0  0  0  0  0
   35.7956   15.8867   -6.1799 C   0  0  0  0  0  0  0  0  0  0  0  0
   34.7831   15.9438   -7.1129 C   0  0  0  0  0  0  0  0  0  0  0  0
   33.6022   15.2524   -6.9224 C   0  0  0  0  0  0  0  0  0  0  0  0
   32.5559   15.2949   -7.8550 C   0  0  0  0  0  0  0  0  0  0  0  0
   31.3872   14.5999   -7.6438 C   0  0  0  0  0  0  0  0  0  0  0  0
   31.2378   13.8442   -6.4939 C   0  0  0  0  0  0  0  0  0  0  0  0
   32.2425   13.8058   -5.6035 N   0  0  0  0  0  0  0  0  0  0  0  0
   33.3941   14.4842   -5.7986 C   0  0  0  0  0  0  0  0  0  0  0  0
   34.4242   14.4354   -4.8657 C   0  0  0  0  0  0  0  0  0  0  0  0
   35.6176   15.1266   -5.0455 C   0  0  0  0  0  0  0  0  0  0  0  0
   37.9414   16.1339   -7.3148 C   0  0  0  0  0  0  0  0  0  0  0  0
   36.9859   16.5803   -6.3653 O   0  0  0  0  0  0  0  0  0  0  0  0
   36.6483   15.0805   -4.1187 O   0  0  0  0  0  0  0  0  0  0  0  0
   36.3849   14.4197   -2.8883 C   0  0  0  0  0  0  0  0  0  0  0  0
   36.2775   15.4688   -1.7915 C   0  0  0  0  0  0  0  0  0  0  0  0
   34.8318   15.6680   -1.4708 C   0  0  0  0  0  0  0  0  0  0  0  0
   34.5767   17.0286   -1.1112 N   0  0  0  0  0  0  0  0  0  0  0  0
   35.4911   17.9171   -1.8322 C   0  0  0  0  0  0  0  0  0  0  0  0
   34.7944   18.6763   -2.9137 C   0  0  0  0  0  0  0  0  0  0  0  0
   33.7660   17.8651   -3.6727 C   0  0  0  0  0  0  0  0  0  0  0  0
   32.7976   17.1692   -2.7758 C   0  0  0  0  0  0  0  0  0  0  0  0
   33.2046   17.4159   -1.3486 C   0  0  0  0  0  0  0  0  0  0  0  0
 37 38  1  0  0  0
 38 27  1  0  0  0
 27 28  2  0  0  0
 28 29  1  0  0  0
 29 30  2  0  0  0
 30 26  1  0  0  0
 26  1  1  0  0  0
  1  2  2  0  0  0
  2  3  1  0  0  0
  3  4  2  0  0  0
  4  8  1  0  0  0
  8  9  1  0  0  0
  9 10  2  0  0  0
  9 12  1  0  0  0
 12 13  1  0  0  0
 13 14  1  0  0  0
 12 15  1  0  0  0
 15 16  2  0  0  0
 15 17  1  0  0  0
 17 19  1  0  0  0
 19 20  2  0  0  0
 20 21  1  0  0  0
 21 22  1  0  0  0
 22 23  1  0  0  0
 22 24  1  0  0  0
 24 25  2  0  0  0
  4  5  1  0  0  0
  5  6  2  0  0  0
  6  7  1  0  0  0
 30 31  1  0  0  0
 31 32  2  0  0  0
 32 33  1  0  0  0
 33 34  2  0  0  0
 34 35  1  0  0  0
 35 36  2  0  0  0
 36 39  1  0  0  0
 39 40  1  0  0  0
 40 41  1  0  0  0
 41 42  1  0  0  0
 42 43  1  0  0  0
 43 44  1  0  0  0
 44 45  1  0  0  0
 45 46  1  0  0  0
 46 47  1  0  0  0
 47 48  1  0  0  0
 36 27  1  0  0  0
 48 43  1  0  0  0
 34 29  1  0  0  0
  6  1  1  0  0  0
 14 12  1  0  0  0
 25 19  1  0  0  0
  8 11  1  0  0  0
 17 18  1  0  0  0
M  END
> <minimizedAffinity>
-8.64478

> <CNNscore>
0.0552607514

> <CNNaffinity>
6.3179655075

> <CNN_VS>
0.3491355181

> <CNNaffinity_variance>
0.5842363238

$$$$
[H]C1=C([H])C([H])(F)C([H])([H])C([H])=C1N([H])C(=O)C1(C(=O)N([H])c2c([H])c([H])c(Oc3c([H])c([H])nc4c([H])c(OC([H])([H])C([H])([H])C([H])([H])N5C([H])([H])C([H])([H])C([H])([H])C([H])([H])C5([H])[H])c(OC([H])([H])[H])c([H])c34)c(F)c2[H])C([H])([H])C1([H])[H]


 48 53  0  0  0  0  0  0  0  0999 V2000
   36.0878   17.0577   -8.8732 C   0  0  0  0  0  0  0  0  0  0  0  0
   34.9176   16.3304   -8.9248 C   0  0  0  0  0  0  0  0  0  0  0  0
   34.5302   15.6984  -10.1071 C   0  0  0  0  0  0  0  0  0  0  0  0
   35.2669   15.7624  -11.2484 C   0  0  0  0  0  0  0  0  0  0  0  0
   36.4422   16.4938  -11.1946 C   0  0  0  0  0  0  0  0  0  0  0  0
   36.8342   17.1223  -10.0323 C   0  0  0  0  0  0  0  0  0  0  0  0
   37.9968   17.8512  -10.0625 F   0  0  0  0  0  0  0  0  0  0  0  0
   34.9088   15.1699  -12.4925 N   0  0  0  0  0  0  0  0  0  0  0  0
   35.2295   13.8609  -12.8335 C   0  0  0  0  0  0  0  0  0  0  0  0
   35.8547   13.1905  -11.9206 O   0  0  0  0  0  0  0  0  0  0  0  0
   34.3468   15.8213  -13.1087 H   0  0  0  0  0  0  0  0  0  0  0  0
   34.9627   13.1019  -14.0766 C   0  0  0  0  0  0  0  0  0  0  0  0
   33.8807   12.0676  -13.9865 C   0  0  0  0  0  0  0  0  0  0  0  0
   33.5716   13.3717  -14.6009 C   0  0  0  0  0  0  0  0  0  0  0  0
   35.9966   12.7616  -15.0667 C   0  0  0  0  0  0  0  0  0  0  0  0
   36.7337   13.7873  -15.4094 O   0  0  0  0  0  0  0  0  0  0  0  0
   36.2752   11.5416  -15.6662 N   0  0  0  0  0  0  0  0  0  0  0  0
   35.7006   10.7011  -15.4842 H   0  0  0  0  0  0  0  0  0  0  0  0
   37.3413   11.3776  -16.6146 C   0  0  0  0  0  0  0  0  0  0  0  0
   37.1266   10.8755  -17.8143 C   0  0  0  0  0  0  0  0  0  0  0  0
   38.2143   10.6995  -18.8010 C   0  0  0  0  0  0  0  0  0  0  0  0
   39.5567   11.1535  -18.4045 C   0  0  0  0  0  0  0  0  0  0  0  0
   39.9910   12.1077  -19.3439 F   0  0  0  0  0  0  0  0  0  0  0  0
   39.6829   11.6929  -17.0495 C   0  0  0  0  0  0  0  0  0  0  0  0
   38.6678   11.7964  -16.2281 C   0  0  0  0  0  0  0  0  0  0  0  0
   36.4931   17.6955   -7.7128 O   0  0  0  0  0  0  0  0  0  0  0  0
   39.6681   15.1464   -7.0295 C   0  0  0  0  0  0  0  0  0  0  0  0
   38.6097   15.9981   -7.2606 C   0  0  0  0  0  0  0  0  0  0  0  0
   37.6728   16.2496   -6.2768 C   0  0  0  0  0  0  0  0  0  0  0  0
   36.5877   17.1130   -6.4854 C   0  0  0  0  0  0  0  0  0  0  0  0
   35.6674   17.3507   -5.4905 C   0  0  0  0  0  0  0  0  0  0  0  0
   35.8102   16.7288   -4.2623 C   0  0  0  0  0  0  0  0  0  0  0  0
   36.8506   15.9022   -4.0669 N   0  0  0  0  0  0  0  0  0  0  0  0
   37.7613   15.6613   -5.0349 C   0  0  0  0  0  0  0  0  0  0  0  0
   38.8340   14.8040   -4.8156 C   0  0  0  0  0  0  0  0  0  0  0  0
   39.7838   14.5425   -5.7973 C   0  0  0  0  0  0  0  0  0  0  0  0
   41.2082   15.9545   -8.7409 C   0  0  0  0  0  0  0  0  0  0  0  0
   40.6144   14.8896   -8.0148 O   0  0  0  0  0  0  0  0  0  0  0  0
   40.8549   13.6877   -5.5840 O   0  0  0  0  0  0  0  0  0  0  0  0
   42.1508   14.2697   -5.5421 C   0  0  0  0  0  0  0  0  0  0  0  0
   42.1116   15.4653   -4.6019 C   0  0  0  0  0  0  0  0  0  0  0  0
   42.6364   16.6573   -5.3342 C   0  0  0  0  0  0  0  0  0  0  0  0
   41.7262   17.7555   -5.2301 N   0  0  0  0  0  0  0  0  0  0  0  0
   40.9661   17.6596   -3.9816 C   0  0  0  0  0  0  0  0  0  0  0  0
   41.4060   18.6777   -2.9810 C   0  0  0  0  0  0  0  0  0  0  0  0
   42.9030   18.9004   -2.9448 C   0  0  0  0  0  0  0  0  0  0  0  0
   43.4837   19.1660   -4.2934 C   0  0  0  0  0  0  0  0  0  0  0  0
   42.3909   19.0358   -5.3192 C   0  0  0  0  0  0  0  0  0  0  0  0
 37 38  1  0  0  0
 38 27  1  0  0  0
 27 28  2  0  0  0
 28 29  1  0  0  0
 29 30  2  0  0  0
 30 26  1  0  0  0
 26  1  1  0  0  0
  1  2  2  0  0  0
  2  3  1  0  0  0
  3  4  2  0  0  0
  4  8  1  0  0  0
  8  9  1  0  0  0
  9 10  2  0  0  0
  9 12  1  0  0  0
 12 13  1  0  0  0
 13 14  1  0  0  0
 12 15  1  0  0  0
 15 16  2  0  0  0
 15 17  1  0  0  0
 17 19  1  0  0  0
 19 20  2  0  0  0
 20 21  1  0  0  0
 21 22  1  0  0  0
 22 23  1  0  0  0
 22 24  1  0  0  0
 24 25  2  0  0  0
  4  5  1  0  0  0
  5  6  2  0  0  0
  6  7  1  0  0  0
 30 31  1  0  0  0
 31 32  2  0  0  0
 32 33  1  0  0  0
 33 34  2  0  0  0
 34 35  1  0  0  0
 35 36  2  0  0  0
 36 39  1  0  0  0
 39 40  1  0  0  0
 40 41  1  0  0  0
 41 42  1  0  0  0
 42 43  1  0  0  0
 43 44  1  0  0  0
 44 45  1  0  0  0
 45 46  1  0  0  0
 46 47  1  0  0  0
 47 48  1  0  0  0
 36 27  1  0  0  0
 48 43  1  0  0  0
 34 29  1  0  0  0
  6  1  1  0  0  0
 14 12  1  0  0  0
 25 19  1  0  0  0
  8 11  1  0  0  0
 17 18  1  0  0  0
M  END
> <minimizedAffinity>
-8.11668

> <CNNscore>
0.0517268814

> <CNNaffinity>
6.4489545822

> <CNN_VS>
0.3335843086

> <CNNaffinity_variance>
0.4146973193

$$$$
[H]C1=C([H])C([H])(F)C([H])([H])C([H])=C1N([H])C(=O)C1(C(=O)N([H])c2c([H])c([H])c(Oc3c([H])c([H])nc4c([H])c(OC([H])([H])C([H])([H])C([H])([H])N5C([H])([H])C([H])([H])C([H])([H])C([H])([H])C5([H])[H])c(OC([H])([H])[H])c([H])c34)c(F)c2[H])C([H])([H])C1([H])[H]


 48 53  0  0  0  0  0  0  0  0999 V2000
   35.6389   15.6420   -8.9175 C   0  0  0  0  0  0  0  0  0  0  0  0
   34.5153   16.0049   -9.6295 C   0  0  0  0  0  0  0  0  0  0  0  0
   34.3652   15.6130  -10.9604 C   0  0  0  0  0  0  0  0  0  0  0  0
   35.2962   14.8689  -11.6154 C   0  0  0  0  0  0  0  0  0  0  0  0
   36.4244   14.5056  -10.8984 C   0  0  0  0  0  0  0  0  0  0  0  0
   36.5832   14.8875   -9.5837 C   0  0  0  0  0  0  0  0  0  0  0  0
   37.7396   14.5130   -8.9461 F   0  0  0  0  0  0  0  0  0  0  0  0
   35.2172   14.4679  -12.9792 N   0  0  0  0  0  0  0  0  0  0  0  0
   35.0940   13.1418  -13.3777 C   0  0  0  0  0  0  0  0  0  0  0  0
   35.0194   12.2812  -12.4147 O   0  0  0  0  0  0  0  0  0  0  0  0
   35.2285   15.2882  -13.6477 H   0  0  0  0  0  0  0  0  0  0  0  0
   35.0256   12.5514  -14.7339 C   0  0  0  0  0  0  0  0  0  0  0  0
   33.9313   11.5496  -14.9517 C   0  0  0  0  0  0  0  0  0  0  0  0
   33.7426   12.9290  -15.4369 C   0  0  0  0  0  0  0  0  0  0  0  0
   36.2037   12.3027  -15.5797 C   0  0  0  0  0  0  0  0  0  0  0  0
   35.9073   12.1929  -16.8497 O   0  0  0  0  0  0  0  0  0  0  0  0
   37.5362   12.1676  -15.2171 N   0  0  0  0  0  0  0  0  0  0  0  0
   37.8367   12.1891  -14.2277 H   0  0  0  0  0  0  0  0  0  0  0  0
   38.5751   11.9372  -16.1818 C   0  0  0  0  0  0  0  0  0  0  0  0
   38.5598   10.8839  -16.9742 C   0  0  0  0  0  0  0  0  0  0  0  0
   39.6229   10.6327  -17.9714 C   0  0  0  0  0  0  0  0  0  0  0  0
   40.6905   11.6397  -18.0788 C   0  0  0  0  0  0  0  0  0  0  0  0
   40.7159   12.1105  -19.4051 F   0  0  0  0  0  0  0  0  0  0  0  0
   40.6110   12.7680  -17.1495 C   0  0  0  0  0  0  0  0  0  0  0  0
   39.6414   12.9056  -16.2796 C   0  0  0  0  0  0  0  0  0  0  0  0
   35.8122   16.0199   -7.5966 O   0  0  0  0  0  0  0  0  0  0  0  0
   32.5593   18.1360   -6.1874 C   0  0  0  0  0  0  0  0  0  0  0  0
   33.6453   17.4318   -6.6604 C   0  0  0  0  0  0  0  0  0  0  0  0
   34.0319   16.2432   -6.0718 C   0  0  0  0  0  0  0  0  0  0  0  0
   35.1317   15.5065   -6.5345 C   0  0  0  0  0  0  0  0  0  0  0  0
   35.4979   14.3237   -5.9343 C   0  0  0  0  0  0  0  0  0  0  0  0
   34.7724   13.8498   -4.8551 C   0  0  0  0  0  0  0  0  0  0  0  0
   33.7201   14.5587   -4.4147 N   0  0  0  0  0  0  0  0  0  0  0  0
   33.3499   15.7206   -4.9958 C   0  0  0  0  0  0  0  0  0  0  0  0
   32.2565   16.4416   -4.5287 C   0  0  0  0  0  0  0  0  0  0  0  0
   31.8570   17.6391   -5.1122 C   0  0  0  0  0  0  0  0  0  0  0  0
   32.8014   20.5520   -6.4280 C   0  0  0  0  0  0  0  0  0  0  0  0
   32.1648   19.3322   -6.7754 O   0  0  0  0  0  0  0  0  0  0  0  0
   30.7678   18.3625   -4.6496 O   0  0  0  0  0  0  0  0  0  0  0  0
   29.4849   17.7690   -4.7977 C   0  0  0  0  0  0  0  0  0  0  0  0
   29.1579   17.6929   -6.2817 C   0  0  0  0  0  0  0  0  0  0  0  0
   28.7021   16.3043   -6.5926 C   0  0  0  0  0  0  0  0  0  0  0  0
   29.0461   15.9479   -7.9343 N   0  0  0  0  0  0  0  0  0  0  0  0
   30.4607   16.2358   -8.1820 C   0  0  0  0  0  0  0  0  0  0  0  0
   31.2797   14.9886   -8.2534 C   0  0  0  0  0  0  0  0  0  0  0  0
   30.8841   13.9322   -7.2437 C   0  0  0  0  0  0  0  0  0  0  0  0
   29.4223   13.6335   -7.2580 C   0  0  0  0  0  0  0  0  0  0  0  0
   28.7528   14.5643   -8.2320 C   0  0  0  0  0  0  0  0  0  0  0  0
 37 38  1  0  0  0
 38 27  1  0  0  0
 27 28  2  0  0  0
 28 29  1  0  0  0
 29 30  2  0  0  0
 30 26  1  0  0  0
 26  1  1  0  0  0
  1  2  2  0  0  0
  2  3  1  0  0  0
  3  4  2  0  0  0
  4  8  1  0  0  0
  8  9  1  0  0  0
  9 10  2  0  0  0
  9 12  1  0  0  0
 12 13  1  0  0  0
 13 14  1  0  0  0
 12 15  1  0  0  0
 15 16  2  0  0  0
 15 17  1  0  0  0
 17 19  1  0  0  0
 19 20  2  0  0  0
 20 21  1  0  0  0
 21 22  1  0  0  0
 22 23  1  0  0  0
 22 24  1  0  0  0
 24 25  2  0  0  0
  4  5  1  0  0  0
  5  6  2  0  0  0
  6  7  1  0  0  0
 30 31  1  0  0  0
 31 32  2  0  0  0
 32 33  1  0  0  0
 33 34  2  0  0  0
 34 35  1  0  0  0
 35 36  2  0  0  0
 36 39  1  0  0  0
 39 40  1  0  0  0
 40 41  1  0  0  0
 41 42  1  0  0  0
 42 43  1  0  0  0
 43 44  1  0  0  0
 44 45  1  0  0  0
 45 46  1  0  0  0
 46 47  1  0  0  0
 47 48  1  0  0  0
 36 27  1  0  0  0
 48 43  1  0  0  0
 34 29  1  0  0  0
  6  1  1  0  0  0
 14 12  1  0  0  0
 25 19  1  0  0  0
  8 11  1  0  0  0
 17 18  1  0  0  0
M  END
> <minimizedAffinity>
-8.45886

> <CNNscore>
0.0452030599

> <CNNaffinity>
6.5463585854

> <CNN_VS>
0.2959154248

> <CNNaffinity_variance>
0.6741036177

$$$$
[H]C1=C([H])C([H])(F)C([H])([H])C([H])=C1N([H])C(=O)C1(C(=O)N([H])c2c([H])c([H])c(Oc3c([H])c([H])nc4c([H])c(OC([H])([H])C([H])([H])C([H])([H])N5C([H])([H])C([H])([H])C([H])([H])C([H])([H])C5([H])[H])c(OC([H])([H])[H])c([H])c34)c(F)c2[H])C([H])([H])C1([H])[H]


 48 53  0  0  0  0  0  0  0  0999 V2000
   36.3016   17.0231   -8.8951 C   0  0  0  0  0  0  0  0  0  0  0  0
   35.1704   16.2350   -8.8891 C   0  0  0  0  0  0  0  0  0  0  0  0
   34.7356   15.6142  -10.0608 C   0  0  0  0  0  0  0  0  0  0  0  0
   35.3872   15.7479  -11.2470 C   0  0  0  0  0  0  0  0  0  0  0  0
   36.5236   16.5403  -11.2510 C   0  0  0  0  0  0  0  0  0  0  0  0
   36.9616   17.1585  -10.0997 C   0  0  0  0  0  0  0  0  0  0  0  0
   38.0797   17.9498  -10.1867 F   0  0  0  0  0  0  0  0  0  0  0  0
   34.9754   15.1697  -12.4811 N   0  0  0  0  0  0  0  0  0  0  0  0
   35.2831   13.8657  -12.8520 C   0  0  0  0  0  0  0  0  0  0  0  0
   35.9495   13.1858  -11.9760 O   0  0  0  0  0  0  0  0  0  0  0  0
   34.3853   15.8272  -13.0638 H   0  0  0  0  0  0  0  0  0  0  0  0
   34.9629   13.1213  -14.0913 C   0  0  0  0  0  0  0  0  0  0  0  0
   33.8655   12.1061  -13.9739 C   0  0  0  0  0  0  0  0  0  0  0  0
   33.5609   13.4202  -14.5688 C   0  0  0  0  0  0  0  0  0  0  0  0
   35.9581   12.7698  -15.1164 C   0  0  0  0  0  0  0  0  0  0  0  0
   36.4903   13.8174  -15.6927 O   0  0  0  0  0  0  0  0  0  0  0  0
   36.3835   11.5187  -15.5395 N   0  0  0  0  0  0  0  0  0  0  0  0
   35.9686   10.6474  -15.1673 H   0  0  0  0  0  0  0  0  0  0  0  0
   37.3851   11.3509  -16.5551 C   0  0  0  0  0  0  0  0  0  0  0  0
   37.0862   10.8745  -17.7473 C   0  0  0  0  0  0  0  0  0  0  0  0
   38.1068   10.6951  -18.8027 C   0  0  0  0  0  0  0  0  0  0  0  0
   39.4803   11.1156  -18.4831 C   0  0  0  0  0  0  0  0  0  0  0  0
   39.8750   12.0778  -19.4317 F   0  0  0  0  0  0  0  0  0  0  0  0
   39.7012   11.6282  -17.1298 C   0  0  0  0  0  0  0  0  0  0  0  0
   38.7414   11.7368  -16.2451 C   0  0  0  0  0  0  0  0  0  0  0  0
   36.7524   17.6513   -7.7463 O   0  0  0  0  0  0  0  0  0  0  0  0
   40.5361   16.0106   -7.5551 C   0  0  0  0  0  0  0  0  0  0  0  0
   39.2740   16.5597   -7.6220 C   0  0  0  0  0  0  0  0  0  0  0  0
   38.4033   16.4703   -6.5530 C   0  0  0  0  0  0  0  0  0  0  0  0
   37.1146   17.0215   -6.5944 C   0  0  0  0  0  0  0  0  0  0  0  0
   36.2645   16.9226   -5.5169 C   0  0  0  0  0  0  0  0  0  0  0  0
   36.6834   16.2680   -4.3717 C   0  0  0  0  0  0  0  0  0  0  0  0
   37.9183   15.7410   -4.3363 N   0  0  0  0  0  0  0  0  0  0  0  0
   38.7625   15.8322   -5.3868 C   0  0  0  0  0  0  0  0  0  0  0  0
   40.0387   15.2826   -5.3333 C   0  0  0  0  0  0  0  0  0  0  0  0
   40.9246   15.3657   -6.4021 C   0  0  0  0  0  0  0  0  0  0  0  0
   40.9320   16.1207   -9.9603 C   0  0  0  0  0  0  0  0  0  0  0  0
   41.4171   16.0975   -8.6268 O   0  0  0  0  0  0  0  0  0  0  0  0
   42.1981   14.8184   -6.3542 O   0  0  0  0  0  0  0  0  0  0  0  0
   42.6098   14.2409   -5.1226 C   0  0  0  0  0  0  0  0  0  0  0  0
   43.5039   13.0476   -5.4253 C   0  0  0  0  0  0  0  0  0  0  0  0
   44.2931   13.3512   -6.6572 C   0  0  0  0  0  0  0  0  0  0  0  0
   44.7160   12.1440   -7.2969 N   0  0  0  0  0  0  0  0  0  0  0  0
   45.0448   12.4091   -8.6994 C   0  0  0  0  0  0  0  0  0  0  0  0
   46.5181   12.3737   -8.9434 C   0  0  0  0  0  0  0  0  0  0  0  0
   47.3416   12.9994   -7.8379 C   0  0  0  0  0  0  0  0  0  0  0  0
   46.9940   12.4734   -6.4856 C   0  0  0  0  0  0  0  0  0  0  0  0
   45.8351   11.5240   -6.6245 C   0  0  0  0  0  0  0  0  0  0  0  0
 37 38  1  0  0  0
 38 27  1  0  0  0
 27 28  2  0  0  0
 28 29  1  0  0  0
 29 30  2  0  0  0
 30 26  1  0  0  0
 26  1  1  0  0  0
  1  2  2  0  0  0
  2  3  1  0  0  0
  3  4  2  0  0  0
  4  8  1  0  0  0
  8  9  1  0  0  0
  9 10  2  0  0  0
  9 12  1  0  0  0
 12 13  1  0  0  0
 13 14  1  0  0  0
 12 15  1  0  0  0
 15 16  2  0  0  0
 15 17  1  0  0  0
 17 19  1  0  0  0
 19 20  2  0  0  0
 20 21  1  0  0  0
 21 22  1  0  0  0
 22 23  1  0  0  0
 22 24  1  0  0  0
 24 25  2  0  0  0
  4  5  1  0  0  0
  5  6  2  0  0  0
  6  7  1  0  0  0
 30 31  1  0  0  0
 31 32  2  0  0  0
 32 33  1  0  0  0
 33 34  2  0  0  0
 34 35  1  0  0  0
 35 36  2  0  0  0
 36 39  1  0  0  0
 39 40  1  0  0  0
 40 41  1  0  0  0
 41 42  1  0  0  0
 42 43  1  0  0  0
 43 44  1  0  0  0
 44 45  1  0  0  0
 45 46  1  0  0  0
 46 47  1  0  0  0
 47 48  1  0  0  0
 36 27  1  0  0  0
 48 43  1  0  0  0
 34 29  1  0  0  0
  6  1  1  0  0  0
 14 12  1  0  0  0
 25 19  1  0  0  0
  8 11  1  0  0  0
 17 18  1  0  0  0
M  END
> <minimizedAffinity>
-7.91327

> <CNNscore>
0.0446124822

> <CNNaffinity>
6.5459852219

> <CNN_VS>
0.2920326591

> <CNNaffinity_variance>
0.4156272411

$$$$
[H]C1=C([H])C([H])(F)C([H])([H])C([H])=C1N([H])C(=O)C1(C(=O)N([H])c2c([H])c([H])c(Oc3c([H])c([H])nc4c([H])c(OC([H])([H])C([H])([H])C([H])([H])N5C([H])([H])C([H])([H])C([H])([H])C([H])([H])C5([H])[H])c(OC([H])([H])[H])c([H])c34)c(F)c2[H])C([H])([H])C1([H])[H]


 48 53  0  0  0  0  0  0  0  0999 V2000
   36.5618   17.1131   -8.9031 C   0  0  0  0  0  0  0  0  0  0  0  0
   35.3075   16.5494   -9.0030 C   0  0  0  0  0  0  0  0  0  0  0  0
   34.9062   15.9235  -10.1839 C   0  0  0  0  0  0  0  0  0  0  0  0
   35.7100   15.8362  -11.2774 C   0  0  0  0  0  0  0  0  0  0  0  0
   36.9697   16.4034  -11.1752 C   0  0  0  0  0  0  0  0  0  0  0  0
   37.3762   17.0244  -10.0139 C   0  0  0  0  0  0  0  0  0  0  0  0
   38.6280   17.5870   -9.9961 F   0  0  0  0  0  0  0  0  0  0  0  0
   35.3468   15.2426  -12.5195 N   0  0  0  0  0  0  0  0  0  0  0  0
   35.5058   13.8889  -12.7927 C   0  0  0  0  0  0  0  0  0  0  0  0
   35.9807   13.1818  -11.8189 O   0  0  0  0  0  0  0  0  0  0  0  0
   34.9147   15.9355  -13.1928 H   0  0  0  0  0  0  0  0  0  0  0  0
   35.2102   13.1184  -14.0221 C   0  0  0  0  0  0  0  0  0  0  0  0
   34.1965   12.0233  -13.8743 C   0  0  0  0  0  0  0  0  0  0  0  0
   33.7774   13.3087  -14.4624 C   0  0  0  0  0  0  0  0  0  0  0  0
   36.2017   12.8402  -15.0730 C   0  0  0  0  0  0  0  0  0  0  0  0
   35.8304   13.2686  -16.2526 O   0  0  0  0  0  0  0  0  0  0  0  0
   37.4294   12.2004  -14.9793 N   0  0  0  0  0  0  0  0  0  0  0  0
   37.7632   11.7890  -14.0910 H   0  0  0  0  0  0  0  0  0  0  0  0
   38.2905   12.0208  -16.1147 C   0  0  0  0  0  0  0  0  0  0  0  0
   39.4365   12.6636  -16.2203 C   0  0  0  0  0  0  0  0  0  0  0  0
   40.3330   12.4898  -17.3838 C   0  0  0  0  0  0  0  0  0  0  0  0
   39.9137   11.5253  -18.4130 C   0  0  0  0  0  0  0  0  0  0  0  0
   40.9279   10.5581  -18.5453 F   0  0  0  0  0  0  0  0  0  0  0  0
   38.6230   10.8693  -18.1968 C   0  0  0  0  0  0  0  0  0  0  0  0
   37.8780   11.0955  -17.1434 C   0  0  0  0  0  0  0  0  0  0  0  0
   36.9828   17.7414   -7.7431 O   0  0  0  0  0  0  0  0  0  0  0  0
   34.5567   19.5847   -4.9573 C   0  0  0  0  0  0  0  0  0  0  0  0
   35.3653   18.9715   -5.8896 C   0  0  0  0  0  0  0  0  0  0  0  0
   36.1007   17.8486   -5.5626 C   0  0  0  0  0  0  0  0  0  0  0  0
   36.9295   17.2047   -6.4926 C   0  0  0  0  0  0  0  0  0  0  0  0
   37.6517   16.0860   -6.1458 C   0  0  0  0  0  0  0  0  0  0  0  0
   37.5626   15.5849   -4.8587 C   0  0  0  0  0  0  0  0  0  0  0  0
   36.7681   16.2049   -3.9709 N   0  0  0  0  0  0  0  0  0  0  0  0
   36.0534   17.3030   -4.2992 C   0  0  0  0  0  0  0  0  0  0  0  0
   35.2338   17.9321   -3.3684 C   0  0  0  0  0  0  0  0  0  0  0  0
   34.4885   19.0629   -3.6848 C   0  0  0  0  0  0  0  0  0  0  0  0
   33.3491   20.9189   -6.6051 C   0  0  0  0  0  0  0  0  0  0  0  0
   33.8139   20.7145   -5.2799 O   0  0  0  0  0  0  0  0  0  0  0  0
   33.6703   19.6945   -2.7600 O   0  0  0  0  0  0  0  0  0  0  0  0
   32.3255   19.2437   -2.6693 C   0  0  0  0  0  0  0  0  0  0  0  0
   32.2005   17.9417   -3.4466 C   0  0  0  0  0  0  0  0  0  0  0  0
   31.0940   18.0907   -4.4395 C   0  0  0  0  0  0  0  0  0  0  0  0
   31.5982   18.0030   -5.7750 N   0  0  0  0  0  0  0  0  0  0  0  0
   32.3580   16.7621   -5.9431 C   0  0  0  0  0  0  0  0  0  0  0  0
   31.6188   15.7632   -6.7720 C   0  0  0  0  0  0  0  0  0  0  0  0
   30.1312   15.7125   -6.4959 C   0  0  0  0  0  0  0  0  0  0  0  0
   29.4849   17.0565   -6.5457 C   0  0  0  0  0  0  0  0  0  0  0  0
   30.5523   18.0930   -6.7685 C   0  0  0  0  0  0  0  0  0  0  0  0
 37 38  1  0  0  0
 38 27  1  0  0  0
 27 28  2  0  0  0
 28 29  1  0  0  0
 29 30  2  0  0  0
 30 26  1  0  0  0
 26  1  1  0  0  0
  1  2  2  0  0  0
  2  3  1  0  0  0
  3  4  2  0  0  0
  4  8  1  0  0  0
  8  9  1  0  0  0
  9 10  2  0  0  0
  9 12  1  0  0  0
 12 13  1  0  0  0
 13 14  1  0  0  0
 12 15  1  0  0  0
 15 16  2  0  0  0
 15 17  1  0  0  0
 17 19  1  0  0  0
 19 20  2  0  0  0
 20 21  1  0  0  0
 21 22  1  0  0  0
 22 23  1  0  0  0
 22 24  1  0  0  0
 24 25  2  0  0  0
  4  5  1  0  0  0
  5  6  2  0  0  0
  6  7  1  0  0  0
 30 31  1  0  0  0
 31 32  2  0  0  0
 32 33  1  0  0  0
 33 34  2  0  0  0
 34 35  1  0  0  0
 35 36  2  0  0  0
 36 39  1  0  0  0
 39 40  1  0  0  0
 40 41  1  0  0  0
 41 42  1  0  0  0
 42 43  1  0  0  0
 43 44  1  0  0  0
 44 45  1  0  0  0
 45 46  1  0  0  0
 46 47  1  0  0  0
 47 48  1  0  0  0
 36 27  1  0  0  0
 48 43  1  0  0  0
 34 29  1  0  0  0
  6  1  1  0  0  0
 14 12  1  0  0  0
 25 19  1  0  0  0
  8 11  1  0  0  0
 17 18  1  0  0  0
M  END
> <minimizedAffinity>
-8.22143

> <CNNscore>
0.0407115407

> <CNNaffinity>
6.3923954964

> <CNN_VS>
0.2602442801

> <CNNaffinity_variance>
0.4580389857

$$$$
[H]C1=C([H])C([H])(F)C([H])([H])C([H])=C1N([H])C(=O)C1(C(=O)N([H])c2c([H])c([H])c(Oc3c([H])c([H])nc4c([H])c(OC([H])([H])C([H])([H])C([H])([H])N5C([H])([H])C([H])([H])C([H])([H])C([H])([H])C5([H])[H])c(OC([H])([H])[H])c([H])c34)c(F)c2[H])C([H])([H])C1([H])[H]


 48 53  0  0  0  0  0  0  0  0999 V2000
   33.4611   16.0099   -6.3930 C   0  0  0  0  0  0  0  0  0  0  0  0
   33.7827   16.9077   -7.3887 C   0  0  0  0  0  0  0  0  0  0  0  0
   34.6356   16.5343   -8.4282 C   0  0  0  0  0  0  0  0  0  0  0  0
   35.1852   15.2935   -8.5161 C   0  0  0  0  0  0  0  0  0  0  0  0
   34.8611   14.3929   -7.5146 C   0  0  0  0  0  0  0  0  0  0  0  0
   34.0201   14.7512   -6.4832 C   0  0  0  0  0  0  0  0  0  0  0  0
   33.7662   13.8143   -5.5128 F   0  0  0  0  0  0  0  0  0  0  0  0
   36.0875   14.8639   -9.5303 N   0  0  0  0  0  0  0  0  0  0  0  0
   35.7699   14.8660  -10.8836 C   0  0  0  0  0  0  0  0  0  0  0  0
   34.5949   15.3232  -11.1737 O   0  0  0  0  0  0  0  0  0  0  0  0
   37.0302   14.5775   -9.1440 H   0  0  0  0  0  0  0  0  0  0  0  0
   36.5661   14.4349  -12.0552 C   0  0  0  0  0  0  0  0  0  0  0  0
   37.4784   15.4727  -12.6379 C   0  0  0  0  0  0  0  0  0  0  0  0
   38.0460   14.4414  -11.7502 C   0  0  0  0  0  0  0  0  0  0  0  0
   36.0933   13.4645  -13.0551 C   0  0  0  0  0  0  0  0  0  0  0  0
   35.8161   12.2937  -12.5401 O   0  0  0  0  0  0  0  0  0  0  0  0
   35.9172   13.6227  -14.4223 N   0  0  0  0  0  0  0  0  0  0  0  0
   36.1668   14.5024  -14.9058 H   0  0  0  0  0  0  0  0  0  0  0  0
   35.4293   12.5641  -15.2614 C   0  0  0  0  0  0  0  0  0  0  0  0
   36.2011   11.9827  -16.1581 C   0  0  0  0  0  0  0  0  0  0  0  0
   35.7126   10.8923  -17.0299 C   0  0  0  0  0  0  0  0  0  0  0  0
   34.3261   10.4434  -16.8261 C   0  0  0  0  0  0  0  0  0  0  0  0
   34.3508    9.0672  -16.5311 F   0  0  0  0  0  0  0  0  0  0  0  0
   33.5580   11.1594  -15.8061 C   0  0  0  0  0  0  0  0  0  0  0  0
   34.0628   12.1316  -15.0879 C   0  0  0  0  0  0  0  0  0  0  0  0
   32.6187   16.3566   -5.3501 O   0  0  0  0  0  0  0  0  0  0  0  0
   32.5926   20.4578   -4.8759 C   0  0  0  0  0  0  0  0  0  0  0  0
   32.5998   19.0892   -5.0372 C   0  0  0  0  0  0  0  0  0  0  0  0
   33.0024   18.2555   -4.0118 C   0  0  0  0  0  0  0  0  0  0  0  0
   33.0175   16.8601   -4.1492 C   0  0  0  0  0  0  0  0  0  0  0  0
   33.4205   16.0484   -3.1137 C   0  0  0  0  0  0  0  0  0  0  0  0
   33.8194   16.6142   -1.9152 C   0  0  0  0  0  0  0  0  0  0  0  0
   33.8039   17.9511   -1.7879 N   0  0  0  0  0  0  0  0  0  0  0  0
   33.4097   18.7586   -2.7964 C   0  0  0  0  0  0  0  0  0  0  0  0
   33.3977   20.1412   -2.6475 C   0  0  0  0  0  0  0  0  0  0  0  0
   32.9947   20.9913   -3.6718 C   0  0  0  0  0  0  0  0  0  0  0  0
   31.1503   20.9144   -6.7904 C   0  0  0  0  0  0  0  0  0  0  0  0
   32.1881   21.3021   -5.9034 O   0  0  0  0  0  0  0  0  0  0  0  0
   32.9818   22.3707   -3.5288 O   0  0  0  0  0  0  0  0  0  0  0  0
   33.6103   22.9088   -2.3732 C   0  0  0  0  0  0  0  0  0  0  0  0
   34.2339   24.2466   -2.7429 C   0  0  0  0  0  0  0  0  0  0  0  0
   33.6402   24.7011   -4.0365 C   0  0  0  0  0  0  0  0  0  0  0  0
   34.6094   25.4053   -4.8177 N   0  0  0  0  0  0  0  0  0  0  0  0
   35.9279   24.7883   -4.6550 C   0  0  0  0  0  0  0  0  0  0  0  0
   36.3437   24.0312   -5.8736 C   0  0  0  0  0  0  0  0  0  0  0  0
   35.2203   23.2615   -6.5349 C   0  0  0  0  0  0  0  0  0  0  0  0
   34.0138   24.1008   -6.7923 C   0  0  0  0  0  0  0  0  0  0  0  0
   34.2516   25.4702   -6.2165 C   0  0  0  0  0  0  0  0  0  0  0  0
 37 38  1  0  0  0
 38 27  1  0  0  0
 27 28  2  0  0  0
 28 29  1  0  0  0
 29 30  2  0  0  0
 30 26  1  0  0  0
 26  1  1  0  0  0
  1  2  2  0  0  0
  2  3  1  0  0  0
  3  4  2  0  0  0
  4  8  1  0  0  0
  8  9  1  0  0  0
  9 10  2  0  0  0
  9 12  1  0  0  0
 12 13  1  0  0  0
 13 14  1  0  0  0
 12 15  1  0  0  0
 15 16  2  0  0  0
 15 17  1  0  0  0
 17 19  1  0  0  0
 19 20  2  0  0  0
 20 21  1  0  0  0
 21 22  1  0  0  0
 22 23  1  0  0  0
 22 24  1  0  0  0
 24 25  2  0  0  0
  4  5  1  0  0  0
  5  6  2  0  0  0
  6  7  1  0  0  0
 30 31  1  0  0  0
 31 32  2  0  0  0
 32 33  1  0  0  0
 33 34  2  0  0  0
 34 35  1  0  0  0
 35 36  2  0  0  0
 36 39  1  0  0  0
 39 40  1  0  0  0
 40 41  1  0  0  0
 41 42  1  0  0  0
 42 43  1  0  0  0
 43 44  1  0  0  0
 44 45  1  0  0  0
 45 46  1  0  0  0
 46 47  1  0  0  0
 47 48  1  0  0  0
 36 27  1  0  0  0
 48 43  1  0  0  0
 34 29  1  0  0  0
  6  1  1  0  0  0
 14 12  1  0  0  0
 25 19  1  0  0  0
  8 11  1  0  0  0
 17 18  1  0  0  0
M  END
> <minimizedAffinity>
-8.19619

> <CNNscore>
0.0388055220

> <CNNaffinity>
6.0812239647

> <CNN_VS>
0.2359850705

> <CNNaffinity_variance>
0.2538636923

$$$$
[H]C1=C([H])C([H])(F)C([H])([H])C([H])=C1N([H])C(=O)C1(C(=O)N([H])c2c([H])c([H])c(Oc3c([H])c([H])nc4c([H])c(OC([H])([H])C([H])([H])C([H])([H])N5C([H])([H])C([H])([H])C([H])([H])C([H])([H])C5([H])[H])c(OC([H])([H])[H])c([H])c34)c(F)c2[H])C([H])([H])C1([H])[H]


 48 53  0  0  0  0  0  0  0  0999 V2000
   35.7323   16.2855   -7.8699 C   0  0  0  0  0  0  0  0  0  0  0  0
   35.5122   15.2193   -8.7159 C   0  0  0  0  0  0  0  0  0  0  0  0
   36.5249   14.7700   -9.5644 C   0  0  0  0  0  0  0  0  0  0  0  0
   37.7569   15.3444   -9.6045 C   0  0  0  0  0  0  0  0  0  0  0  0
   37.9760   16.4156   -8.7539 C   0  0  0  0  0  0  0  0  0  0  0  0
   36.9829   16.8679   -7.9120 C   0  0  0  0  0  0  0  0  0  0  0  0
   37.2648   17.9509   -7.1174 F   0  0  0  0  0  0  0  0  0  0  0  0
   38.8178   14.9551  -10.4705 N   0  0  0  0  0  0  0  0  0  0  0  0
   39.4937   15.8462  -11.2961 C   0  0  0  0  0  0  0  0  0  0  0  0
   39.1158   17.0800  -11.2024 O   0  0  0  0  0  0  0  0  0  0  0  0
   39.0543   13.9267  -10.3904 H   0  0  0  0  0  0  0  0  0  0  0  0
   40.5883   15.6125  -12.2655 C   0  0  0  0  0  0  0  0  0  0  0  0
   41.5962   16.7163  -12.3855 C   0  0  0  0  0  0  0  0  0  0  0  0
   41.9297   15.5308  -11.5750 C   0  0  0  0  0  0  0  0  0  0  0  0
   40.4295   14.8466  -13.5118 C   0  0  0  0  0  0  0  0  0  0  0  0
   39.5758   15.3908  -14.3412 O   0  0  0  0  0  0  0  0  0  0  0  0
   41.0396   13.6633  -13.9028 N   0  0  0  0  0  0  0  0  0  0  0  0
   41.6834   13.1494  -13.2772 H   0  0  0  0  0  0  0  0  0  0  0  0
   40.7786   13.0483  -15.1741 C   0  0  0  0  0  0  0  0  0  0  0  0
   39.5518   12.7683  -15.5666 C   0  0  0  0  0  0  0  0  0  0  0  0
   39.2676   12.1342  -16.8723 C   0  0  0  0  0  0  0  0  0  0  0  0
   40.4181   11.8639  -17.7490 C   0  0  0  0  0  0  0  0  0  0  0  0
   40.2042   12.5314  -18.9697 F   0  0  0  0  0  0  0  0  0  0  0  0
   41.7351   12.2121  -17.2131 C   0  0  0  0  0  0  0  0  0  0  0  0
   41.9017   12.7554  -16.0329 C   0  0  0  0  0  0  0  0  0  0  0  0
   34.7434   16.7513   -7.0199 O   0  0  0  0  0  0  0  0  0  0  0  0
   33.5103   20.4654   -5.7046 C   0  0  0  0  0  0  0  0  0  0  0  0
   33.9205   19.2264   -6.1467 C   0  0  0  0  0  0  0  0  0  0  0  0
   34.4885   18.3147   -5.2778 C   0  0  0  0  0  0  0  0  0  0  0  0
   34.9127   17.0471   -5.7013 C   0  0  0  0  0  0  0  0  0  0  0  0
   35.4741   16.1537   -4.8181 C   0  0  0  0  0  0  0  0  0  0  0  0
   35.6257   16.5083   -3.4888 C   0  0  0  0  0  0  0  0  0  0  0  0
   35.2186   17.7235   -3.0873 N   0  0  0  0  0  0  0  0  0  0  0  0
   34.6652   18.6090   -3.9442 C   0  0  0  0  0  0  0  0  0  0  0  0
   34.2472   19.8628   -3.5119 C   0  0  0  0  0  0  0  0  0  0  0  0
   33.6739   20.7894   -4.3762 C   0  0  0  0  0  0  0  0  0  0  0  0
   31.5892   21.7964   -6.4058 C   0  0  0  0  0  0  0  0  0  0  0  0
   32.9376   21.3869   -6.5735 O   0  0  0  0  0  0  0  0  0  0  0  0
   33.2562   22.0414   -3.9504 O   0  0  0  0  0  0  0  0  0  0  0  0
   34.2582   23.0334   -3.7722 C   0  0  0  0  0  0  0  0  0  0  0  0
   33.6540   24.3918   -4.0960 C   0  0  0  0  0  0  0  0  0  0  0  0
   34.3519   24.9432   -5.2967 C   0  0  0  0  0  0  0  0  0  0  0  0
   35.5008   24.1551   -5.6197 N   0  0  0  0  0  0  0  0  0  0  0  0
   35.4870   23.8094   -7.0430 C   0  0  0  0  0  0  0  0  0  0  0  0
   36.5116   24.5762   -7.8134 C   0  0  0  0  0  0  0  0  0  0  0  0
   36.6535   26.0207   -7.3830 C   0  0  0  0  0  0  0  0  0  0  0  0
   36.8432   26.1724   -5.9108 C   0  0  0  0  0  0  0  0  0  0  0  0
   36.7394   24.8141   -5.2724 C   0  0  0  0  0  0  0  0  0  0  0  0
 37 38  1  0  0  0
 38 27  1  0  0  0
 27 28  2  0  0  0
 28 29  1  0  0  0
 29 30  2  0  0  0
 30 26  1  0  0  0
 26  1  1  0  0  0
  1  2  2  0  0  0
  2  3  1  0  0  0
  3  4  2  0  0  0
  4  8  1  0  0  0
  8  9  1  0  0  0
  9 10  2  0  0  0
  9 12  1  0  0  0
 12 13  1  0  0  0
 13 14  1  0  0  0
 12 15  1  0  0  0
 15 16  2  0  0  0
 15 17  1  0  0  0
 17 19  1  0  0  0
 19 20  2  0  0  0
 20 21  1  0  0  0
 21 22  1  0  0  0
 22 23  1  0  0  0
 22 24  1  0  0  0
 24 25  2  0  0  0
  4  5  1  0  0  0
  5  6  2  0  0  0
  6  7  1  0  0  0
 30 31  1  0  0  0
 31 32  2  0  0  0
 32 33  1  0  0  0
 33 34  2  0  0  0
 34 35  1  0  0  0
 35 36  2  0  0  0
 36 39  1  0  0  0
 39 40  1  0  0  0
 40 41  1  0  0  0
 41 42  1  0  0  0
 42 43  1  0  0  0
 43 44  1  0  0  0
 44 45  1  0  0  0
 45 46  1  0  0  0
 46 47  1  0  0  0
 47 48  1  0  0  0
 36 27  1  0  0  0
 48 43  1  0  0  0
 34 29  1  0  0  0
  6  1  1  0  0  0
 14 12  1  0  0  0
 25 19  1  0  0  0
  8 11  1  0  0  0
 17 18  1  0  0  0
M  END
> <minimizedAffinity>
-8.39501

> <CNNscore>
0.0365643613

> <CNNaffinity>
5.7932243347

> <CNN_VS>
0.2118255496

> <CNNaffinity_variance>
0.2578173578

$$$$
[H]N=C(N([H])[H])N([H])C([H])([H])C([H])([H])C([H])([H])[C@@]([H])(C(=O)N([H])[C@]([H])(C(=O)N([H])[H])C([H])([H])c1c([H])c([H])c([H])c([H])c1[H])N([H])C(=O)[C@@]([H])(N([H])C(=O)c1c([H])c(OC([H])([H])[H])c(OC([H])([H])[H])c(OC([H])([H])[H])c1[H])C([H])([H])c1c([H])c([H])c([H])c([H])c1[H]


 57 59  0  0  0  0  0  0  0  0999 V2000
   35.9580   14.8386  -10.7961 C   0  0  0  0  0  0  0  0  0  0  0  0
   37.6478   15.9031   -9.3981 C   0  0  0  0  0  0  0  0  0  0  0  0
   37.5992   14.8625   -8.6392 O   0  0  0  0  0  0  0  0  0  0  0  0
   36.8416   15.9556  -10.5652 N   0  0  0  0  0  0  0  0  0  0  0  0
   36.8990   16.7621  -11.2073 H   0  0  0  0  0  0  0  0  0  0  0  0
   38.5361   16.9637   -8.9815 C   0  0  0  0  0  0  0  0  0  0  0  0
   40.4492   16.3718  -10.5511 C   0  0  0  0  0  0  0  0  0  0  0  0
   39.6851   16.4213  -11.5698 O   0  0  0  0  0  0  0  0  0  0  0  0
   39.9246   16.6272   -9.2695 N   0  0  0  0  0  0  0  0  0  0  0  0
   40.5686   16.5762   -8.4497 H   0  0  0  0  0  0  0  0  0  0  0  0
   43.8963   15.0806  -10.0309 C   0  0  0  0  0  0  0  0  0  0  0  0
   42.5742   15.3503   -9.8192 C   0  0  0  0  0  0  0  0  0  0  0  0
   41.8461   16.0494  -10.7684 C   0  0  0  0  0  0  0  0  0  0  0  0
   42.4546   16.4730  -11.9276 C   0  0  0  0  0  0  0  0  0  0  0  0
   43.7737   16.1984  -12.1287 C   0  0  0  0  0  0  0  0  0  0  0  0
   44.5191   15.4977  -11.1852 C   0  0  0  0  0  0  0  0  0  0  0  0
   45.8537   15.2373  -11.4169 O   0  0  0  0  0  0  0  0  0  0  0  0
   46.9013   16.0765  -10.9498 C   0  0  0  0  0  0  0  0  0  0  0  0
   44.4137   16.6179  -13.2946 O   0  0  0  0  0  0  0  0  0  0  0  0
   44.7740   17.9654  -13.4339 C   0  0  0  0  0  0  0  0  0  0  0  0
   44.0932   14.1999   -7.7915 C   0  0  0  0  0  0  0  0  0  0  0  0
   44.6083   14.3849   -9.0785 O   0  0  0  0  0  0  0  0  0  0  0  0
   38.1533   18.3337   -9.3047 C   0  0  0  0  0  0  0  0  0  0  0  0
   37.6713   19.1988   -8.2152 C   0  0  0  0  0  0  0  0  0  0  0  0
   37.4239   18.7486   -6.9401 C   0  0  0  0  0  0  0  0  0  0  0  0
   36.9716   19.5533   -5.9365 C   0  0  0  0  0  0  0  0  0  0  0  0
   36.7484   20.8977   -6.2152 C   0  0  0  0  0  0  0  0  0  0  0  0
   36.9894   21.3583   -7.4762 C   0  0  0  0  0  0  0  0  0  0  0  0
   37.4416   20.5553   -8.4784 C   0  0  0  0  0  0  0  0  0  0  0  0
   36.4911   13.9519  -11.8436 C   0  0  0  0  0  0  0  0  0  0  0  0
   36.0104   12.8395  -12.0776 O   0  0  0  0  0  0  0  0  0  0  0  0
   37.5999   14.4058  -12.6134 N   0  0  0  0  0  0  0  0  0  0  0  0
   38.0336   15.3265  -12.4411 H   0  0  0  0  0  0  0  0  0  0  0  0
   38.1888   13.5936  -13.6931 C   0  0  0  0  0  0  0  0  0  0  0  0
   39.4825   14.1413  -14.0981 C   0  0  0  0  0  0  0  0  0  0  0  0
   40.7334   13.6086  -13.6996 N   0  0  0  0  0  0  0  0  0  0  0  0
   39.5253   15.1694  -14.8635 O   0  0  0  0  0  0  0  0  0  0  0  0
   41.5602   13.6790  -14.3161 H   0  0  0  0  0  0  0  0  0  0  0  0
   40.8618   13.1308  -12.7775 H   0  0  0  0  0  0  0  0  0  0  0  0
   37.1390   13.5170  -14.7409 C   0  0  0  0  0  0  0  0  0  0  0  0
   37.2917   12.4962  -15.7707 C   0  0  0  0  0  0  0  0  0  0  0  0
   36.1407   11.9464  -16.3480 C   0  0  0  0  0  0  0  0  0  0  0  0
   36.2427   11.0017  -17.3373 C   0  0  0  0  0  0  0  0  0  0  0  0
   37.4754   10.5774  -17.7865 C   0  0  0  0  0  0  0  0  0  0  0  0
   38.6279   11.1032  -17.2348 C   0  0  0  0  0  0  0  0  0  0  0  0
   38.5014   12.0408  -16.2490 C   0  0  0  0  0  0  0  0  0  0  0  0
   34.5906   15.2956  -11.2564 C   0  0  0  0  0  0  0  0  0  0  0  0
   33.7270   15.7545  -10.1210 C   0  0  0  0  0  0  0  0  0  0  0  0
   32.2797   15.8840  -10.5176 C   0  0  0  0  0  0  0  0  0  0  0  0
   31.8117   14.7207  -11.2449 N   0  0  0  0  0  0  0  0  0  0  0  0
   32.4795   14.0492  -11.6773 H   0  0  0  0  0  0  0  0  0  0  0  0
   30.4210   14.4654  -11.3849 C   0  0  0  0  0  0  0  0  0  0  0  0
   29.6114   14.4731  -10.2198 N   0  0  0  0  0  0  0  0  0  0  0  0
   29.9035   14.2335  -12.5293 N   0  0  0  0  0  0  0  0  0  0  0  0
   30.0364   14.2335   -9.3062 H   0  0  0  0  0  0  0  0  0  0  0  0
   28.6002   14.7075  -10.2329 H   0  0  0  0  0  0  0  0  0  0  0  0
   28.8977   14.0393  -12.7133 H   0  0  0  0  0  0  0  0  0  0  0  0
 21 22  1  0  0  0
 22 11  1  0  0  0
 11 12  2  0  0  0
 12 13  1  0  0  0
 13 14  2  0  0  0
 14 15  1  0  0  0
 15 19  1  0  0  0
 19 20  1  0  0  0
 15 16  2  0  0  0
 16 17  1  0  0  0
 17 18  1  0  0  0
 13  7  1  0  0  0
  7  8  2  0  0  0
  7  9  1  0  0  0
  9  6  1  0  0  0
  6 23  1  0  0  0
 23 24  1  0  0  0
 24 25  2  0  0  0
 25 26  1  0  0  0
 26 27  2  0  0  0
 27 28  1  0  0  0
 28 29  2  0  0  0
  6  2  1  0  0  0
  2  3  2  0  0  0
  2  4  1  0  0  0
  4  1  1  0  0  0
  1 47  1  0  0  0
 47 48  1  0  0  0
 48 49  1  0  0  0
 49 50  1  0  0  0
 50 52  1  0  0  0
 52 53  1  0  0  0
 52 54  2  0  0  0
  1 30  1  0  0  0
 30 31  2  0  0  0
 30 32  1  0  0  0
 32 34  1  0  0  0
 34 40  1  0  0  0
 40 41  1  0  0  0
 41 42  2  0  0  0
 42 43  1  0  0  0
 43 44  2  0  0  0
 44 45  1  0  0  0
 45 46  2  0  0  0
 34 35  1  0  0  0
 35 36  1  0  0  0
 35 37  2  0  0  0
 16 11  1  0  0  0
 29 24  1  0  0  0
 46 41  1  0  0  0
  9 10  1  0  0  0
  4  5  1  0  0  0
 50 51  1  0  0  0
 53 55  1  0  0  0
 53 56  1  0  0  0
 54 57  1  0  0  0
 32 33  1  0  0  0
 36 38  1  0  0  0
 36 39  1  0  0  0
M  END
> <minimizedAffinity>
-8.48218

> <CNNscore>
0.3278063238

> <CNNaffinity>
7.1445784569

> <CNN_VS>
2.3420379162

> <CNNaffinity_variance>
0.2192378044

$$$$
[H]N=C(N([H])[H])N([H])C([H])([H])C([H])([H])C([H])([H])[C@@]([H])(C(=O)N([H])[C@]([H])(C(=O)N([H])[H])C([H])([H])c1c([H])c([H])c([H])c([H])c1[H])N([H])C(=O)[C@@]([H])(N([H])C(=O)c1c([H])c(OC([H])([H])[H])c(OC([H])([H])[H])c(OC([H])([H])[H])c1[H])C([H])([H])c1c([H])c([H])c([H])c([H])c1[H]


 57 59  0  0  0  0  0  0  0  0999 V2000
   37.3664   14.2538  -12.7818 C   0  0  0  0  0  0  0  0  0  0  0  0
   37.5992   15.2439  -10.5663 C   0  0  0  0  0  0  0  0  0  0  0  0
   36.7217   14.3951  -10.1530 O   0  0  0  0  0  0  0  0  0  0  0  0
   38.0142   15.2158  -11.9234 N   0  0  0  0  0  0  0  0  0  0  0  0
   38.7468   15.8597  -12.2620 H   0  0  0  0  0  0  0  0  0  0  0  0
   38.0943   16.1863   -9.5895 C   0  0  0  0  0  0  0  0  0  0  0  0
   39.5466   15.1127   -7.7974 C   0  0  0  0  0  0  0  0  0  0  0  0
   38.5363   14.8851   -7.0548 O   0  0  0  0  0  0  0  0  0  0  0  0
   39.3720   15.7495   -9.0411 N   0  0  0  0  0  0  0  0  0  0  0  0
   40.2147   15.9296   -9.6299 H   0  0  0  0  0  0  0  0  0  0  0  0
   42.5001   14.6095   -5.5965 C   0  0  0  0  0  0  0  0  0  0  0  0
   41.2588   14.9868   -6.0232 C   0  0  0  0  0  0  0  0  0  0  0  0
   40.8488   14.6959   -7.3143 C   0  0  0  0  0  0  0  0  0  0  0  0
   41.6926   14.0250   -8.1695 C   0  0  0  0  0  0  0  0  0  0  0  0
   42.9285   13.6530   -7.7335 C   0  0  0  0  0  0  0  0  0  0  0  0
   43.3556   13.9379   -6.4399 C   0  0  0  0  0  0  0  0  0  0  0  0
   44.6139   13.5502   -6.0289 O   0  0  0  0  0  0  0  0  0  0  0  0
   45.7693   14.3610   -6.1947 C   0  0  0  0  0  0  0  0  0  0  0  0
   43.8026   12.9732   -8.5812 O   0  0  0  0  0  0  0  0  0  0  0  0
   43.7330   13.1974   -9.9632 C   0  0  0  0  0  0  0  0  0  0  0  0
   43.3082   16.1967   -3.9663 C   0  0  0  0  0  0  0  0  0  0  0  0
   42.8950   14.9056   -4.3102 O   0  0  0  0  0  0  0  0  0  0  0  0
   38.0164   17.6055   -9.9177 C   0  0  0  0  0  0  0  0  0  0  0  0
   37.3890   18.5135   -8.9431 C   0  0  0  0  0  0  0  0  0  0  0  0
   37.7839   19.8167   -8.7548 C   0  0  0  0  0  0  0  0  0  0  0  0
   37.2032   20.6512   -7.8462 C   0  0  0  0  0  0  0  0  0  0  0  0
   36.1585   20.1609   -7.0696 C   0  0  0  0  0  0  0  0  0  0  0  0
   35.7563   18.8696   -7.2455 C   0  0  0  0  0  0  0  0  0  0  0  0
   36.3354   18.0360   -8.1530 C   0  0  0  0  0  0  0  0  0  0  0  0
   38.3557   13.3890  -13.4460 C   0  0  0  0  0  0  0  0  0  0  0  0
   38.2522   12.1594  -13.4675 O   0  0  0  0  0  0  0  0  0  0  0  0
   39.4676   14.0042  -14.0890 N   0  0  0  0  0  0  0  0  0  0  0  0
   39.5922   15.0289  -14.0848 H   0  0  0  0  0  0  0  0  0  0  0  0
   40.4979   13.2197  -14.7928 C   0  0  0  0  0  0  0  0  0  0  0  0
   41.8184   13.4799  -14.2215 C   0  0  0  0  0  0  0  0  0  0  0  0
   42.0368   14.1396  -12.9869 N   0  0  0  0  0  0  0  0  0  0  0  0
   42.8688   13.0995  -14.8514 O   0  0  0  0  0  0  0  0  0  0  0  0
   42.8567   13.9100  -12.4009 H   0  0  0  0  0  0  0  0  0  0  0  0
   41.3824   14.8741  -12.6298 H   0  0  0  0  0  0  0  0  0  0  0  0
   40.3181   13.5409  -16.2316 C   0  0  0  0  0  0  0  0  0  0  0  0
   39.6941   12.5266  -17.0728 C   0  0  0  0  0  0  0  0  0  0  0  0
   40.3123   12.1821  -18.2810 C   0  0  0  0  0  0  0  0  0  0  0  0
   39.7697   11.2149  -19.0883 C   0  0  0  0  0  0  0  0  0  0  0  0
   38.6111   10.5599  -18.7277 C   0  0  0  0  0  0  0  0  0  0  0  0
   37.9801   10.8795  -17.5408 C   0  0  0  0  0  0  0  0  0  0  0  0
   38.5376   11.8479  -16.7545 C   0  0  0  0  0  0  0  0  0  0  0  0
   36.5664   14.9309  -13.8735 C   0  0  0  0  0  0  0  0  0  0  0  0
   35.8672   13.9499  -14.7647 C   0  0  0  0  0  0  0  0  0  0  0  0
   34.5918   13.4297  -14.1553 C   0  0  0  0  0  0  0  0  0  0  0  0
   33.6853   14.5031  -13.7985 N   0  0  0  0  0  0  0  0  0  0  0  0
   33.4443   15.2547  -14.4773 H   0  0  0  0  0  0  0  0  0  0  0  0
   33.0980   14.5553  -12.5058 C   0  0  0  0  0  0  0  0  0  0  0  0
   33.8965   14.9924  -11.4174 N   0  0  0  0  0  0  0  0  0  0  0  0
   31.8803   14.2185  -12.3189 N   0  0  0  0  0  0  0  0  0  0  0  0
   34.9223   14.8549  -11.4547 H   0  0  0  0  0  0  0  0  0  0  0  0
   33.5028   15.4478  -10.5717 H   0  0  0  0  0  0  0  0  0  0  0  0
   31.3798   14.2299  -11.4065 H   0  0  0  0  0  0  0  0  0  0  0  0
 21 22  1  0  0  0
 22 11  1  0  0  0
 11 12  2  0  0  0
 12 13  1  0  0  0
 13 14  2  0  0  0
 14 15  1  0  0  0
 15 19  1  0  0  0
 19 20  1  0  0  0
 15 16  2  0  0  0
 16 17  1  0  0  0
 17 18  1  0  0  0
 13  7  1  0  0  0
  7  8  2  0  0  0
  7  9  1  0  0  0
  9  6  1  0  0  0
  6 23  1  0  0  0
 23 24  1  0  0  0
 24 25  2  0  0  0
 25 26  1  0  0  0
 26 27  2  0  0  0
 27 28  1  0  0  0
 28 29  2  0  0  0
  6  2  1  0  0  0
  2  3  2  0  0  0
  2  4  1  0  0  0
  4  1  1  0  0  0
  1 47  1  0  0  0
 47 48  1  0  0  0
 48 49  1  0  0  0
 49 50  1  0  0  0
 50 52  1  0  0  0
 52 53  1  0  0  0
 52 54  2  0  0  0
  1 30  1  0  0  0
 30 31  2  0  0  0
 30 32  1  0  0  0
 32 34  1  0  0  0
 34 40  1  0  0  0
 40 41  1  0  0  0
 41 42  2  0  0  0
 42 43  1  0  0  0
 43 44  2  0  0  0
 44 45  1  0  0  0
 45 46  2  0  0  0
 34 35  1  0  0  0
 35 36  1  0  0  0
 35 37  2  0  0  0
 16 11  1  0  0  0
 29 24  1  0  0  0
 46 41  1  0  0  0
  9 10  1  0  0  0
  4  5  1  0  0  0
 50 51  1  0  0  0
 53 55  1  0  0  0
 53 56  1  0  0  0
 54 57  1  0  0  0
 32 33  1  0  0  0
 36 38  1  0  0  0
 36 39  1  0  0  0
M  END
> <minimizedAffinity>
-7.79446

> <CNNscore>
0.2847189307

> <CNNaffinity>
6.8861427307

> <CNN_VS>
1.9606151581

> <CNNaffinity_variance>
0.5703604817

$$$$
[H]N=C(N([H])[H])N([H])C([H])([H])C([H])([H])C([H])([H])[C@@]([H])(C(=O)N([H])[C@]([H])(C(=O)N([H])[H])C([H])([H])c1c([H])c([H])c([H])c([H])c1[H])N([H])C(=O)[C@@]([H])(N([H])C(=O)c1c([H])c(OC([H])([H])[H])c(OC([H])([H])[H])c(OC([H])([H])[H])c1[H])C([H])([H])c1c([H])c([H])c([H])c([H])c1[H]


 57 59  0  0  0  0  0  0  0  0999 V2000
   36.2405   14.9156  -11.8198 C   0  0  0  0  0  0  0  0  0  0  0  0
   37.8872   15.8567  -10.2883 C   0  0  0  0  0  0  0  0  0  0  0  0
   37.8441   14.7427   -9.6415 O   0  0  0  0  0  0  0  0  0  0  0  0
   37.1002   16.0167  -11.4586 N   0  0  0  0  0  0  0  0  0  0  0  0
   37.1542   16.8860  -12.0130 H   0  0  0  0  0  0  0  0  0  0  0  0
   38.7494   16.8826   -9.7481 C   0  0  0  0  0  0  0  0  0  0  0  0
   40.7266   16.3956  -11.2737 C   0  0  0  0  0  0  0  0  0  0  0  0
   40.0009   16.4947  -12.3165 O   0  0  0  0  0  0  0  0  0  0  0  0
   40.1514   16.5749  -10.0009 N   0  0  0  0  0  0  0  0  0  0  0  0
   40.7645   16.4842   -9.1612 H   0  0  0  0  0  0  0  0  0  0  0  0
   44.3796   16.0955  -10.6527 C   0  0  0  0  0  0  0  0  0  0  0  0
   43.0543   16.3574  -10.4519 C   0  0  0  0  0  0  0  0  0  0  0  0
   42.1342   16.0981  -11.4548 C   0  0  0  0  0  0  0  0  0  0  0  0
   42.5547   15.5751  -12.6561 C   0  0  0  0  0  0  0  0  0  0  0  0
   43.8790   15.3174  -12.8457 C   0  0  0  0  0  0  0  0  0  0  0  0
   44.8159   15.5724  -11.8487 C   0  0  0  0  0  0  0  0  0  0  0  0
   46.1501   15.3030  -12.0721 O   0  0  0  0  0  0  0  0  0  0  0  0
   46.7526   14.0535  -11.7629 C   0  0  0  0  0  0  0  0  0  0  0  0
   44.3306   14.7885  -14.0545 O   0  0  0  0  0  0  0  0  0  0  0  0
   43.7072   13.6491  -14.5817 C   0  0  0  0  0  0  0  0  0  0  0  0
   44.9032   17.0818   -8.5120 C   0  0  0  0  0  0  0  0  0  0  0  0
   45.2837   16.3585   -9.6470 O   0  0  0  0  0  0  0  0  0  0  0  0
   38.3721   18.2732   -9.9755 C   0  0  0  0  0  0  0  0  0  0  0  0
   37.6211   18.9737   -8.9205 C   0  0  0  0  0  0  0  0  0  0  0  0
   37.9081   20.2521   -8.5043 C   0  0  0  0  0  0  0  0  0  0  0  0
   37.2130   20.8937   -7.5223 C   0  0  0  0  0  0  0  0  0  0  0  0
   36.1602   20.2223   -6.9092 C   0  0  0  0  0  0  0  0  0  0  0  0
   35.8643   18.9531   -7.3118 C   0  0  0  0  0  0  0  0  0  0  0  0
   36.5577   18.3123   -8.2928 C   0  0  0  0  0  0  0  0  0  0  0  0
   36.5416   14.4348  -13.1784 C   0  0  0  0  0  0  0  0  0  0  0  0
   37.3117   15.0308  -13.9365 O   0  0  0  0  0  0  0  0  0  0  0  0
   35.9197   13.2333  -13.6233 N   0  0  0  0  0  0  0  0  0  0  0  0
   35.2637   12.7119  -13.0206 H   0  0  0  0  0  0  0  0  0  0  0  0
   36.1745   12.6682  -14.9605 C   0  0  0  0  0  0  0  0  0  0  0  0
   34.9651   12.0393  -15.4892 C   0  0  0  0  0  0  0  0  0  0  0  0
   33.6965   12.0976  -14.8610 N   0  0  0  0  0  0  0  0  0  0  0  0
   35.0193   11.3852  -16.5910 O   0  0  0  0  0  0  0  0  0  0  0  0
   32.8270   12.0804  -15.4196 H   0  0  0  0  0  0  0  0  0  0  0  0
   33.5975   12.1594  -13.8210 H   0  0  0  0  0  0  0  0  0  0  0  0
   37.3635   11.7940  -14.7948 C   0  0  0  0  0  0  0  0  0  0  0  0
   38.4669   11.9772  -15.7301 C   0  0  0  0  0  0  0  0  0  0  0  0
   38.4918   11.2072  -16.8992 C   0  0  0  0  0  0  0  0  0  0  0  0
   39.4996   11.3679  -17.8159 C   0  0  0  0  0  0  0  0  0  0  0  0
   40.5037   12.2902  -17.6096 C   0  0  0  0  0  0  0  0  0  0  0  0
   40.5039   13.0637  -16.4648 C   0  0  0  0  0  0  0  0  0  0  0  0
   39.4914   12.8841  -15.5650 C   0  0  0  0  0  0  0  0  0  0  0  0
   34.7821   15.3196  -11.8060 C   0  0  0  0  0  0  0  0  0  0  0  0
   34.3350   15.8087  -10.4621 C   0  0  0  0  0  0  0  0  0  0  0  0
   32.8532   15.6373  -10.2534 C   0  0  0  0  0  0  0  0  0  0  0  0
   32.2075   15.0532  -11.4123 N   0  0  0  0  0  0  0  0  0  0  0  0
   32.6820   15.0256  -12.3385 H   0  0  0  0  0  0  0  0  0  0  0  0
   30.9031   14.4987  -11.3118 C   0  0  0  0  0  0  0  0  0  0  0  0
   30.0635   14.5338  -12.4551 N   0  0  0  0  0  0  0  0  0  0  0  0
   30.4881   13.9788  -10.2216 N   0  0  0  0  0  0  0  0  0  0  0  0
   30.1949   15.2839  -13.1571 H   0  0  0  0  0  0  0  0  0  0  0  0
   29.3116   13.8394  -12.6285 H   0  0  0  0  0  0  0  0  0  0  0  0
   29.5505   13.5535  -10.0695 H   0  0  0  0  0  0  0  0  0  0  0  0
 21 22  1  0  0  0
 22 11  1  0  0  0
 11 12  2  0  0  0
 12 13  1  0  0  0
 13 14  2  0  0  0
 14 15  1  0  0  0
 15 19  1  0  0  0
 19 20  1  0  0  0
 15 16  2  0  0  0
 16 17  1  0  0  0
 17 18  1  0  0  0
 13  7  1  0  0  0
  7  8  2  0  0  0
  7  9  1  0  0  0
  9  6  1  0  0  0
  6 23  1  0  0  0
 23 24  1  0  0  0
 24 25  2  0  0  0
 25 26  1  0  0  0
 26 27  2  0  0  0
 27 28  1  0  0  0
 28 29  2  0  0  0
  6  2  1  0  0  0
  2  3  2  0  0  0
  2  4  1  0  0  0
  4  1  1  0  0  0
  1 47  1  0  0  0
 47 48  1  0  0  0
 48 49  1  0  0  0
 49 50  1  0  0  0
 50 52  1  0  0  0
 52 53  1  0  0  0
 52 54  2  0  0  0
  1 30  1  0  0  0
 30 31  2  0  0  0
 30 32  1  0  0  0
 32 34  1  0  0  0
 34 40  1  0  0  0
 40 41  1  0  0  0
 41 42  2  0  0  0
 42 43  1  0  0  0
 43 44  2  0  0  0
 44 45  1  0  0  0
 45 46  2  0  0  0
 34 35  1  0  0  0
 35 36  1  0  0  0
 35 37  2  0  0  0
 16 11  1  0  0  0
 29 24  1  0  0  0
 46 41  1  0  0  0
  9 10  1  0  0  0
  4  5  1  0  0  0
 50 51  1  0  0  0
 53 55  1  0  0  0
 53 56  1  0  0  0
 54 57  1  0  0  0
 32 33  1  0  0  0
 36 38  1  0  0  0
 36 39  1  0  0  0
M  END
> <minimizedAffinity>
-8.62192

> <CNNscore>
0.2612581253

> <CNNaffinity>
7.2905426025

> <CNN_VS>
1.9047135115

> <CNNaffinity_variance>
0.2886341512

$$$$
[H]N=C(N([H])[H])N([H])C([H])([H])C([H])([H])C([H])([H])[C@@]([H])(C(=O)N([H])[C@]([H])(C(=O)N([H])[H])C([H])([H])c1c([H])c([H])c([H])c([H])c1[H])N([H])C(=O)[C@@]([H])(N([H])C(=O)c1c([H])c(OC([H])([H])[H])c(OC([H])([H])[H])c(OC([H])([H])[H])c1[H])C([H])([H])c1c([H])c([H])c([H])c([H])c1[H]


 57 59  0  0  0  0  0  0  0  0999 V2000
   36.4892   15.2532  -11.5508 C   0  0  0  0  0  0  0  0  0  0  0  0
   38.1583   14.3853  -13.1012 C   0  0  0  0  0  0  0  0  0  0  0  0
   38.8104   15.4839  -12.9310 O   0  0  0  0  0  0  0  0  0  0  0  0
   36.9479   14.1734  -12.3907 N   0  0  0  0  0  0  0  0  0  0  0  0
   36.4345   13.2823  -12.4820 H   0  0  0  0  0  0  0  0  0  0  0  0
   38.7236   13.4383  -14.0345 C   0  0  0  0  0  0  0  0  0  0  0  0
   41.1065   13.6236  -14.9070 C   0  0  0  0  0  0  0  0  0  0  0  0
   40.7007   13.9560  -16.0683 O   0  0  0  0  0  0  0  0  0  0  0  0
   40.1715   13.3592  -13.8878 N   0  0  0  0  0  0  0  0  0  0  0  0
   40.5274   13.0841  -12.9460 H   0  0  0  0  0  0  0  0  0  0  0  0
   44.4627   13.8985  -13.3321 C   0  0  0  0  0  0  0  0  0  0  0  0
   43.1096   13.9665  -13.5053 C   0  0  0  0  0  0  0  0  0  0  0  0
   42.5375   13.5335  -14.6905 C   0  0  0  0  0  0  0  0  0  0  0  0
   43.3326   13.0331  -15.6960 C   0  0  0  0  0  0  0  0  0  0  0  0
   44.6810   12.9695  -15.5126 C   0  0  0  0  0  0  0  0  0  0  0  0
   45.2714   13.4006  -14.3282 C   0  0  0  0  0  0  0  0  0  0  0  0
   46.6400   13.3257  -14.1738 O   0  0  0  0  0  0  0  0  0  0  0  0
   47.5198   14.3874  -14.5178 C   0  0  0  0  0  0  0  0  0  0  0  0
   45.5085   12.4677  -16.5166 O   0  0  0  0  0  0  0  0  0  0  0  0
   44.9365   11.8039  -17.6107 C   0  0  0  0  0  0  0  0  0  0  0  0
   44.4175   14.0328  -10.9217 C   0  0  0  0  0  0  0  0  0  0  0  0
   45.0184   14.3329  -12.1485 O   0  0  0  0  0  0  0  0  0  0  0  0
   38.0480   12.1548  -14.1897 C   0  0  0  0  0  0  0  0  0  0  0  0
   37.7144   11.7021  -15.5504 C   0  0  0  0  0  0  0  0  0  0  0  0
   36.4326   11.6632  -16.0457 C   0  0  0  0  0  0  0  0  0  0  0  0
   36.1289   11.2370  -17.3048 C   0  0  0  0  0  0  0  0  0  0  0  0
   37.1672   10.8200  -18.1312 C   0  0  0  0  0  0  0  0  0  0  0  0
   38.4441   10.8530  -17.6530 C   0  0  0  0  0  0  0  0  0  0  0  0
   38.7479   11.2790  -16.3960 C   0  0  0  0  0  0  0  0  0  0  0  0
   36.9062   15.0487  -10.1537 C   0  0  0  0  0  0  0  0  0  0  0  0
   36.2412   14.3837   -9.3545 O   0  0  0  0  0  0  0  0  0  0  0  0
   38.1266   15.6405   -9.7192 N   0  0  0  0  0  0  0  0  0  0  0  0
   38.7052   16.2100  -10.3566 H   0  0  0  0  0  0  0  0  0  0  0  0
   38.6311   15.4754   -8.3442 C   0  0  0  0  0  0  0  0  0  0  0  0
   38.1142   16.5345   -7.4789 C   0  0  0  0  0  0  0  0  0  0  0  0
   36.7691   16.6219   -7.0427 N   0  0  0  0  0  0  0  0  0  0  0  0
   38.9015   17.4601   -7.0687 O   0  0  0  0  0  0  0  0  0  0  0  0
   36.5347   17.0420   -6.1277 H   0  0  0  0  0  0  0  0  0  0  0  0
   35.9753   16.2680   -7.6255 H   0  0  0  0  0  0  0  0  0  0  0  0
   40.1073   15.3841   -8.4784 C   0  0  0  0  0  0  0  0  0  0  0  0
   40.7742   14.2715   -7.8125 C   0  0  0  0  0  0  0  0  0  0  0  0
   40.0279   13.4597   -6.9497 C   0  0  0  0  0  0  0  0  0  0  0  0
   40.6130   12.3884   -6.3238 C   0  0  0  0  0  0  0  0  0  0  0  0
   41.9419   12.0857   -6.5328 C   0  0  0  0  0  0  0  0  0  0  0  0
   42.7020   12.8696   -7.3793 C   0  0  0  0  0  0  0  0  0  0  0  0
   42.0984   13.9328   -7.9894 C   0  0  0  0  0  0  0  0  0  0  0  0
   34.9794   15.3571  -11.5516 C   0  0  0  0  0  0  0  0  0  0  0  0
   34.3335   14.3179  -12.4167 C   0  0  0  0  0  0  0  0  0  0  0  0
   32.8970   14.6449  -12.7300 C   0  0  0  0  0  0  0  0  0  0  0  0
   32.1512   15.0024  -11.5395 N   0  0  0  0  0  0  0  0  0  0  0  0
   32.5476   15.6509  -10.8281 H   0  0  0  0  0  0  0  0  0  0  0  0
   30.8516   14.4745  -11.3135 C   0  0  0  0  0  0  0  0  0  0  0  0
   29.9217   14.4847  -12.3852 N   0  0  0  0  0  0  0  0  0  0  0  0
   30.5197   13.9999  -10.1752 N   0  0  0  0  0  0  0  0  0  0  0  0
   30.0061   15.2077  -13.1220 H   0  0  0  0  0  0  0  0  0  0  0  0
   29.1481   13.7979  -12.4719 H   0  0  0  0  0  0  0  0  0  0  0  0
   29.5916   13.5965   -9.9321 H   0  0  0  0  0  0  0  0  0  0  0  0
 21 22  1  0  0  0
 22 11  1  0  0  0
 11 12  2  0  0  0
 12 13  1  0  0  0
 13 14  2  0  0  0
 14 15  1  0  0  0
 15 19  1  0  0  0
 19 20  1  0  0  0
 15 16  2  0  0  0
 16 17  1  0  0  0
 17 18  1  0  0  0
 13  7  1  0  0  0
  7  8  2  0  0  0
  7  9  1  0  0  0
  9  6  1  0  0  0
  6 23  1  0  0  0
 23 24  1  0  0  0
 24 25  2  0  0  0
 25 26  1  0  0  0
 26 27  2  0  0  0
 27 28  1  0  0  0
 28 29  2  0  0  0
  6  2  1  0  0  0
  2  3  2  0  0  0
  2  4  1  0  0  0
  4  1  1  0  0  0
  1 47  1  0  0  0
 47 48  1  0  0  0
 48 49  1  0  0  0
 49 50  1  0  0  0
 50 52  1  0  0  0
 52 53  1  0  0  0
 52 54  2  0  0  0
  1 30  1  0  0  0
 30 31  2  0  0  0
 30 32  1  0  0  0
 32 34  1  0  0  0
 34 40  1  0  0  0
 40 41  1  0  0  0
 41 42  2  0  0  0
 42 43  1  0  0  0
 43 44  2  0  0  0
 44 45  1  0  0  0
 45 46  2  0  0  0
 34 35  1  0  0  0
 35 36  1  0  0  0
 35 37  2  0  0  0
 16 11  1  0  0  0
 29 24  1  0  0  0
 46 41  1  0  0  0
  9 10  1  0  0  0
  4  5  1  0  0  0
 50 51  1  0  0  0
 53 55  1  0  0  0
 53 56  1  0  0  0
 54 57  1  0  0  0
 32 33  1  0  0  0
 36 38  1  0  0  0
 36 39  1  0  0  0
M  END
> <minimizedAffinity>
-8.41859

> <CNNscore>
0.2425933778

> <CNNaffinity>
7.0007677078

> <CNN_VS>
1.6983399391

> <CNNaffinity_variance>
0.3880707026

$$$$
[H]N=C(N([H])[H])N([H])C([H])([H])C([H])([H])C([H])([H])[C@@]([H])(C(=O)N([H])[C@]([H])(C(=O)N([H])[H])C([H])([H])c1c([H])c([H])c([H])c([H])c1[H])N([H])C(=O)[C@@]([H])(N([H])C(=O)c1c([H])c(OC([H])([H])[H])c(OC([H])([H])[H])c(OC([H])([H])[H])c1[H])C([H])([H])c1c([H])c([H])c([H])c([H])c1[H]


 57 59  0  0  0  0  0  0  0  0999 V2000
   35.4851   14.3948  -11.0701 C   0  0  0  0  0  0  0  0  0  0  0  0
   36.9892   15.3616   -9.4131 C   0  0  0  0  0  0  0  0  0  0  0  0
   36.6441   14.4061   -8.6200 O   0  0  0  0  0  0  0  0  0  0  0  0
   36.4506   15.4101  -10.7255 N   0  0  0  0  0  0  0  0  0  0  0  0
   36.7481   16.1435  -11.3885 H   0  0  0  0  0  0  0  0  0  0  0  0
   37.9138   16.3371   -8.8828 C   0  0  0  0  0  0  0  0  0  0  0  0
   40.0494   15.9067   -7.5684 C   0  0  0  0  0  0  0  0  0  0  0  0
   39.6299   16.5930   -6.5800 O   0  0  0  0  0  0  0  0  0  0  0  0
   39.2419   15.7613   -8.7128 N   0  0  0  0  0  0  0  0  0  0  0  0
   39.6087   15.1986   -9.5116 H   0  0  0  0  0  0  0  0  0  0  0  0
   43.4348   15.0133   -6.3188 C   0  0  0  0  0  0  0  0  0  0  0  0
   42.1915   15.5745   -6.3867 C   0  0  0  0  0  0  0  0  0  0  0  0
   41.3617   15.2990   -7.4615 C   0  0  0  0  0  0  0  0  0  0  0  0
   41.7893   14.4580   -8.4632 C   0  0  0  0  0  0  0  0  0  0  0  0
   43.0312   13.9035   -8.3854 C   0  0  0  0  0  0  0  0  0  0  0  0
   43.8770   14.1702   -7.3127 C   0  0  0  0  0  0  0  0  0  0  0  0
   45.1298   13.5953   -7.2639 O   0  0  0  0  0  0  0  0  0  0  0  0
   46.2940   14.2244   -7.7823 C   0  0  0  0  0  0  0  0  0  0  0  0
   43.4885   13.0490   -9.3882 O   0  0  0  0  0  0  0  0  0  0  0  0
   43.8226   13.5783  -10.6424 C   0  0  0  0  0  0  0  0  0  0  0  0
   44.0579   14.6621   -4.0127 C   0  0  0  0  0  0  0  0  0  0  0  0
   44.2497   15.2962   -5.2445 O   0  0  0  0  0  0  0  0  0  0  0  0
   37.8911   17.6761   -9.4611 C   0  0  0  0  0  0  0  0  0  0  0  0
   37.3244   18.7729   -8.6589 C   0  0  0  0  0  0  0  0  0  0  0  0
   37.8688   20.0340   -8.6036 C   0  0  0  0  0  0  0  0  0  0  0  0
   37.3430   21.0443   -7.8539 C   0  0  0  0  0  0  0  0  0  0  0  0
   36.1982   20.7878   -7.1065 C   0  0  0  0  0  0  0  0  0  0  0  0
   35.6473   19.5409   -7.1516 C   0  0  0  0  0  0  0  0  0  0  0  0
   36.1716   18.5319   -7.9005 C   0  0  0  0  0  0  0  0  0  0  0  0
   36.0170   13.4898  -12.1025 C   0  0  0  0  0  0  0  0  0  0  0  0
   35.6559   12.3138  -12.2024 O   0  0  0  0  0  0  0  0  0  0  0  0
   36.9801   14.0013  -13.0185 N   0  0  0  0  0  0  0  0  0  0  0  0
   37.3123   14.9769  -12.9609 H   0  0  0  0  0  0  0  0  0  0  0  0
   37.5547   13.1736  -14.0942 C   0  0  0  0  0  0  0  0  0  0  0  0
   38.9886   13.4275  -14.2248 C   0  0  0  0  0  0  0  0  0  0  0  0
   39.7335   14.2589  -13.3523 N   0  0  0  0  0  0  0  0  0  0  0  0
   39.6465   12.8779  -15.1787 O   0  0  0  0  0  0  0  0  0  0  0  0
   40.7315   14.0683  -13.1619 H   0  0  0  0  0  0  0  0  0  0  0  0
   39.3036   15.0855  -12.8760 H   0  0  0  0  0  0  0  0  0  0  0  0
   36.7166   13.4495  -15.2889 C   0  0  0  0  0  0  0  0  0  0  0  0
   35.8450   12.3793  -15.7589 C   0  0  0  0  0  0  0  0  0  0  0  0
   36.3648   11.4308  -16.6481 C   0  0  0  0  0  0  0  0  0  0  0  0
   35.5840   10.3947  -17.0938 C   0  0  0  0  0  0  0  0  0  0  0  0
   34.2771   10.2621  -16.6746 C   0  0  0  0  0  0  0  0  0  0  0  0
   33.7384   11.1834  -15.7971 C   0  0  0  0  0  0  0  0  0  0  0  0
   34.5342   12.2082  -15.3690 C   0  0  0  0  0  0  0  0  0  0  0  0
   34.2136   15.0001  -11.6243 C   0  0  0  0  0  0  0  0  0  0  0  0
   33.5624   15.9467  -10.6624 C   0  0  0  0  0  0  0  0  0  0  0  0
   32.0968   15.6547  -10.4742 C   0  0  0  0  0  0  0  0  0  0  0  0
   31.4698   15.2167  -11.7055 N   0  0  0  0  0  0  0  0  0  0  0  0
   31.9683   15.2783  -12.6174 H   0  0  0  0  0  0  0  0  0  0  0  0
   30.1512   14.6873  -11.6982 C   0  0  0  0  0  0  0  0  0  0  0  0
   29.5049   14.4993  -10.4492 N   0  0  0  0  0  0  0  0  0  0  0  0
   29.5543   14.3850  -12.7861 N   0  0  0  0  0  0  0  0  0  0  0  0
   30.0775   14.3274   -9.6035 H   0  0  0  0  0  0  0  0  0  0  0  0
   28.4734   14.5231  -10.3347 H   0  0  0  0  0  0  0  0  0  0  0  0
   28.5925   13.9949  -12.8634 H   0  0  0  0  0  0  0  0  0  0  0  0
 21 22  1  0  0  0
 22 11  1  0  0  0
 11 12  2  0  0  0
 12 13  1  0  0  0
 13 14  2  0  0  0
 14 15  1  0  0  0
 15 19  1  0  0  0
 19 20  1  0  0  0
 15 16  2  0  0  0
 16 17  1  0  0  0
 17 18  1  0  0  0
 13  7  1  0  0  0
  7  8  2  0  0  0
  7  9  1  0  0  0
  9  6  1  0  0  0
  6 23  1  0  0  0
 23 24  1  0  0  0
 24 25  2  0  0  0
 25 26  1  0  0  0
 26 27  2  0  0  0
 27 28  1  0  0  0
 28 29  2  0  0  0
  6  2  1  0  0  0
  2  3  2  0  0  0
  2  4  1  0  0  0
  4  1  1  0  0  0
  1 47  1  0  0  0
 47 48  1  0  0  0
 48 49  1  0  0  0
 49 50  1  0  0  0
 50 52  1  0  0  0
 52 53  1  0  0  0
 52 54  2  0  0  0
  1 30  1  0  0  0
 30 31  2  0  0  0
 30 32  1  0  0  0
 32 34  1  0  0  0
 34 40  1  0  0  0
 40 41  1  0  0  0
 41 42  2  0  0  0
 42 43  1  0  0  0
 43 44  2  0  0  0
 44 45  1  0  0  0
 45 46  2  0  0  0
 34 35  1  0  0  0
 35 36  1  0  0  0
 35 37  2  0  0  0
 16 11  1  0  0  0
 29 24  1  0  0  0
 46 41  1  0  0  0
  9 10  1  0  0  0
  4  5  1  0  0  0
 50 51  1  0  0  0
 53 55  1  0  0  0
 53 56  1  0  0  0
 54 57  1  0  0  0
 32 33  1  0  0  0
 36 38  1  0  0  0
 36 39  1  0  0  0
M  END
> <minimizedAffinity>
-7.45957

> <CNNscore>
0.2409500629

> <CNNaffinity>
6.9406752586

> <CNN_VS>
1.6723561287

> <CNNaffinity_variance>
0.2665812969

$$$$
[H]N=C(N([H])[H])N([H])C([H])([H])C([H])([H])C([H])([H])[C@@]([H])(C(=O)N([H])[C@]([H])(C(=O)N([H])[H])C([H])([H])c1c([H])c([H])c([H])c([H])c1[H])N([H])C(=O)[C@@]([H])(N([H])C(=O)c1c([H])c(OC([H])([H])[H])c(OC([H])([H])[H])c(OC([H])([H])[H])c1[H])C([H])([H])c1c([H])c([H])c([H])c([H])c1[H]


 57 59  0  0  0  0  0  0  0  0999 V2000
   36.0136   14.9860  -11.6451 C   0  0  0  0  0  0  0  0  0  0  0  0
   37.6599   15.9295  -10.1146 C   0  0  0  0  0  0  0  0  0  0  0  0
   37.6596   14.7966   -9.5000 O   0  0  0  0  0  0  0  0  0  0  0  0
   36.8482   16.1004  -11.2664 N   0  0  0  0  0  0  0  0  0  0  0  0
   36.8679   16.9865  -11.7960 H   0  0  0  0  0  0  0  0  0  0  0  0
   38.5022   16.9638   -9.5592 C   0  0  0  0  0  0  0  0  0  0  0  0
   40.4838   16.3958  -11.0508 C   0  0  0  0  0  0  0  0  0  0  0  0
   39.7493   16.3783  -12.0920 O   0  0  0  0  0  0  0  0  0  0  0  0
   39.9111   16.6743   -9.7948 N   0  0  0  0  0  0  0  0  0  0  0  0
   40.5316   16.6785   -8.9556 H   0  0  0  0  0  0  0  0  0  0  0  0
   43.7356   15.4049  -12.5554 C   0  0  0  0  0  0  0  0  0  0  0  0
   42.4044   15.6825  -12.4283 C   0  0  0  0  0  0  0  0  0  0  0  0
   41.8984   16.1232  -11.2160 C   0  0  0  0  0  0  0  0  0  0  0  0
   42.7374   16.2826  -10.1372 C   0  0  0  0  0  0  0  0  0  0  0  0
   44.0636   16.0031  -10.2751 C   0  0  0  0  0  0  0  0  0  0  0  0
   44.5877   15.5593  -11.4856 C   0  0  0  0  0  0  0  0  0  0  0  0
   45.9346   15.2823  -11.5929 O   0  0  0  0  0  0  0  0  0  0  0  0
   46.8948   16.2440  -12.0088 C   0  0  0  0  0  0  0  0  0  0  0  0
   44.9345   16.1554   -9.1965 O   0  0  0  0  0  0  0  0  0  0  0  0
   44.9314   17.3573   -8.4752 C   0  0  0  0  0  0  0  0  0  0  0  0
   43.8100   13.7467  -14.3088 C   0  0  0  0  0  0  0  0  0  0  0  0
   44.2253   14.9672  -13.7665 O   0  0  0  0  0  0  0  0  0  0  0  0
   38.1107   18.3505   -9.7861 C   0  0  0  0  0  0  0  0  0  0  0  0
   37.4250   19.0686   -8.6990 C   0  0  0  0  0  0  0  0  0  0  0  0
   36.3912   18.5331   -7.9680 C   0  0  0  0  0  0  0  0  0  0  0  0
   35.7557   19.2053   -6.9663 C   0  0  0  0  0  0  0  0  0  0  0  0
   36.1728   20.4983   -6.6677 C   0  0  0  0  0  0  0  0  0  0  0  0
   37.1973   21.0425   -7.3851 C   0  0  0  0  0  0  0  0  0  0  0  0
   37.8326   20.3715   -8.3850 C   0  0  0  0  0  0  0  0  0  0  0  0
   36.3322   14.5272  -13.0073 C   0  0  0  0  0  0  0  0  0  0  0  0
   37.0266   15.1891  -13.7838 O   0  0  0  0  0  0  0  0  0  0  0  0
   35.8192   13.2690  -13.4339 N   0  0  0  0  0  0  0  0  0  0  0  0
   35.2282   12.6913  -12.8155 H   0  0  0  0  0  0  0  0  0  0  0  0
   36.1003   12.7221  -14.7734 C   0  0  0  0  0  0  0  0  0  0  0  0
   34.9053   12.0882  -15.3283 C   0  0  0  0  0  0  0  0  0  0  0  0
   33.6064   12.2158  -14.7771 N   0  0  0  0  0  0  0  0  0  0  0  0
   35.0021   11.3635  -16.3820 O   0  0  0  0  0  0  0  0  0  0  0  0
   32.7684   12.1826  -15.3814 H   0  0  0  0  0  0  0  0  0  0  0  0
   33.4526   12.3467  -13.7503 H   0  0  0  0  0  0  0  0  0  0  0  0
   37.2948   11.8570  -14.5992 C   0  0  0  0  0  0  0  0  0  0  0  0
   38.4360   12.1048  -15.4722 C   0  0  0  0  0  0  0  0  0  0  0  0
   38.5430   11.3746  -16.6620 C   0  0  0  0  0  0  0  0  0  0  0  0
   39.5886   11.5962  -17.5219 C   0  0  0  0  0  0  0  0  0  0  0  0
   40.5509   12.5419  -17.2372 C   0  0  0  0  0  0  0  0  0  0  0  0
   40.4700   13.2772  -16.0702 C   0  0  0  0  0  0  0  0  0  0  0  0
   39.4212   13.0370  -15.2280 C   0  0  0  0  0  0  0  0  0  0  0  0
   34.5471   15.3595  -11.6352 C   0  0  0  0  0  0  0  0  0  0  0  0
   34.0861   15.8378  -10.2920 C   0  0  0  0  0  0  0  0  0  0  0  0
   32.5901   15.7565  -10.1370 C   0  0  0  0  0  0  0  0  0  0  0  0
   31.9929   14.8630  -11.1097 N   0  0  0  0  0  0  0  0  0  0  0  0
   32.5811   14.2685  -11.7298 H   0  0  0  0  0  0  0  0  0  0  0  0
   30.5809   14.7745  -11.2407 C   0  0  0  0  0  0  0  0  0  0  0  0
   30.0394   14.4304  -12.5062 N   0  0  0  0  0  0  0  0  0  0  0  0
   29.8097   14.9977  -10.2474 N   0  0  0  0  0  0  0  0  0  0  0  0
   30.5702   14.6634  -13.3645 H   0  0  0  0  0  0  0  0  0  0  0  0
   29.1251   13.9523  -12.6213 H   0  0  0  0  0  0  0  0  0  0  0  0
   28.7700   14.9524  -10.2631 H   0  0  0  0  0  0  0  0  0  0  0  0
 21 22  1  0  0  0
 22 11  1  0  0  0
 11 12  2  0  0  0
 12 13  1  0  0  0
 13 14  2  0  0  0
 14 15  1  0  0  0
 15 19  1  0  0  0
 19 20  1  0  0  0
 15 16  2  0  0  0
 16 17  1  0  0  0
 17 18  1  0  0  0
 13  7  1  0  0  0
  7  8  2  0  0  0
  7  9  1  0  0  0
  9  6  1  0  0  0
  6 23  1  0  0  0
 23 24  1  0  0  0
 24 25  2  0  0  0
 25 26  1  0  0  0
 26 27  2  0  0  0
 27 28  1  0  0  0
 28 29  2  0  0  0
  6  2  1  0  0  0
  2  3  2  0  0  0
  2  4  1  0  0  0
  4  1  1  0  0  0
  1 47  1  0  0  0
 47 48  1  0  0  0
 48 49  1  0  0  0
 49 50  1  0  0  0
 50 52  1  0  0  0
 52 53  1  0  0  0
 52 54  2  0  0  0
  1 30  1  0  0  0
 30 31  2  0  0  0
 30 32  1  0  0  0
 32 34  1  0  0  0
 34 40  1  0  0  0
 40 41  1  0  0  0
 41 42  2  0  0  0
 42 43  1  0  0  0
 43 44  2  0  0  0
 44 45  1  0  0  0
 45 46  2  0  0  0
 34 35  1  0  0  0
 35 36  1  0  0  0
 35 37  2  0  0  0
 16 11  1  0  0  0
 29 24  1  0  0  0
 46 41  1  0  0  0
  9 10  1  0  0  0
  4  5  1  0  0  0
 50 51  1  0  0  0
 53 55  1  0  0  0
 53 56  1  0  0  0
 54 57  1  0  0  0
 32 33  1  0  0  0
 36 38  1  0  0  0
 36 39  1  0  0  0
M  END
> <minimizedAffinity>
-8.58022

> <CNNscore>
0.2378183901

> <CNNaffinity>
7.2650747299

> <CNN_VS>
1.7277684212

> <CNNaffinity_variance>
0.2772247493

$$$$
[H]N=C(N([H])[H])N([H])C([H])([H])C([H])([H])C([H])([H])[C@@]([H])(C(=O)N([H])[C@]([H])(C(=O)N([H])[H])C([H])([H])c1c([H])c([H])c([H])c([H])c1[H])N([H])C(=O)[C@@]([H])(N([H])C(=O)c1c([H])c(OC([H])([H])[H])c(OC([H])([H])[H])c(OC([H])([H])[H])c1[H])C([H])([H])c1c([H])c([H])c([H])c([H])c1[H]


 57 59  0  0  0  0  0  0  0  0999 V2000
   37.1011   14.1329  -12.9784 C   0  0  0  0  0  0  0  0  0  0  0  0
   37.0846   15.0715  -10.7285 C   0  0  0  0  0  0  0  0  0  0  0  0
   36.2341   14.1569  -10.4104 O   0  0  0  0  0  0  0  0  0  0  0  0
   37.6110   15.1091  -12.0462 N   0  0  0  0  0  0  0  0  0  0  0  0
   38.3248   15.8081  -12.3068 H   0  0  0  0  0  0  0  0  0  0  0  0
   37.4342   16.0152   -9.6918 C   0  0  0  0  0  0  0  0  0  0  0  0
   39.4985   15.4275   -8.3252 C   0  0  0  0  0  0  0  0  0  0  0  0
   38.7954   14.8519   -7.4318 O   0  0  0  0  0  0  0  0  0  0  0  0
   38.8701   16.0108   -9.4424 N   0  0  0  0  0  0  0  0  0  0  0  0
   39.4662   16.4809  -10.1586 H   0  0  0  0  0  0  0  0  0  0  0  0
   43.1213   16.0240   -8.9078 C   0  0  0  0  0  0  0  0  0  0  0  0
   41.7672   16.0354   -9.0857 C   0  0  0  0  0  0  0  0  0  0  0  0
   40.9367   15.4525   -8.1422 C   0  0  0  0  0  0  0  0  0  0  0  0
   41.4756   14.8608   -7.0228 C   0  0  0  0  0  0  0  0  0  0  0  0
   42.8276   14.8553   -6.8552 C   0  0  0  0  0  0  0  0  0  0  0  0
   43.6756   15.4362   -7.7936 C   0  0  0  0  0  0  0  0  0  0  0  0
   45.0405   15.4121   -7.5966 O   0  0  0  0  0  0  0  0  0  0  0  0
   45.8805   14.3839   -8.1035 C   0  0  0  0  0  0  0  0  0  0  0  0
   43.3984   14.2611   -5.7301 O   0  0  0  0  0  0  0  0  0  0  0  0
   43.4366   14.9718   -4.5225 C   0  0  0  0  0  0  0  0  0  0  0  0
   43.7493   16.3502  -11.2163 C   0  0  0  0  0  0  0  0  0  0  0  0
   43.9354   16.6071   -9.8541 O   0  0  0  0  0  0  0  0  0  0  0  0
   36.8211   17.3377   -9.7450 C   0  0  0  0  0  0  0  0  0  0  0  0
   37.0389   18.2537   -8.6132 C   0  0  0  0  0  0  0  0  0  0  0  0
   36.6636   17.9688   -7.3217 C   0  0  0  0  0  0  0  0  0  0  0  0
   36.8624   18.8238   -6.2783 C   0  0  0  0  0  0  0  0  0  0  0  0
   37.4754   20.0465   -6.5315 C   0  0  0  0  0  0  0  0  0  0  0  0
   37.8529   20.3427   -7.8082 C   0  0  0  0  0  0  0  0  0  0  0  0
   37.6552   19.4891   -8.8503 C   0  0  0  0  0  0  0  0  0  0  0  0
   38.1945   13.3343  -13.5566 C   0  0  0  0  0  0  0  0  0  0  0  0
   38.2250   12.1026  -13.4844 O   0  0  0  0  0  0  0  0  0  0  0  0
   39.2492   14.0175  -14.2266 N   0  0  0  0  0  0  0  0  0  0  0  0
   39.2622   15.0471  -14.2999 H   0  0  0  0  0  0  0  0  0  0  0  0
   40.3756   13.3000  -14.8500 C   0  0  0  0  0  0  0  0  0  0  0  0
   41.6361   13.6701  -14.2083 C   0  0  0  0  0  0  0  0  0  0  0  0
   42.9035   13.1652  -14.5906 N   0  0  0  0  0  0  0  0  0  0  0  0
   41.6316   14.5036  -13.2336 O   0  0  0  0  0  0  0  0  0  0  0  0
   43.7571   13.7380  -14.4818 H   0  0  0  0  0  0  0  0  0  0  0  0
   43.0176   12.2055  -14.9919 H   0  0  0  0  0  0  0  0  0  0  0  0
   40.2597   13.5793  -16.3041 C   0  0  0  0  0  0  0  0  0  0  0  0
   39.7258   12.5191  -17.1507 C   0  0  0  0  0  0  0  0  0  0  0  0
   38.5378   11.8859  -16.7661 C   0  0  0  0  0  0  0  0  0  0  0  0
   37.9903   10.9011  -17.5484 C   0  0  0  0  0  0  0  0  0  0  0  0
   38.5926   10.5174  -18.7280 C   0  0  0  0  0  0  0  0  0  0  0  0
   39.7656   11.1255  -19.1321 C   0  0  0  0  0  0  0  0  0  0  0  0
   40.2935   12.1019  -18.3352 C   0  0  0  0  0  0  0  0  0  0  0  0
   36.3747   14.7901  -14.1319 C   0  0  0  0  0  0  0  0  0  0  0  0
   35.4367   13.8518  -14.8284 C   0  0  0  0  0  0  0  0  0  0  0  0
   34.5443   13.1137  -13.8653 C   0  0  0  0  0  0  0  0  0  0  0  0
   33.1948   13.6430  -13.8637 N   0  0  0  0  0  0  0  0  0  0  0  0
   32.5928   13.5903  -14.7113 H   0  0  0  0  0  0  0  0  0  0  0  0
   32.6563   14.2493  -12.6970 C   0  0  0  0  0  0  0  0  0  0  0  0
   33.5494   14.8560  -11.7764 N   0  0  0  0  0  0  0  0  0  0  0  0
   31.3986   14.2528  -12.4744 N   0  0  0  0  0  0  0  0  0  0  0  0
   34.5223   14.5071  -11.7098 H   0  0  0  0  0  0  0  0  0  0  0  0
   33.2767   15.6414  -11.1548 H   0  0  0  0  0  0  0  0  0  0  0  0
   30.9291   14.6750  -11.6471 H   0  0  0  0  0  0  0  0  0  0  0  0
 21 22  1  0  0  0
 22 11  1  0  0  0
 11 12  2  0  0  0
 12 13  1  0  0  0
 13 14  2  0  0  0
 14 15  1  0  0  0
 15 19  1  0  0  0
 19 20  1  0  0  0
 15 16  2  0  0  0
 16 17  1  0  0  0
 17 18  1  0  0  0
 13  7  1  0  0  0
  7  8  2  0  0  0
  7  9  1  0  0  0
  9  6  1  0  0  0
  6 23  1  0  0  0
 23 24  1  0  0  0
 24 25  2  0  0  0
 25 26  1  0  0  0
 26 27  2  0  0  0
 27 28  1  0  0  0
 28 29  2  0  0  0
  6  2  1  0  0  0
  2  3  2  0  0  0
  2  4  1  0  0  0
  4  1  1  0  0  0
  1 47  1  0  0  0
 47 48  1  0  0  0
 48 49  1  0  0  0
 49 50  1  0  0  0
 50 52  1  0  0  0
 52 53  1  0  0  0
 52 54  2  0  0  0
  1 30  1  0  0  0
 30 31  2  0  0  0
 30 32  1  0  0  0
 32 34  1  0  0  0
 34 40  1  0  0  0
 40 41  1  0  0  0
 41 42  2  0  0  0
 42 43  1  0  0  0
 43 44  2  0  0  0
 44 45  1  0  0  0
 45 46  2  0  0  0
 34 35  1  0  0  0
 35 36  1  0  0  0
 35 37  2  0  0  0
 16 11  1  0  0  0
 29 24  1  0  0  0
 46 41  1  0  0  0
  9 10  1  0  0  0
  4  5  1  0  0  0
 50 51  1  0  0  0
 53 55  1  0  0  0
 53 56  1  0  0  0
 54 57  1  0  0  0
 32 33  1  0  0  0
 36 38  1  0  0  0
 36 39  1  0  0  0
M  END
> <minimizedAffinity>
-7.62003

> <CNNscore>
0.2323786020

> <CNNaffinity>
6.9053893089

> <CNN_VS>
1.6046646833

> <CNNaffinity_variance>
0.5821367502

$$$$
[H]N=C(N([H])[H])N([H])C([H])([H])C([H])([H])C([H])([H])[C@@]([H])(C(=O)N([H])[C@]([H])(C(=O)N([H])[H])C([H])([H])c1c([H])c([H])c([H])c([H])c1[H])N([H])C(=O)[C@@]([H])(N([H])C(=O)c1c([H])c(OC([H])([H])[H])c(OC([H])([H])[H])c(OC([H])([H])[H])c1[H])C([H])([H])c1c([H])c([H])c([H])c([H])c1[H]


 57 59  0  0  0  0  0  0  0  0999 V2000
   35.4970   14.7420  -11.7010 C   0  0  0  0  0  0  0  0  0  0  0  0
   36.9051   15.5372   -9.8769 C   0  0  0  0  0  0  0  0  0  0  0  0
   36.6786   14.4157   -9.2836 O   0  0  0  0  0  0  0  0  0  0  0  0
   36.3478   15.7744  -11.1606 N   0  0  0  0  0  0  0  0  0  0  0  0
   36.5533   16.6493  -11.6689 H   0  0  0  0  0  0  0  0  0  0  0  0
   37.7222   16.4908   -9.1622 C   0  0  0  0  0  0  0  0  0  0  0  0
   39.7750   16.0997   -7.7108 C   0  0  0  0  0  0  0  0  0  0  0  0
   39.2645   16.7480   -6.7397 O   0  0  0  0  0  0  0  0  0  0  0  0
   39.0543   15.9551   -8.9119 N   0  0  0  0  0  0  0  0  0  0  0  0
   39.4948   15.4240   -9.6949 H   0  0  0  0  0  0  0  0  0  0  0  0
   43.4316   15.4985   -8.0082 C   0  0  0  0  0  0  0  0  0  0  0  0
   42.1995   16.0640   -8.1748 C   0  0  0  0  0  0  0  0  0  0  0  0
   41.0969   15.5331   -7.5253 C   0  0  0  0  0  0  0  0  0  0  0  0
   41.2416   14.4341   -6.7099 C   0  0  0  0  0  0  0  0  0  0  0  0
   42.4750   13.8781   -6.5506 C   0  0  0  0  0  0  0  0  0  0  0  0
   43.5926   14.3991   -7.1961 C   0  0  0  0  0  0  0  0  0  0  0  0
   44.8277   13.8120   -7.0165 O   0  0  0  0  0  0  0  0  0  0  0  0
   45.3341   12.7922   -7.8671 C   0  0  0  0  0  0  0  0  0  0  0  0
   42.6478   12.7633   -5.7308 O   0  0  0  0  0  0  0  0  0  0  0  0
   42.1007   11.5327   -6.1199 C   0  0  0  0  0  0  0  0  0  0  0  0
   45.1167   17.2164   -8.2051 C   0  0  0  0  0  0  0  0  0  0  0  0
   44.5194   16.0365   -8.6603 O   0  0  0  0  0  0  0  0  0  0  0  0
   37.6891   17.8793   -9.6080 C   0  0  0  0  0  0  0  0  0  0  0  0
   37.2255   18.9056   -8.6596 C   0  0  0  0  0  0  0  0  0  0  0  0
   37.7475   20.1760   -8.5992 C   0  0  0  0  0  0  0  0  0  0  0  0
   37.3184   21.1205   -7.7144 C   0  0  0  0  0  0  0  0  0  0  0  0
   36.3014   20.7835   -6.8271 C   0  0  0  0  0  0  0  0  0  0  0  0
   35.7742   19.5265   -6.8756 C   0  0  0  0  0  0  0  0  0  0  0  0
   36.2019   18.5832   -7.7593 C   0  0  0  0  0  0  0  0  0  0  0  0
   35.9322   14.3536  -13.0529 C   0  0  0  0  0  0  0  0  0  0  0  0
   36.6202   15.0907  -13.7646 O   0  0  0  0  0  0  0  0  0  0  0  0
   35.5436   13.0756  -13.5468 N   0  0  0  0  0  0  0  0  0  0  0  0
   34.9617   12.4354  -12.9838 H   0  0  0  0  0  0  0  0  0  0  0  0
   35.9468   12.5959  -14.8808 C   0  0  0  0  0  0  0  0  0  0  0  0
   34.8361   11.9038  -15.5329 C   0  0  0  0  0  0  0  0  0  0  0  0
   33.5288   11.8110  -14.9949 N   0  0  0  0  0  0  0  0  0  0  0  0
   35.0214   11.3332  -16.6665 O   0  0  0  0  0  0  0  0  0  0  0  0
   32.7031   11.7580  -15.6145 H   0  0  0  0  0  0  0  0  0  0  0  0
   33.3562   11.7932  -13.9629 H   0  0  0  0  0  0  0  0  0  0  0  0
   37.1843   11.8066  -14.6544 C   0  0  0  0  0  0  0  0  0  0  0  0
   38.3553   12.1508  -15.4519 C   0  0  0  0  0  0  0  0  0  0  0  0
   38.5840   11.4549  -16.6452 C   0  0  0  0  0  0  0  0  0  0  0  0
   39.6608   11.7662  -17.4359 C   0  0  0  0  0  0  0  0  0  0  0  0
   40.5357   12.7699  -17.0773 C   0  0  0  0  0  0  0  0  0  0  0  0
   40.3340   13.4732  -15.9052 C   0  0  0  0  0  0  0  0  0  0  0  0
   39.2563   13.1436  -15.1326 C   0  0  0  0  0  0  0  0  0  0  0  0
   34.0609   15.2060  -11.8143 C   0  0  0  0  0  0  0  0  0  0  0  0
   33.5630   15.8438  -10.5531 C   0  0  0  0  0  0  0  0  0  0  0  0
   32.0605   15.8170  -10.4515 C   0  0  0  0  0  0  0  0  0  0  0  0
   31.4476   15.2591  -11.6408 N   0  0  0  0  0  0  0  0  0  0  0  0
   31.9207   15.3094  -12.5667 H   0  0  0  0  0  0  0  0  0  0  0  0
   30.1783   14.6242  -11.5714 C   0  0  0  0  0  0  0  0  0  0  0  0
   29.4408   14.4543  -12.7715 N   0  0  0  0  0  0  0  0  0  0  0  0
   29.7049   14.2130  -10.4588 N   0  0  0  0  0  0  0  0  0  0  0  0
   29.5835   15.1197  -13.5522 H   0  0  0  0  0  0  0  0  0  0  0  0
   28.7537   13.6888  -12.9118 H   0  0  0  0  0  0  0  0  0  0  0  0
   28.7874   13.7399  -10.3265 H   0  0  0  0  0  0  0  0  0  0  0  0
 21 22  1  0  0  0
 22 11  1  0  0  0
 11 12  2  0  0  0
 12 13  1  0  0  0
 13 14  2  0  0  0
 14 15  1  0  0  0
 15 19  1  0  0  0
 19 20  1  0  0  0
 15 16  2  0  0  0
 16 17  1  0  0  0
 17 18  1  0  0  0
 13  7  1  0  0  0
  7  8  2  0  0  0
  7  9  1  0  0  0
  9  6  1  0  0  0
  6 23  1  0  0  0
 23 24  1  0  0  0
 24 25  2  0  0  0
 25 26  1  0  0  0
 26 27  2  0  0  0
 27 28  1  0  0  0
 28 29  2  0  0  0
  6  2  1  0  0  0
  2  3  2  0  0  0
  2  4  1  0  0  0
  4  1  1  0  0  0
  1 47  1  0  0  0
 47 48  1  0  0  0
 48 49  1  0  0  0
 49 50  1  0  0  0
 50 52  1  0  0  0
 52 53  1  0  0  0
 52 54  2  0  0  0
  1 30  1  0  0  0
 30 31  2  0  0  0
 30 32  1  0  0  0
 32 34  1  0  0  0
 34 40  1  0  0  0
 40 41  1  0  0  0
 41 42  2  0  0  0
 42 43  1  0  0  0
 43 44  2  0  0  0
 44 45  1  0  0  0
 45 46  2  0  0  0
 34 35  1  0  0  0
 35 36  1  0  0  0
 35 37  2  0  0  0
 16 11  1  0  0  0
 29 24  1  0  0  0
 46 41  1  0  0  0
  9 10  1  0  0  0
  4  5  1  0  0  0
 50 51  1  0  0  0
 53 55  1  0  0  0
 53 56  1  0  0  0
 54 57  1  0  0  0
 32 33  1  0  0  0
 36 38  1  0  0  0
 36 39  1  0  0  0
M  END
> <minimizedAffinity>
-7.99500

> <CNNscore>
0.2062284946

> <CNNaffinity>
6.9723062515

> <CNN_VS>
1.4378882647

> <CNNaffinity_variance>
0.2549192905

$$$$
[H]N=C(N([H])[H])N([H])C([H])([H])C([H])([H])C([H])([H])[C@@]([H])(C(=O)N([H])[C@]([H])(C(=O)N([H])[H])C([H])([H])c1c([H])c([H])c([H])c([H])c1[H])N([H])C(=O)[C@@]([H])(N([H])C(=O)c1c([H])c(OC([H])([H])[H])c(OC([H])([H])[H])c(OC([H])([H])[H])c1[H])C([H])([H])c1c([H])c([H])c([H])c([H])c1[H]


 57 59  0  0  0  0  0  0  0  0999 V2000
   37.5154   14.4962  -12.8549 C   0  0  0  0  0  0  0  0  0  0  0  0
   37.9175   15.7000  -10.7735 C   0  0  0  0  0  0  0  0  0  0  0  0
   37.1051   14.8780  -10.2030 O   0  0  0  0  0  0  0  0  0  0  0  0
   38.2099   15.5492  -12.1543 N   0  0  0  0  0  0  0  0  0  0  0  0
   38.8905   16.1718  -12.6180 H   0  0  0  0  0  0  0  0  0  0  0  0
   38.4711   16.7421   -9.9397 C   0  0  0  0  0  0  0  0  0  0  0  0
   40.7750   16.0279   -9.1299 C   0  0  0  0  0  0  0  0  0  0  0  0
   40.2740   15.3171   -8.1984 O   0  0  0  0  0  0  0  0  0  0  0  0
   39.9273   16.7417   -9.9988 N   0  0  0  0  0  0  0  0  0  0  0  0
   40.3607   17.3208  -10.7512 H   0  0  0  0  0  0  0  0  0  0  0  0
   44.3894   16.0632   -8.2611 C   0  0  0  0  0  0  0  0  0  0  0  0
   43.0316   15.9982   -8.1290 C   0  0  0  0  0  0  0  0  0  0  0  0
   42.2196   16.0656   -9.2496 C   0  0  0  0  0  0  0  0  0  0  0  0
   42.7807   16.1978  -10.4991 C   0  0  0  0  0  0  0  0  0  0  0  0
   44.1362   16.2614  -10.6195 C   0  0  0  0  0  0  0  0  0  0  0  0
   44.9658   16.1954   -9.5039 C   0  0  0  0  0  0  0  0  0  0  0  0
   46.3347   16.2650   -9.6584 O   0  0  0  0  0  0  0  0  0  0  0  0
   47.0619   17.4847   -9.6001 C   0  0  0  0  0  0  0  0  0  0  0  0
   44.7293   16.3965  -11.8744 O   0  0  0  0  0  0  0  0  0  0  0  0
   44.1289   17.2249  -12.8326 C   0  0  0  0  0  0  0  0  0  0  0  0
   45.0231   16.9056   -6.0889 C   0  0  0  0  0  0  0  0  0  0  0  0
   45.1849   15.9952   -7.1383 O   0  0  0  0  0  0  0  0  0  0  0  0
   37.8512   18.0610  -10.0031 C   0  0  0  0  0  0  0  0  0  0  0  0
   37.6238   18.7862   -8.7421 C   0  0  0  0  0  0  0  0  0  0  0  0
   37.6147   20.1575   -8.6449 C   0  0  0  0  0  0  0  0  0  0  0  0
   37.4097   20.8237   -7.4730 C   0  0  0  0  0  0  0  0  0  0  0  0
   37.1991   20.0801   -6.3164 C   0  0  0  0  0  0  0  0  0  0  0  0
   37.2057   18.7186   -6.3979 C   0  0  0  0  0  0  0  0  0  0  0  0
   37.4098   18.0529   -7.5679 C   0  0  0  0  0  0  0  0  0  0  0  0
   38.4664   13.5668  -13.4872 C   0  0  0  0  0  0  0  0  0  0  0  0
   38.3265   12.3415  -13.4390 O   0  0  0  0  0  0  0  0  0  0  0  0
   39.5835   14.1121  -14.1821 N   0  0  0  0  0  0  0  0  0  0  0  0
   39.7380   15.1312  -14.2367 H   0  0  0  0  0  0  0  0  0  0  0  0
   40.5769   13.2595  -14.8592 C   0  0  0  0  0  0  0  0  0  0  0  0
   41.9094   13.4840  -14.3007 C   0  0  0  0  0  0  0  0  0  0  0  0
   42.1536   13.9841  -12.9979 N   0  0  0  0  0  0  0  0  0  0  0  0
   42.9467   13.2215  -15.0078 O   0  0  0  0  0  0  0  0  0  0  0  0
   42.9996   13.7058  -12.4732 H   0  0  0  0  0  0  0  0  0  0  0  0
   41.4930   14.6453  -12.5272 H   0  0  0  0  0  0  0  0  0  0  0  0
   40.4054   13.5355  -16.3084 C   0  0  0  0  0  0  0  0  0  0  0  0
   39.7238   12.5248  -17.1081 C   0  0  0  0  0  0  0  0  0  0  0  0
   40.3150   12.1039  -18.3055 C   0  0  0  0  0  0  0  0  0  0  0  0
   39.7174   11.1371  -19.0734 C   0  0  0  0  0  0  0  0  0  0  0  0
   38.5287   10.5575  -18.6831 C   0  0  0  0  0  0  0  0  0  0  0  0
   37.9232   10.9534  -17.5059 C   0  0  0  0  0  0  0  0  0  0  0  0
   38.5357   11.9198  -16.7590 C   0  0  0  0  0  0  0  0  0  0  0  0
   36.6349   15.0459  -13.9560 C   0  0  0  0  0  0  0  0  0  0  0  0
   35.7891   13.9876  -14.5964 C   0  0  0  0  0  0  0  0  0  0  0  0
   34.6215   13.5868  -13.7334 C   0  0  0  0  0  0  0  0  0  0  0  0
   33.6856   14.6781  -13.5483 N   0  0  0  0  0  0  0  0  0  0  0  0
   33.3089   15.2103  -14.3599 H   0  0  0  0  0  0  0  0  0  0  0  0
   33.2549   15.0498  -12.2463 C   0  0  0  0  0  0  0  0  0  0  0  0
   34.2205   15.1204  -11.2091 N   0  0  0  0  0  0  0  0  0  0  0  0
   32.0290   15.3159  -12.0065 N   0  0  0  0  0  0  0  0  0  0  0  0
   35.0678   14.5274  -11.2648 H   0  0  0  0  0  0  0  0  0  0  0  0
   34.1221   15.7420  -10.3835 H   0  0  0  0  0  0  0  0  0  0  0  0
   31.6370   15.5951  -11.0837 H   0  0  0  0  0  0  0  0  0  0  0  0
 21 22  1  0  0  0
 22 11  1  0  0  0
 11 12  2  0  0  0
 12 13  1  0  0  0
 13 14  2  0  0  0
 14 15  1  0  0  0
 15 19  1  0  0  0
 19 20  1  0  0  0
 15 16  2  0  0  0
 16 17  1  0  0  0
 17 18  1  0  0  0
 13  7  1  0  0  0
  7  8  2  0  0  0
  7  9  1  0  0  0
  9  6  1  0  0  0
  6 23  1  0  0  0
 23 24  1  0  0  0
 24 25  2  0  0  0
 25 26  1  0  0  0
 26 27  2  0  0  0
 27 28  1  0  0  0
 28 29  2  0  0  0
  6  2  1  0  0  0
  2  3  2  0  0  0
  2  4  1  0  0  0
  4  1  1  0  0  0
  1 47  1  0  0  0
 47 48  1  0  0  0
 48 49  1  0  0  0
 49 50  1  0  0  0
 50 52  1  0  0  0
 52 53  1  0  0  0
 52 54  2  0  0  0
  1 30  1  0  0  0
 30 31  2  0  0  0
 30 32  1  0  0  0
 32 34  1  0  0  0
 34 40  1  0  0  0
 40 41  1  0  0  0
 41 42  2  0  0  0
 42 43  1  0  0  0
 43 44  2  0  0  0
 44 45  1  0  0  0
 45 46  2  0  0  0
 34 35  1  0  0  0
 35 36  1  0  0  0
 35 37  2  0  0  0
 16 11  1  0  0  0
 29 24  1  0  0  0
 46 41  1  0  0  0
  9 10  1  0  0  0
  4  5  1  0  0  0
 50 51  1  0  0  0
 53 55  1  0  0  0
 53 56  1  0  0  0
 54 57  1  0  0  0
 32 33  1  0  0  0
 36 38  1  0  0  0
 36 39  1  0  0  0
M  END
> <minimizedAffinity>
-7.90310

> <CNNscore>
0.2014517039

> <CNNaffinity>
6.6440200806

> <CNN_VS>
1.3384491205

> <CNNaffinity_variance>
0.8014599085

$$$$
[H]N=C(N([H])[H])N([H])C([H])([H])C([H])([H])C([H])([H])[C@@]1([H])C(=O)N([H])C([H])([H])C(=O)N([H])[C@]([H])(C([H])([H])c2c([H])c([H])c([H])c([H])c2[H])C(=O)N2C([H])([H])C([H])([H])C([H])([H])[C@@]2([H])C(=O)N1[H]


 40 42  0  0  0  0  0  0  0  0999 V2000
   31.5941   16.1511   -7.6712 C   0  0  0  0  0  0  0  0  0  0  0  0
   31.2253   17.4465   -7.0925 N   0  0  0  0  0  0  0  0  0  0  0  0
   32.1292   18.2757   -6.3847 C   0  0  0  0  0  0  0  0  0  0  0  0
   32.1597   19.4973   -6.6736 O   0  0  0  0  0  0  0  0  0  0  0  0
   33.0557   17.8105   -5.3139 C   0  0  0  0  0  0  0  0  0  0  0  0
   32.3840   18.2105   -3.9992 C   0  0  0  0  0  0  0  0  0  0  0  0
   32.6939   19.6885   -3.9676 C   0  0  0  0  0  0  0  0  0  0  0  0
   33.9762   19.8408   -4.7008 C   0  0  0  0  0  0  0  0  0  0  0  0
   34.2970   18.5390   -5.3148 N   0  0  0  0  0  0  0  0  0  0  0  0
   35.5375   18.1145   -5.8004 C   0  0  0  0  0  0  0  0  0  0  0  0
   36.2921   19.0234   -6.3207 O   0  0  0  0  0  0  0  0  0  0  0  0
   36.0978   16.7499   -5.7935 C   0  0  0  0  0  0  0  0  0  0  0  0
   35.2388   15.7114   -6.2495 N   0  0  0  0  0  0  0  0  0  0  0  0
   34.8601   15.4257   -7.5723 C   0  0  0  0  0  0  0  0  0  0  0  0
   34.7060   14.1929   -7.8784 O   0  0  0  0  0  0  0  0  0  0  0  0
   34.6227   16.4030   -8.6404 C   0  0  0  0  0  0  0  0  0  0  0  0
   33.4589   16.0884   -9.4448 N   0  0  0  0  0  0  0  0  0  0  0  0
   32.1183   16.3366   -9.0520 C   0  0  0  0  0  0  0  0  0  0  0  0
   31.2625   16.7453   -9.8883 O   0  0  0  0  0  0  0  0  0  0  0  0
   30.2217   17.7876   -7.2085 H   0  0  0  0  0  0  0  0  0  0  0  0
   34.8327   15.0704   -5.5062 H   0  0  0  0  0  0  0  0  0  0  0  0
   33.6117   15.6486  -10.3785 H   0  0  0  0  0  0  0  0  0  0  0  0
   30.3143   15.3383   -7.8126 C   0  0  0  0  0  0  0  0  0  0  0  0
   30.5453   13.9925   -8.4051 C   0  0  0  0  0  0  0  0  0  0  0  0
   31.3711   13.1827   -7.4346 C   0  0  0  0  0  0  0  0  0  0  0  0
   30.8583   11.8650   -7.1915 N   0  0  0  0  0  0  0  0  0  0  0  0
   31.5333   11.0539   -7.3205 H   0  0  0  0  0  0  0  0  0  0  0  0
   28.7579   12.4086   -5.9190 N   0  0  0  0  0  0  0  0  0  0  0  0
   29.5223   11.5987   -6.8003 C   0  0  0  0  0  0  0  0  0  0  0  0
   28.9470   10.5470   -7.2719 N   0  0  0  0  0  0  0  0  0  0  0  0
   28.6430   12.1537   -4.8952 H   0  0  0  0  0  0  0  0  0  0  0  0
   28.2804   13.2777   -6.2275 H   0  0  0  0  0  0  0  0  0  0  0  0
   27.9681   10.2670   -7.0430 H   0  0  0  0  0  0  0  0  0  0  0  0
   36.6338   16.4293   -4.4051 C   0  0  0  0  0  0  0  0  0  0  0  0
   38.1109   16.3264   -4.3754 C   0  0  0  0  0  0  0  0  0  0  0  0
   38.8508   17.2869   -3.7269 C   0  0  0  0  0  0  0  0  0  0  0  0
   40.2433   17.1820   -3.7096 C   0  0  0  0  0  0  0  0  0  0  0  0
   40.9126   16.1457   -4.3212 C   0  0  0  0  0  0  0  0  0  0  0  0
   40.1597   15.1866   -4.9694 C   0  0  0  0  0  0  0  0  0  0  0  0
   38.7758   15.2806   -4.9931 C   0  0  0  0  0  0  0  0  0  0  0  0
 28 29  1  0  0  0
 29 30  2  0  0  0
 29 26  1  0  0  0
 26 25  1  0  0  0
 25 24  1  0  0  0
 24 23  1  0  0  0
 23  1  1  0  0  0
  1  2  1  0  0  0
  2  3  1  0  0  0
  3  4  2  0  0  0
  3  5  1  0  0  0
  5  6  1  0  0  0
  6  7  1  0  0  0
  7  8  1  0  0  0
  8  9  1  0  0  0
  9 10  1  0  0  0
 10 11  2  0  0  0
 10 12  1  0  0  0
 12 34  1  0  0  0
 34 35  1  0  0  0
 35 36  2  0  0  0
 36 37  1  0  0  0
 37 38  2  0  0  0
 38 39  1  0  0  0
 39 40  2  0  0  0
 12 13  1  0  0  0
 13 14  1  0  0  0
 14 15  2  0  0  0
 14 16  1  0  0  0
 16 17  1  0  0  0
 17 18  1  0  0  0
 18 19  2  0  0  0
 18  1  1  0  0  0
  9  5  1  0  0  0
 40 35  1  0  0  0
 28 31  1  0  0  0
 28 32  1  0  0  0
 30 33  1  0  0  0
 26 27  1  0  0  0
  2 20  1  0  0  0
 13 21  1  0  0  0
 17 22  1  0  0  0
M  END
> <minimizedAffinity>
-6.07814

> <CNNscore>
0.4426112473

> <CNNaffinity>
5.8422384262

> <CNN_VS>
2.5858404636

> <CNNaffinity_variance>
0.4750091434

$$$$
[H]N=C(N([H])[H])N([H])C([H])([H])C([H])([H])C([H])([H])[C@@]1([H])C(=O)N([H])C([H])([H])C(=O)N([H])[C@]([H])(C([H])([H])c2c([H])c([H])c([H])c([H])c2[H])C(=O)N2C([H])([H])C([H])([H])C([H])([H])[C@@]2([H])C(=O)N1[H]


 40 42  0  0  0  0  0  0  0  0999 V2000
   36.0820   15.9664   -8.4121 C   0  0  0  0  0  0  0  0  0  0  0  0
   36.2322   15.4078   -7.0651 N   0  0  0  0  0  0  0  0  0  0  0  0
   37.4823   15.2333   -6.4229 C   0  0  0  0  0  0  0  0  0  0  0  0
   37.5936   15.6189   -5.2330 O   0  0  0  0  0  0  0  0  0  0  0  0
   38.6878   14.6226   -7.0515 C   0  0  0  0  0  0  0  0  0  0  0  0
   38.7376   13.1901   -6.5177 C   0  0  0  0  0  0  0  0  0  0  0  0
   39.2797   13.4302   -5.1285 C   0  0  0  0  0  0  0  0  0  0  0  0
   40.1180   14.6511   -5.2353 C   0  0  0  0  0  0  0  0  0  0  0  0
   39.9090   15.2204   -6.5794 N   0  0  0  0  0  0  0  0  0  0  0  0
   40.7192   16.1476   -7.2418 C   0  0  0  0  0  0  0  0  0  0  0  0
   41.3149   17.0216   -6.5018 O   0  0  0  0  0  0  0  0  0  0  0  0
   40.9818   16.2547   -8.6895 C   0  0  0  0  0  0  0  0  0  0  0  0
   39.8453   16.2025   -9.5438 N   0  0  0  0  0  0  0  0  0  0  0  0
   38.8842   17.2045   -9.7604 C   0  0  0  0  0  0  0  0  0  0  0  0
   38.4020   17.3005  -10.9418 O   0  0  0  0  0  0  0  0  0  0  0  0
   38.3766   18.1542   -8.7641 C   0  0  0  0  0  0  0  0  0  0  0  0
   36.9435   18.3521   -8.8517 N   0  0  0  0  0  0  0  0  0  0  0  0
   35.9740   17.4495   -8.3434 C   0  0  0  0  0  0  0  0  0  0  0  0
   34.9237   17.8742   -7.7821 O   0  0  0  0  0  0  0  0  0  0  0  0
   35.3542   15.1153   -6.5355 H   0  0  0  0  0  0  0  0  0  0  0  0
   39.7008   15.3014  -10.0873 H   0  0  0  0  0  0  0  0  0  0  0  0
   36.5950   19.2168   -9.3202 H   0  0  0  0  0  0  0  0  0  0  0  0
   34.7502   15.4724   -8.9605 C   0  0  0  0  0  0  0  0  0  0  0  0
   34.5561   15.8060  -10.3981 C   0  0  0  0  0  0  0  0  0  0  0  0
   35.4838   14.9393  -11.2152 C   0  0  0  0  0  0  0  0  0  0  0  0
   34.8073   14.0215  -12.0860 N   0  0  0  0  0  0  0  0  0  0  0  0
   35.2316   13.0521  -12.1878 H   0  0  0  0  0  0  0  0  0  0  0  0
   32.3175   14.3342  -12.2579 N   0  0  0  0  0  0  0  0  0  0  0  0
   33.6281   14.3403  -12.8049 C   0  0  0  0  0  0  0  0  0  0  0  0
   33.7395   14.6611  -14.0475 N   0  0  0  0  0  0  0  0  0  0  0  0
   31.6605   13.5145  -12.4087 H   0  0  0  0  0  0  0  0  0  0  0  0
   31.9422   15.1195  -11.6914 H   0  0  0  0  0  0  0  0  0  0  0  0
   32.9315   14.9112  -14.6587 H   0  0  0  0  0  0  0  0  0  0  0  0
   42.0060   15.2048   -9.0976 C   0  0  0  0  0  0  0  0  0  0  0  0
   43.0588   15.7517   -9.9842 C   0  0  0  0  0  0  0  0  0  0  0  0
   44.0333   16.5708   -9.4646 C   0  0  0  0  0  0  0  0  0  0  0  0
   45.0182   17.0846  -10.3112 C   0  0  0  0  0  0  0  0  0  0  0  0
   45.0540   16.8014  -11.6581 C   0  0  0  0  0  0  0  0  0  0  0  0
   44.0706   15.9776  -12.1692 C   0  0  0  0  0  0  0  0  0  0  0  0
   43.0872   15.4617  -11.3378 C   0  0  0  0  0  0  0  0  0  0  0  0
 28 29  1  0  0  0
 29 30  2  0  0  0
 29 26  1  0  0  0
 26 25  1  0  0  0
 25 24  1  0  0  0
 24 23  1  0  0  0
 23  1  1  0  0  0
  1  2  1  0  0  0
  2  3  1  0  0  0
  3  4  2  0  0  0
  3  5  1  0  0  0
  5  6  1  0  0  0
  6  7  1  0  0  0
  7  8  1  0  0  0
  8  9  1  0  0  0
  9 10  1  0  0  0
 10 11  2  0  0  0
 10 12  1  0  0  0
 12 34  1  0  0  0
 34 35  1  0  0  0
 35 36  2  0  0  0
 36 37  1  0  0  0
 37 38  2  0  0  0
 38 39  1  0  0  0
 39 40  2  0  0  0
 12 13  1  0  0  0
 13 14  1  0  0  0
 14 15  2  0  0  0
 14 16  1  0  0  0
 16 17  1  0  0  0
 17 18  1  0  0  0
 18 19  2  0  0  0
 18  1  1  0  0  0
  9  5  1  0  0  0
 40 35  1  0  0  0
 28 31  1  0  0  0
 28 32  1  0  0  0
 30 33  1  0  0  0
 26 27  1  0  0  0
  2 20  1  0  0  0
 13 21  1  0  0  0
 17 22  1  0  0  0
M  END
> <minimizedAffinity>
-6.40580

> <CNNscore>
0.3055842519

> <CNNaffinity>
5.4588656425

> <CNN_VS>
1.6681433916

> <CNNaffinity_variance>
0.2947044373

$$$$
[H]N=C(N([H])[H])N([H])C([H])([H])C([H])([H])C([H])([H])[C@@]1([H])C(=O)N([H])C([H])([H])C(=O)N([H])[C@]([H])(C([H])([H])c2c([H])c([H])c([H])c([H])c2[H])C(=O)N2C([H])([H])C([H])([H])C([H])([H])[C@@]2([H])C(=O)N1[H]


 40 42  0  0  0  0  0  0  0  0999 V2000
   36.4162   15.6069   -7.6601 C   0  0  0  0  0  0  0  0  0  0  0  0
   36.9198   14.9198   -6.4670 N   0  0  0  0  0  0  0  0  0  0  0  0
   38.2965   14.7626   -6.1744 C   0  0  0  0  0  0  0  0  0  0  0  0
   38.6865   15.0262   -5.0103 O   0  0  0  0  0  0  0  0  0  0  0  0
   39.3295   14.3046   -7.1463 C   0  0  0  0  0  0  0  0  0  0  0  0
   39.5667   12.8300   -6.8160 C   0  0  0  0  0  0  0  0  0  0  0  0
   40.4289   12.9572   -5.5823 C   0  0  0  0  0  0  0  0  0  0  0  0
   41.1659   14.2362   -5.7435 C   0  0  0  0  0  0  0  0  0  0  0  0
   40.6057   14.9296   -6.9181 N   0  0  0  0  0  0  0  0  0  0  0  0
   41.1881   15.9743   -7.6422 C   0  0  0  0  0  0  0  0  0  0  0  0
   41.9154   16.8028   -6.9708 O   0  0  0  0  0  0  0  0  0  0  0  0
   41.0764   16.2519   -9.0868 C   0  0  0  0  0  0  0  0  0  0  0  0
   39.7653   16.2144   -9.6383 N   0  0  0  0  0  0  0  0  0  0  0  0
   38.7424   17.1669   -9.4927 C   0  0  0  0  0  0  0  0  0  0  0  0
   37.9771   17.3551  -10.5007 O   0  0  0  0  0  0  0  0  0  0  0  0
   38.4633   17.9691   -8.2965 C   0  0  0  0  0  0  0  0  0  0  0  0
   37.0473   18.0784   -8.0079 N   0  0  0  0  0  0  0  0  0  0  0  0
   36.2713   17.0637   -7.3904 C   0  0  0  0  0  0  0  0  0  0  0  0
   35.3788   17.3548   -6.5433 O   0  0  0  0  0  0  0  0  0  0  0  0
   36.2140   14.5144   -5.7783 H   0  0  0  0  0  0  0  0  0  0  0  0
   39.5248   15.3685  -10.2339 H   0  0  0  0  0  0  0  0  0  0  0  0
   36.5594   18.9625   -8.2705 H   0  0  0  0  0  0  0  0  0  0  0  0
   35.0099   15.0855   -7.9223 C   0  0  0  0  0  0  0  0  0  0  0  0
   34.4483   15.5595   -9.2167 C   0  0  0  0  0  0  0  0  0  0  0  0
   33.0221   15.9964   -8.9831 C   0  0  0  0  0  0  0  0  0  0  0  0
   32.0514   15.2288   -9.7088 N   0  0  0  0  0  0  0  0  0  0  0  0
   32.2712   15.0120  -10.7261 H   0  0  0  0  0  0  0  0  0  0  0  0
   30.5776   13.4103   -8.7883 N   0  0  0  0  0  0  0  0  0  0  0  0
   30.8375   14.7595   -9.1474 C   0  0  0  0  0  0  0  0  0  0  0  0
   29.8917   15.6097   -8.9426 N   0  0  0  0  0  0  0  0  0  0  0  0
   30.0200   12.7680   -9.4230 H   0  0  0  0  0  0  0  0  0  0  0  0
   30.9151   12.9910   -7.9001 H   0  0  0  0  0  0  0  0  0  0  0  0
   28.9639   15.3611   -8.5346 H   0  0  0  0  0  0  0  0  0  0  0  0
   42.0061   15.3227   -9.8547 C   0  0  0  0  0  0  0  0  0  0  0  0
   43.0383   16.0573  -10.6217 C   0  0  0  0  0  0  0  0  0  0  0  0
   44.1542   16.5396   -9.9792 C   0  0  0  0  0  0  0  0  0  0  0  0
   45.1185   17.2351  -10.7119 C   0  0  0  0  0  0  0  0  0  0  0  0
   44.9967   17.4597  -12.0648 C   0  0  0  0  0  0  0  0  0  0  0  0
   43.8722   16.9709  -12.6999 C   0  0  0  0  0  0  0  0  0  0  0  0
   42.9077   16.2787  -11.9823 C   0  0  0  0  0  0  0  0  0  0  0  0
 28 29  1  0  0  0
 29 30  2  0  0  0
 29 26  1  0  0  0
 26 25  1  0  0  0
 25 24  1  0  0  0
 24 23  1  0  0  0
 23  1  1  0  0  0
  1  2  1  0  0  0
  2  3  1  0  0  0
  3  4  2  0  0  0
  3  5  1  0  0  0
  5  6  1  0  0  0
  6  7  1  0  0  0
  7  8  1  0  0  0
  8  9  1  0  0  0
  9 10  1  0  0  0
 10 11  2  0  0  0
 10 12  1  0  0  0
 12 34  1  0  0  0
 34 35  1  0  0  0
 35 36  2  0  0  0
 36 37  1  0  0  0
 37 38  2  0  0  0
 38 39  1  0  0  0
 39 40  2  0  0  0
 12 13  1  0  0  0
 13 14  1  0  0  0
 14 15  2  0  0  0
 14 16  1  0  0  0
 16 17  1  0  0  0
 17 18  1  0  0  0
 18 19  2  0  0  0
 18  1  1  0  0  0
  9  5  1  0  0  0
 40 35  1  0  0  0
 28 31  1  0  0  0
 28 32  1  0  0  0
 30 33  1  0  0  0
 26 27  1  0  0  0
  2 20  1  0  0  0
 13 21  1  0  0  0
 17 22  1  0  0  0
M  END
> <minimizedAffinity>
-6.09094

> <CNNscore>
0.2995820343

> <CNNaffinity>
5.1365814209

> <CNN_VS>
1.5388275385

> <CNNaffinity_variance>
0.2536902726

$$$$
[H]N=C(N([H])[H])N([H])C([H])([H])C([H])([H])C([H])([H])[C@@]1([H])C(=O)N([H])C([H])([H])C(=O)N([H])[C@]([H])(C([H])([H])c2c([H])c([H])c([H])c([H])c2[H])C(=O)N2C([H])([H])C([H])([H])C([H])([H])[C@@]2([H])C(=O)N1[H]


 40 42  0  0  0  0  0  0  0  0999 V2000
   39.5741   16.0350   -6.7880 C   0  0  0  0  0  0  0  0  0  0  0  0
   39.5489   17.4951   -6.6591 N   0  0  0  0  0  0  0  0  0  0  0  0
   38.3766   18.2757   -6.8060 C   0  0  0  0  0  0  0  0  0  0  0  0
   38.1422   19.1572   -5.9429 O   0  0  0  0  0  0  0  0  0  0  0  0
   37.3892   18.1342   -7.9134 C   0  0  0  0  0  0  0  0  0  0  0  0
   37.7092   19.2711   -8.8853 C   0  0  0  0  0  0  0  0  0  0  0  0
   37.0939   20.4417   -8.1554 C   0  0  0  0  0  0  0  0  0  0  0  0
   35.9647   19.8740   -7.3760 C   0  0  0  0  0  0  0  0  0  0  0  0
   36.0437   18.4053   -7.4802 N   0  0  0  0  0  0  0  0  0  0  0  0
   35.0309   17.4812   -7.2058 C   0  0  0  0  0  0  0  0  0  0  0  0
   34.2097   17.7931   -6.2599 O   0  0  0  0  0  0  0  0  0  0  0  0
   34.7797   16.1854   -7.8648 C   0  0  0  0  0  0  0  0  0  0  0  0
   35.9071   15.3350   -8.0378 N   0  0  0  0  0  0  0  0  0  0  0  0
   36.5730   14.5780   -7.0589 C   0  0  0  0  0  0  0  0  0  0  0  0
   37.0371   13.4417   -7.4204 O   0  0  0  0  0  0  0  0  0  0  0  0
   36.7901   14.9619   -5.6597 C   0  0  0  0  0  0  0  0  0  0  0  0
   38.1211   14.6389   -5.1858 N   0  0  0  0  0  0  0  0  0  0  0  0
   39.2841   15.3989   -5.4738 C   0  0  0  0  0  0  0  0  0  0  0  0
   40.1725   15.5837   -4.5933 O   0  0  0  0  0  0  0  0  0  0  0  0
   40.4618   18.0018   -6.4427 H   0  0  0  0  0  0  0  0  0  0  0  0
   36.2964   15.2571   -9.0231 H   0  0  0  0  0  0  0  0  0  0  0  0
   38.2380   13.7896   -4.5912 H   0  0  0  0  0  0  0  0  0  0  0  0
   41.0003   15.6369   -7.1426 C   0  0  0  0  0  0  0  0  0  0  0  0
   41.0823   14.8230   -8.3862 C   0  0  0  0  0  0  0  0  0  0  0  0
   41.9754   15.5443   -9.3668 C   0  0  0  0  0  0  0  0  0  0  0  0
   41.5333   15.4592  -10.7290 N   0  0  0  0  0  0  0  0  0  0  0  0
   41.9360   14.6712  -11.3180 H   0  0  0  0  0  0  0  0  0  0  0  0
   39.7286   17.2057  -10.5900 N   0  0  0  0  0  0  0  0  0  0  0  0
   40.6084   16.3591  -11.3153 C   0  0  0  0  0  0  0  0  0  0  0  0
   40.5514   16.4234  -12.6006 N   0  0  0  0  0  0  0  0  0  0  0  0
   38.7102   16.9464  -10.4422 H   0  0  0  0  0  0  0  0  0  0  0  0
   40.0332   18.1073  -10.1742 H   0  0  0  0  0  0  0  0  0  0  0  0
   39.9046   17.0534  -13.1237 H   0  0  0  0  0  0  0  0  0  0  0  0
   34.0787   16.4214   -9.1954 C   0  0  0  0  0  0  0  0  0  0  0  0
   34.8739   15.9433  -10.3498 C   0  0  0  0  0  0  0  0  0  0  0  0
   34.4413   14.8593  -11.0767 C   0  0  0  0  0  0  0  0  0  0  0  0
   35.2019   14.4145  -12.1602 C   0  0  0  0  0  0  0  0  0  0  0  0
   36.3789   15.0230  -12.5345 C   0  0  0  0  0  0  0  0  0  0  0  0
   36.8040   16.1108  -11.7976 C   0  0  0  0  0  0  0  0  0  0  0  0
   36.0566   16.5614  -10.7193 C   0  0  0  0  0  0  0  0  0  0  0  0
 28 29  1  0  0  0
 29 30  2  0  0  0
 29 26  1  0  0  0
 26 25  1  0  0  0
 25 24  1  0  0  0
 24 23  1  0  0  0
 23  1  1  0  0  0
  1  2  1  0  0  0
  2  3  1  0  0  0
  3  4  2  0  0  0
  3  5  1  0  0  0
  5  6  1  0  0  0
  6  7  1  0  0  0
  7  8  1  0  0  0
  8  9  1  0  0  0
  9 10  1  0  0  0
 10 11  2  0  0  0
 10 12  1  0  0  0
 12 34  1  0  0  0
 34 35  1  0  0  0
 35 36  2  0  0  0
 36 37  1  0  0  0
 37 38  2  0  0  0
 38 39  1  0  0  0
 39 40  2  0  0  0
 12 13  1  0  0  0
 13 14  1  0  0  0
 14 15  2  0  0  0
 14 16  1  0  0  0
 16 17  1  0  0  0
 17 18  1  0  0  0
 18 19  2  0  0  0
 18  1  1  0  0  0
  9  5  1  0  0  0
 40 35  1  0  0  0
 28 31  1  0  0  0
 28 32  1  0  0  0
 30 33  1  0  0  0
 26 27  1  0  0  0
  2 20  1  0  0  0
 13 21  1  0  0  0
 17 22  1  0  0  0
M  END
> <minimizedAffinity>
-6.07403

> <CNNscore>
0.2946860492

> <CNNaffinity>
5.3388757706

> <CNN_VS>
1.5732922554

> <CNNaffinity_variance>
0.5829419494

$$$$
[H]N=C(N([H])[H])N([H])C([H])([H])C([H])([H])C([H])([H])[C@@]1([H])C(=O)N([H])C([H])([H])C(=O)N([H])[C@]([H])(C([H])([H])c2c([H])c([H])c([H])c([H])c2[H])C(=O)N2C([H])([H])C([H])([H])C([H])([H])[C@@]2([H])C(=O)N1[H]


 40 42  0  0  0  0  0  0  0  0999 V2000
   35.6516   16.2239   -8.0801 C   0  0  0  0  0  0  0  0  0  0  0  0
   35.0075   16.0409   -6.7760 N   0  0  0  0  0  0  0  0  0  0  0  0
   35.6698   15.5132   -5.6409 C   0  0  0  0  0  0  0  0  0  0  0  0
   35.5352   16.1139   -4.5465 O   0  0  0  0  0  0  0  0  0  0  0  0
   36.5216   14.2901   -5.6408 C   0  0  0  0  0  0  0  0  0  0  0  0
   35.6374   13.1844   -5.0619 C   0  0  0  0  0  0  0  0  0  0  0  0
   35.6950   13.5243   -3.5913 C   0  0  0  0  0  0  0  0  0  0  0  0
   37.0151   14.1721   -3.3852 C   0  0  0  0  0  0  0  0  0  0  0  0
   37.6175   14.3909   -4.7132 N   0  0  0  0  0  0  0  0  0  0  0  0
   38.9608   14.6503   -5.0014 C   0  0  0  0  0  0  0  0  0  0  0  0
   39.6145   15.3352   -4.1240 O   0  0  0  0  0  0  0  0  0  0  0  0
   39.7318   14.2376   -6.1895 C   0  0  0  0  0  0  0  0  0  0  0  0
   39.1168   14.4643   -7.4524 N   0  0  0  0  0  0  0  0  0  0  0  0
   38.9552   15.6879   -8.1242 C   0  0  0  0  0  0  0  0  0  0  0  0
   39.0436   15.6653   -9.4004 O   0  0  0  0  0  0  0  0  0  0  0  0
   38.6938   16.9926   -7.5063 C   0  0  0  0  0  0  0  0  0  0  0  0
   37.7048   17.7700   -8.2260 N   0  0  0  0  0  0  0  0  0  0  0  0
   36.3037   17.5604   -8.1473 C   0  0  0  0  0  0  0  0  0  0  0  0
   35.5017   18.5377   -8.1294 O   0  0  0  0  0  0  0  0  0  0  0  0
   33.9836   16.3195   -6.6714 H   0  0  0  0  0  0  0  0  0  0  0  0
   38.7331   13.6101   -7.9538 H   0  0  0  0  0  0  0  0  0  0  0  0
   38.0408   18.5384   -8.8466 H   0  0  0  0  0  0  0  0  0  0  0  0
   34.5492   16.2403   -9.1304 C   0  0  0  0  0  0  0  0  0  0  0  0
   33.2515   15.7235   -8.6161 C   0  0  0  0  0  0  0  0  0  0  0  0
   32.1775   16.0508   -9.6255 C   0  0  0  0  0  0  0  0  0  0  0  0
   31.5222   14.8980  -10.1733 N   0  0  0  0  0  0  0  0  0  0  0  0
   31.0136   14.2625   -9.4895 H   0  0  0  0  0  0  0  0  0  0  0  0
   32.6809   14.5345  -12.3760 N   0  0  0  0  0  0  0  0  0  0  0  0
   31.5245   14.5708  -11.5524 C   0  0  0  0  0  0  0  0  0  0  0  0
   30.4007   14.2831  -12.1126 N   0  0  0  0  0  0  0  0  0  0  0  0
   32.9264   15.3428  -13.0183 H   0  0  0  0  0  0  0  0  0  0  0  0
   33.3343   13.7274  -12.3907 H   0  0  0  0  0  0  0  0  0  0  0  0
   30.3006   14.0302  -13.1201 H   0  0  0  0  0  0  0  0  0  0  0  0
   40.1386   12.7775   -6.0474 C   0  0  0  0  0  0  0  0  0  0  0  0
   41.5214   12.6190   -5.5411 C   0  0  0  0  0  0  0  0  0  0  0  0
   42.3884   13.6856   -5.5736 C   0  0  0  0  0  0  0  0  0  0  0  0
   43.6914   13.5230   -5.0979 C   0  0  0  0  0  0  0  0  0  0  0  0
   44.1479   12.3265   -4.5923 C   0  0  0  0  0  0  0  0  0  0  0  0
   43.2688   11.2620   -4.5642 C   0  0  0  0  0  0  0  0  0  0  0  0
   41.9722   11.4119   -5.0341 C   0  0  0  0  0  0  0  0  0  0  0  0
 28 29  1  0  0  0
 29 30  2  0  0  0
 29 26  1  0  0  0
 26 25  1  0  0  0
 25 24  1  0  0  0
 24 23  1  0  0  0
 23  1  1  0  0  0
  1  2  1  0  0  0
  2  3  1  0  0  0
  3  4  2  0  0  0
  3  5  1  0  0  0
  5  6  1  0  0  0
  6  7  1  0  0  0
  7  8  1  0  0  0
  8  9  1  0  0  0
  9 10  1  0  0  0
 10 11  2  0  0  0
 10 12  1  0  0  0
 12 34  1  0  0  0
 34 35  1  0  0  0
 35 36  2  0  0  0
 36 37  1  0  0  0
 37 38  2  0  0  0
 38 39  1  0  0  0
 39 40  2  0  0  0
 12 13  1  0  0  0
 13 14  1  0  0  0
 14 15  2  0  0  0
 14 16  1  0  0  0
 16 17  1  0  0  0
 17 18  1  0  0  0
 18 19  2  0  0  0
 18  1  1  0  0  0
  9  5  1  0  0  0
 40 35  1  0  0  0
 28 31  1  0  0  0
 28 32  1  0  0  0
 30 33  1  0  0  0
 26 27  1  0  0  0
  2 20  1  0  0  0
 13 21  1  0  0  0
 17 22  1  0  0  0
M  END
> <minimizedAffinity>
-6.88884

> <CNNscore>
0.2847403586

> <CNNaffinity>
4.8907046318

> <CNN_VS>
1.3925809860

> <CNNaffinity_variance>
0.3728397787

$$$$
[H]N=C(N([H])[H])N([H])C([H])([H])C([H])([H])C([H])([H])[C@@]1([H])C(=O)N([H])C([H])([H])C(=O)N([H])[C@]([H])(C([H])([H])c2c([H])c([H])c([H])c([H])c2[H])C(=O)N2C([H])([H])C([H])([H])C([H])([H])[C@@]2([H])C(=O)N1[H]


 40 42  0  0  0  0  0  0  0  0999 V2000
   39.6588   15.5337   -7.1863 C   0  0  0  0  0  0  0  0  0  0  0  0
   39.8035   16.9923   -7.2106 N   0  0  0  0  0  0  0  0  0  0  0  0
   38.7078   17.8893   -7.2326 C   0  0  0  0  0  0  0  0  0  0  0  0
   38.7261   18.8633   -6.4403 O   0  0  0  0  0  0  0  0  0  0  0  0
   37.5235   17.7692   -8.1295 C   0  0  0  0  0  0  0  0  0  0  0  0
   37.7698   18.7727   -9.2573 C   0  0  0  0  0  0  0  0  0  0  0  0
   37.4198   20.0659   -8.5596 C   0  0  0  0  0  0  0  0  0  0  0  0
   36.4034   19.7038   -7.5394 C   0  0  0  0  0  0  0  0  0  0  0  0
   36.3152   18.2324   -7.4995 N   0  0  0  0  0  0  0  0  0  0  0  0
   35.2838   17.4604   -6.9562 C   0  0  0  0  0  0  0  0  0  0  0  0
   34.6869   17.9468   -5.9201 O   0  0  0  0  0  0  0  0  0  0  0  0
   34.7872   16.1509   -7.4201 C   0  0  0  0  0  0  0  0  0  0  0  0
   35.7728   15.1626   -7.6960 N   0  0  0  0  0  0  0  0  0  0  0  0
   36.5295   14.4201   -6.7735 C   0  0  0  0  0  0  0  0  0  0  0  0
   36.8033   13.2104   -7.0878 O   0  0  0  0  0  0  0  0  0  0  0  0
   37.0388   14.8953   -5.4823 C   0  0  0  0  0  0  0  0  0  0  0  0
   38.3956   14.4609   -5.2163 N   0  0  0  0  0  0  0  0  0  0  0  0
   39.5551   15.0517   -5.7817 C   0  0  0  0  0  0  0  0  0  0  0  0
   40.6050   15.2066   -5.0943 O   0  0  0  0  0  0  0  0  0  0  0  0
   40.7864   17.4054   -7.2116 H   0  0  0  0  0  0  0  0  0  0  0  0
   35.9634   14.9549   -8.7201 H   0  0  0  0  0  0  0  0  0  0  0  0
   38.5353   13.6582   -4.5646 H   0  0  0  0  0  0  0  0  0  0  0  0
   40.9480   14.9423   -7.7400 C   0  0  0  0  0  0  0  0  0  0  0  0
   41.8420   15.9668   -8.3456 C   0  0  0  0  0  0  0  0  0  0  0  0
   43.0751   16.0893   -7.4830 C   0  0  0  0  0  0  0  0  0  0  0  0
   43.3886   17.4367   -7.1028 N   0  0  0  0  0  0  0  0  0  0  0  0
   43.8862   18.0377   -7.8248 H   0  0  0  0  0  0  0  0  0  0  0  0
   44.0297   18.3034   -4.8303 N   0  0  0  0  0  0  0  0  0  0  0  0
   43.0770   17.9913   -5.8363 C   0  0  0  0  0  0  0  0  0  0  0  0
   41.8416   18.2352   -5.5647 N   0  0  0  0  0  0  0  0  0  0  0  0
   44.2012   17.6507   -4.0113 H   0  0  0  0  0  0  0  0  0  0  0  0
   44.5977   19.1727   -4.8457 H   0  0  0  0  0  0  0  0  0  0  0  0
   41.5136   18.6419   -4.6614 H   0  0  0  0  0  0  0  0  0  0  0  0
   33.8793   16.3516   -8.6255 C   0  0  0  0  0  0  0  0  0  0  0  0
   32.6173   15.5835   -8.5212 C   0  0  0  0  0  0  0  0  0  0  0  0
   32.3576   14.8445   -7.3912 C   0  0  0  0  0  0  0  0  0  0  0  0
   31.1664   14.1203   -7.3061 C   0  0  0  0  0  0  0  0  0  0  0  0
   30.2319   14.1161   -8.3172 C   0  0  0  0  0  0  0  0  0  0  0  0
   30.5029   14.8619   -9.4474 C   0  0  0  0  0  0  0  0  0  0  0  0
   31.6828   15.5850   -9.5430 C   0  0  0  0  0  0  0  0  0  0  0  0
 28 29  1  0  0  0
 29 30  2  0  0  0
 29 26  1  0  0  0
 26 25  1  0  0  0
 25 24  1  0  0  0
 24 23  1  0  0  0
 23  1  1  0  0  0
  1  2  1  0  0  0
  2  3  1  0  0  0
  3  4  2  0  0  0
  3  5  1  0  0  0
  5  6  1  0  0  0
  6  7  1  0  0  0
  7  8  1  0  0  0
  8  9  1  0  0  0
  9 10  1  0  0  0
 10 11  2  0  0  0
 10 12  1  0  0  0
 12 34  1  0  0  0
 34 35  1  0  0  0
 35 36  2  0  0  0
 36 37  1  0  0  0
 37 38  2  0  0  0
 38 39  1  0  0  0
 39 40  2  0  0  0
 12 13  1  0  0  0
 13 14  1  0  0  0
 14 15  2  0  0  0
 14 16  1  0  0  0
 16 17  1  0  0  0
 17 18  1  0  0  0
 18 19  2  0  0  0
 18  1  1  0  0  0
  9  5  1  0  0  0
 40 35  1  0  0  0
 28 31  1  0  0  0
 28 32  1  0  0  0
 30 33  1  0  0  0
 26 27  1  0  0  0
  2 20  1  0  0  0
 13 21  1  0  0  0
 17 22  1  0  0  0
M  END
> <minimizedAffinity>
-5.65319

> <CNNscore>
0.2692706585

> <CNNaffinity>
4.9065494537

> <CNN_VS>
1.3211897612

> <CNNaffinity_variance>
0.5037781000

$$$$
[H]N=C(N([H])[H])N([H])C([H])([H])C([H])([H])C([H])([H])[C@@]1([H])C(=O)N([H])C([H])([H])C(=O)N([H])[C@]([H])(C([H])([H])c2c([H])c([H])c([H])c([H])c2[H])C(=O)N2C([H])([H])C([H])([H])C([H])([H])[C@@]2([H])C(=O)N1[H]


 40 42  0  0  0  0  0  0  0  0999 V2000
   37.9399   16.1523  -10.3784 C   0  0  0  0  0  0  0  0  0  0  0  0
   37.4945   17.5485  -10.3446 N   0  0  0  0  0  0  0  0  0  0  0  0
   37.5299   18.3556   -9.1815 C   0  0  0  0  0  0  0  0  0  0  0  0
   38.0030   19.5146   -9.2813 O   0  0  0  0  0  0  0  0  0  0  0  0
   37.0459   17.9362   -7.8357 C   0  0  0  0  0  0  0  0  0  0  0  0
   35.6703   18.5872   -7.6823 C   0  0  0  0  0  0  0  0  0  0  0  0
   36.0697   20.0095   -7.3677 C   0  0  0  0  0  0  0  0  0  0  0  0
   37.3820   19.9102   -6.6799 C   0  0  0  0  0  0  0  0  0  0  0  0
   37.8302   18.5085   -6.7732 N   0  0  0  0  0  0  0  0  0  0  0  0
   38.8123   17.8803   -6.0013 C   0  0  0  0  0  0  0  0  0  0  0  0
   39.8039   18.6158   -5.6242 O   0  0  0  0  0  0  0  0  0  0  0  0
   38.8597   16.4735   -5.5598 C   0  0  0  0  0  0  0  0  0  0  0  0
   38.6015   15.4896   -6.5545 N   0  0  0  0  0  0  0  0  0  0  0  0
   39.4505   15.0723   -7.5937 C   0  0  0  0  0  0  0  0  0  0  0  0
   39.4048   13.8356   -7.9190 O   0  0  0  0  0  0  0  0  0  0  0  0
   40.3865   15.9157   -8.3453 C   0  0  0  0  0  0  0  0  0  0  0  0
   40.3857   15.6318   -9.7665 N   0  0  0  0  0  0  0  0  0  0  0  0
   39.3967   16.0855  -10.6770 C   0  0  0  0  0  0  0  0  0  0  0  0
   39.7132   16.4731  -11.8382 O   0  0  0  0  0  0  0  0  0  0  0  0
   37.1226   17.9850  -11.2436 H   0  0  0  0  0  0  0  0  0  0  0  0
   37.6560   15.0076   -6.5115 H   0  0  0  0  0  0  0  0  0  0  0  0
   41.1642   15.0541  -10.1523 H   0  0  0  0  0  0  0  0  0  0  0  0
   37.2386   15.4823  -11.5521 C   0  0  0  0  0  0  0  0  0  0  0  0
   36.0199   16.2143  -11.9932 C   0  0  0  0  0  0  0  0  0  0  0  0
   34.8088   15.4456  -11.5220 C   0  0  0  0  0  0  0  0  0  0  0  0
   33.8894   15.1074  -12.5702 N   0  0  0  0  0  0  0  0  0  0  0  0
   33.1926   15.8560  -12.8601 H   0  0  0  0  0  0  0  0  0  0  0  0
   33.0559   13.5319  -14.3449 N   0  0  0  0  0  0  0  0  0  0  0  0
   33.8638   13.8483  -13.2206 C   0  0  0  0  0  0  0  0  0  0  0  0
   34.6252   12.9129  -12.7683 N   0  0  0  0  0  0  0  0  0  0  0  0
   32.1436   13.0006  -14.2367 H   0  0  0  0  0  0  0  0  0  0  0  0
   33.3134   13.8006  -15.3145 H   0  0  0  0  0  0  0  0  0  0  0  0
   34.6763   11.9547  -13.1785 H   0  0  0  0  0  0  0  0  0  0  0  0
   37.9315   16.2851   -4.3679 C   0  0  0  0  0  0  0  0  0  0  0  0
   36.7268   15.4924   -4.7049 C   0  0  0  0  0  0  0  0  0  0  0  0
   36.7696   14.1198   -4.6362 C   0  0  0  0  0  0  0  0  0  0  0  0
   35.6288   13.3825   -4.9610 C   0  0  0  0  0  0  0  0  0  0  0  0
   34.4510   13.9796   -5.3509 C   0  0  0  0  0  0  0  0  0  0  0  0
   34.4191   15.3586   -5.4163 C   0  0  0  0  0  0  0  0  0  0  0  0
   35.5462   16.1012   -5.0961 C   0  0  0  0  0  0  0  0  0  0  0  0
 28 29  1  0  0  0
 29 30  2  0  0  0
 29 26  1  0  0  0
 26 25  1  0  0  0
 25 24  1  0  0  0
 24 23  1  0  0  0
 23  1  1  0  0  0
  1  2  1  0  0  0
  2  3  1  0  0  0
  3  4  2  0  0  0
  3  5  1  0  0  0
  5  6  1  0  0  0
  6  7  1  0  0  0
  7  8  1  0  0  0
  8  9  1  0  0  0
  9 10  1  0  0  0
 10 11  2  0  0  0
 10 12  1  0  0  0
 12 34  1  0  0  0
 34 35  1  0  0  0
 35 36  2  0  0  0
 36 37  1  0  0  0
 37 38  2  0  0  0
 38 39  1  0  0  0
 39 40  2  0  0  0
 12 13  1  0  0  0
 13 14  1  0  0  0
 14 15  2  0  0  0
 14 16  1  0  0  0
 16 17  1  0  0  0
 17 18  1  0  0  0
 18 19  2  0  0  0
 18  1  1  0  0  0
  9  5  1  0  0  0
 40 35  1  0  0  0
 28 31  1  0  0  0
 28 32  1  0  0  0
 30 33  1  0  0  0
 26 27  1  0  0  0
  2 20  1  0  0  0
 13 21  1  0  0  0
 17 22  1  0  0  0
M  END
> <minimizedAffinity>
-7.52800

> <CNNscore>
0.2510317266

> <CNNaffinity>
5.3386917114

> <CNN_VS>
1.3401809931

> <CNNaffinity_variance>
0.4577575624

$$$$
[H]N=C(N([H])[H])N([H])C([H])([H])C([H])([H])C([H])([H])[C@@]1([H])C(=O)N([H])C([H])([H])C(=O)N([H])[C@]([H])(C([H])([H])c2c([H])c([H])c([H])c([H])c2[H])C(=O)N2C([H])([H])C([H])([H])C([H])([H])[C@@]2([H])C(=O)N1[H]


 40 42  0  0  0  0  0  0  0  0999 V2000
   39.6823   16.6808   -6.2981 C   0  0  0  0  0  0  0  0  0  0  0  0
   39.4684   18.1291   -6.2212 N   0  0  0  0  0  0  0  0  0  0  0  0
   38.2249   18.7536   -6.4836 C   0  0  0  0  0  0  0  0  0  0  0  0
   37.8161   19.6197   -5.6714 O   0  0  0  0  0  0  0  0  0  0  0  0
   37.3540   18.4632   -7.6578 C   0  0  0  0  0  0  0  0  0  0  0  0
   37.6092   19.6073   -8.6405 C   0  0  0  0  0  0  0  0  0  0  0  0
   36.7989   20.7093   -8.0000 C   0  0  0  0  0  0  0  0  0  0  0  0
   35.6889   20.0244   -7.2902 C   0  0  0  0  0  0  0  0  0  0  0  0
   35.9551   18.5748   -7.3381 N   0  0  0  0  0  0  0  0  0  0  0  0
   35.0445   17.5386   -7.1106 C   0  0  0  0  0  0  0  0  0  0  0  0
   34.1182   17.7686   -6.2414 O   0  0  0  0  0  0  0  0  0  0  0  0
   35.0072   16.2060   -7.7425 C   0  0  0  0  0  0  0  0  0  0  0  0
   36.2405   15.4989   -7.7999 N   0  0  0  0  0  0  0  0  0  0  0  0
   36.9135   14.8548   -6.7478 C   0  0  0  0  0  0  0  0  0  0  0  0
   37.5407   13.7768   -7.0339 O   0  0  0  0  0  0  0  0  0  0  0  0
   36.9693   15.2966   -5.3499 C   0  0  0  0  0  0  0  0  0  0  0  0
   38.2876   15.1537   -4.7650 N   0  0  0  0  0  0  0  0  0  0  0  0
   39.3682   16.0456   -4.9890 C   0  0  0  0  0  0  0  0  0  0  0  0
   40.1540   16.3611   -4.0500 O   0  0  0  0  0  0  0  0  0  0  0  0
   40.2921   18.7507   -5.9530 H   0  0  0  0  0  0  0  0  0  0  0  0
   36.7139   15.4462   -8.7493 H   0  0  0  0  0  0  0  0  0  0  0  0
   38.4597   14.3403   -4.1347 H   0  0  0  0  0  0  0  0  0  0  0  0
   41.1704   16.4552   -6.5290 C   0  0  0  0  0  0  0  0  0  0  0  0
   41.4725   15.9305   -7.8888 C   0  0  0  0  0  0  0  0  0  0  0  0
   42.1804   14.6054   -7.7391 C   0  0  0  0  0  0  0  0  0  0  0  0
   41.7753   13.8558   -6.5848 N   0  0  0  0  0  0  0  0  0  0  0  0
   42.1346   14.1909   -5.6421 H   0  0  0  0  0  0  0  0  0  0  0  0
   41.0521   11.6718   -7.6016 N   0  0  0  0  0  0  0  0  0  0  0  0
   40.9405   12.7117   -6.6409 C   0  0  0  0  0  0  0  0  0  0  0  0
   40.0071   12.5943   -5.7608 N   0  0  0  0  0  0  0  0  0  0  0  0
   40.4160   11.6339   -8.4502 H   0  0  0  0  0  0  0  0  0  0  0  0
   41.7514   10.9079   -7.5230 H   0  0  0  0  0  0  0  0  0  0  0  0
   39.3434   11.7901   -5.7201 H   0  0  0  0  0  0  0  0  0  0  0  0
   34.3914   16.3203   -9.1300 C   0  0  0  0  0  0  0  0  0  0  0  0
   33.0127   15.7824   -9.1865 C   0  0  0  0  0  0  0  0  0  0  0  0
   32.3220   15.7938  -10.3754 C   0  0  0  0  0  0  0  0  0  0  0  0
   31.0207   15.2883  -10.4156 C   0  0  0  0  0  0  0  0  0  0  0  0
   30.3948   14.7735   -9.3025 C   0  0  0  0  0  0  0  0  0  0  0  0
   31.0977   14.7668   -8.1139 C   0  0  0  0  0  0  0  0  0  0  0  0
   32.3908   15.2664   -8.0621 C   0  0  0  0  0  0  0  0  0  0  0  0
 28 29  1  0  0  0
 29 30  2  0  0  0
 29 26  1  0  0  0
 26 25  1  0  0  0
 25 24  1  0  0  0
 24 23  1  0  0  0
 23  1  1  0  0  0
  1  2  1  0  0  0
  2  3  1  0  0  0
  3  4  2  0  0  0
  3  5  1  0  0  0
  5  6  1  0  0  0
  6  7  1  0  0  0
  7  8  1  0  0  0
  8  9  1  0  0  0
  9 10  1  0  0  0
 10 11  2  0  0  0
 10 12  1  0  0  0
 12 34  1  0  0  0
 34 35  1  0  0  0
 35 36  2  0  0  0
 36 37  1  0  0  0
 37 38  2  0  0  0
 38 39  1  0  0  0
 39 40  2  0  0  0
 12 13  1  0  0  0
 13 14  1  0  0  0
 14 15  2  0  0  0
 14 16  1  0  0  0
 16 17  1  0  0  0
 17 18  1  0  0  0
 18 19  2  0  0  0
 18  1  1  0  0  0
  9  5  1  0  0  0
 40 35  1  0  0  0
 28 31  1  0  0  0
 28 32  1  0  0  0
 30 33  1  0  0  0
 26 27  1  0  0  0
  2 20  1  0  0  0
 13 21  1  0  0  0
 17 22  1  0  0  0
M  END
> <minimizedAffinity>
-6.01095

> <CNNscore>
0.2510148883

> <CNNaffinity>
4.8314929008

> <CNN_VS>
1.2127766609

> <CNNaffinity_variance>
0.4694018364

$$$$
[H]N=C(N([H])[H])N([H])C([H])([H])C([H])([H])C([H])([H])[C@@]1([H])C(=O)N([H])C([H])([H])C(=O)N([H])[C@]([H])(C([H])([H])c2c([H])c([H])c([H])c([H])c2[H])C(=O)N2C([H])([H])C([H])([H])C([H])([H])[C@@]2([H])C(=O)N1[H]


 40 42  0  0  0  0  0  0  0  0999 V2000
   36.7655   16.7323   -9.9810 C   0  0  0  0  0  0  0  0  0  0  0  0
   36.9177   18.1690   -9.7323 N   0  0  0  0  0  0  0  0  0  0  0  0
   37.0439   18.7325   -8.4393 C   0  0  0  0  0  0  0  0  0  0  0  0
   37.9500   19.5812   -8.2510 O   0  0  0  0  0  0  0  0  0  0  0  0
   36.1791   18.3962   -7.2728 C   0  0  0  0  0  0  0  0  0  0  0  0
   35.1771   19.5473   -7.1701 C   0  0  0  0  0  0  0  0  0  0  0  0
   36.0413   20.6120   -6.5368 C   0  0  0  0  0  0  0  0  0  0  0  0
   37.0421   19.8777   -5.7217 C   0  0  0  0  0  0  0  0  0  0  0  0
   36.9019   18.4423   -6.0290 N   0  0  0  0  0  0  0  0  0  0  0  0
   37.3793   17.3647   -5.2769 C   0  0  0  0  0  0  0  0  0  0  0  0
   38.4871   17.5536   -4.6418 O   0  0  0  0  0  0  0  0  0  0  0  0
   36.7732   16.0294   -5.1154 C   0  0  0  0  0  0  0  0  0  0  0  0
   36.3439   15.3817   -6.3072 N   0  0  0  0  0  0  0  0  0  0  0  0
   37.1412   14.7745   -7.2923 C   0  0  0  0  0  0  0  0  0  0  0  0
   36.6701   13.7266   -7.8555 O   0  0  0  0  0  0  0  0  0  0  0  0
   38.4636   15.2239   -7.7412 C   0  0  0  0  0  0  0  0  0  0  0  0
   38.6281   15.1464   -9.1791 N   0  0  0  0  0  0  0  0  0  0  0  0
   38.1020   16.0879  -10.1010 C   0  0  0  0  0  0  0  0  0  0  0  0
   38.7678   16.4442  -11.1152 O   0  0  0  0  0  0  0  0  0  0  0  0
   36.9351   18.8303  -10.5686 H   0  0  0  0  0  0  0  0  0  0  0  0
   35.2961   15.3480   -6.4783 H   0  0  0  0  0  0  0  0  0  0  0  0
   39.1700   14.3446   -9.5688 H   0  0  0  0  0  0  0  0  0  0  0  0
   36.0997   16.5770  -11.3416 C   0  0  0  0  0  0  0  0  0  0  0  0
   35.6047   15.1954  -11.5899 C   0  0  0  0  0  0  0  0  0  0  0  0
   34.1237   15.2666  -11.8747 C   0  0  0  0  0  0  0  0  0  0  0  0
   33.3136   15.4479  -10.7045 N   0  0  0  0  0  0  0  0  0  0  0  0
   33.7949   15.3365   -9.7632 H   0  0  0  0  0  0  0  0  0  0  0  0
   31.0240   15.2992  -11.7351 N   0  0  0  0  0  0  0  0  0  0  0  0
   31.9310   15.7576  -10.7430 C   0  0  0  0  0  0  0  0  0  0  0  0
   31.4485   16.5098   -9.8152 N   0  0  0  0  0  0  0  0  0  0  0  0
   30.7354   15.9183  -12.5473 H   0  0  0  0  0  0  0  0  0  0  0  0
   30.6041   14.3495  -11.7157 H   0  0  0  0  0  0  0  0  0  0  0  0
   30.4457   16.7927   -9.7580 H   0  0  0  0  0  0  0  0  0  0  0  0
   35.6331   16.1088   -4.1097 C   0  0  0  0  0  0  0  0  0  0  0  0
   34.3142   15.8272   -4.7216 C   0  0  0  0  0  0  0  0  0  0  0  0
   33.8659   14.5307   -4.8145 C   0  0  0  0  0  0  0  0  0  0  0  0
   32.6226   14.2768   -5.3980 C   0  0  0  0  0  0  0  0  0  0  0  0
   31.8192   15.2815   -5.8886 C   0  0  0  0  0  0  0  0  0  0  0  0
   32.2791   16.5798   -5.7900 C   0  0  0  0  0  0  0  0  0  0  0  0
   33.5125   16.8439   -5.2125 C   0  0  0  0  0  0  0  0  0  0  0  0
 28 29  1  0  0  0
 29 30  2  0  0  0
 29 26  1  0  0  0
 26 25  1  0  0  0
 25 24  1  0  0  0
 24 23  1  0  0  0
 23  1  1  0  0  0
  1  2  1  0  0  0
  2  3  1  0  0  0
  3  4  2  0  0  0
  3  5  1  0  0  0
  5  6  1  0  0  0
  6  7  1  0  0  0
  7  8  1  0  0  0
  8  9  1  0  0  0
  9 10  1  0  0  0
 10 11  2  0  0  0
 10 12  1  0  0  0
 12 34  1  0  0  0
 34 35  1  0  0  0
 35 36  2  0  0  0
 36 37  1  0  0  0
 37 38  2  0  0  0
 38 39  1  0  0  0
 39 40  2  0  0  0
 12 13  1  0  0  0
 13 14  1  0  0  0
 14 15  2  0  0  0
 14 16  1  0  0  0
 16 17  1  0  0  0
 17 18  1  0  0  0
 18 19  2  0  0  0
 18  1  1  0  0  0
  9  5  1  0  0  0
 40 35  1  0  0  0
 28 31  1  0  0  0
 28 32  1  0  0  0
 30 33  1  0  0  0
 26 27  1  0  0  0
  2 20  1  0  0  0
 13 21  1  0  0  0
 17 22  1  0  0  0
M  END
> <minimizedAffinity>
-6.96111

> <CNNscore>
0.2490445822

> <CNNaffinity>
5.4799332619

> <CNN_VS>
1.3647476435

> <CNNaffinity_variance>
0.3670648634

$$$$
[H]c1nc(N([H])c2c([H])c([H])c(N3C([H])([H])C([H])([H])N(C([H])([H])[H])C([H])([H])C3([H])[H])c([H])c2OC([H])([H])[H])nc(N([H])c2c([H])c([H])c([H])c([H])c2S(=O)(=O)C([H])(C([H])([H])[H])C([H])([H])[H])c1Cl


 38 41  0  0  0  0  0  0  0  0999 V2000
   42.9570   12.6021  -16.2845 C   0  0  0  0  0  0  0  0  0  0  0  0
   44.0328   12.0096  -16.8022 N   0  0  0  0  0  0  0  0  0  0  0  0
   45.2656   12.0889  -16.3209 C   0  0  0  0  0  0  0  0  0  0  0  0
   45.4788   12.8429  -15.1887 C   0  0  0  0  0  0  0  0  0  0  0  0
   47.0833   12.9911  -14.4996 Cl  0  0  0  0  0  0  0  0  0  0  0  0
   44.3880   13.5083  -14.5722 C   0  0  0  0  0  0  0  0  0  0  0  0
   43.2192   13.3385  -15.1624 N   0  0  0  0  0  0  0  0  0  0  0  0
   41.6328   12.5359  -16.7744 N   0  0  0  0  0  0  0  0  0  0  0  0
   41.5597   12.1410  -17.7781 H   0  0  0  0  0  0  0  0  0  0  0  0
   39.2844   12.1961  -16.3648 C   0  0  0  0  0  0  0  0  0  0  0  0
   38.1197   12.5458  -15.7296 C   0  0  0  0  0  0  0  0  0  0  0  0
   38.0190   13.5764  -14.8404 C   0  0  0  0  0  0  0  0  0  0  0  0
   39.1785   14.2856  -14.5912 C   0  0  0  0  0  0  0  0  0  0  0  0
   40.3749   13.9367  -15.2354 C   0  0  0  0  0  0  0  0  0  0  0  0
   40.4687   12.9141  -16.1156 C   0  0  0  0  0  0  0  0  0  0  0  0
   36.8013   13.8928  -14.1998 N   0  0  0  0  0  0  0  0  0  0  0  0
   35.5030   13.3933  -14.6322 C   0  0  0  0  0  0  0  0  0  0  0  0
   34.6926   12.8914  -13.4536 C   0  0  0  0  0  0  0  0  0  0  0  0
   34.8259   13.6754  -12.2678 N   0  0  0  0  0  0  0  0  0  0  0  0
   34.0543   14.8834  -12.2720 C   0  0  0  0  0  0  0  0  0  0  0  0
   36.2258   13.9040  -11.9067 C   0  0  0  0  0  0  0  0  0  0  0  0
   36.7748   14.7694  -13.0531 C   0  0  0  0  0  0  0  0  0  0  0  0
   38.1147   10.7096  -17.8683 C   0  0  0  0  0  0  0  0  0  0  0  0
   39.3158   11.1307  -17.2622 O   0  0  0  0  0  0  0  0  0  0  0  0
   44.6495   14.2538  -13.3993 N   0  0  0  0  0  0  0  0  0  0  0  0
   44.5952   13.6980  -12.4941 H   0  0  0  0  0  0  0  0  0  0  0  0
   44.9875   15.6154  -13.3739 C   0  0  0  0  0  0  0  0  0  0  0  0
   45.6790   16.2843  -14.3587 C   0  0  0  0  0  0  0  0  0  0  0  0
   46.0475   17.6369  -14.2522 C   0  0  0  0  0  0  0  0  0  0  0  0
   45.6881   18.3003  -13.0977 C   0  0  0  0  0  0  0  0  0  0  0  0
   44.9985   17.6571  -12.1009 C   0  0  0  0  0  0  0  0  0  0  0  0
   44.6376   16.3282  -12.2105 C   0  0  0  0  0  0  0  0  0  0  0  0
   43.7202   15.5253  -10.9704 S   0  0  0  0  0  0  0  0  0  0  0  0
   44.2840   14.1918  -10.5746 O   0  0  0  0  0  0  0  0  0  0  0  0
   43.9026   16.3904   -9.7072 O   0  0  0  0  0  0  0  0  0  0  0  0
   41.9918   15.5117  -11.2695 C   0  0  0  0  0  0  0  0  0  0  0  0
   41.6729   16.3221  -12.5342 C   0  0  0  0  0  0  0  0  0  0  0  0
   41.2254   16.2371  -10.1570 C   0  0  0  0  0  0  0  0  0  0  0  0
 23 24  1  0  0  0
 24 10  1  0  0  0
 10 11  2  0  0  0
 11 12  1  0  0  0
 12 13  2  0  0  0
 13 14  1  0  0  0
 14 15  2  0  0  0
 15  8  1  0  0  0
  8  1  1  0  0  0
  1  2  2  0  0  0
  2  3  1  0  0  0
  3  4  2  0  0  0
  4  5  1  0  0  0
  4  6  1  0  0  0
  6 25  1  0  0  0
 25 27  1  0  0  0
 27 28  2  0  0  0
 28 29  1  0  0  0
 29 30  2  0  0  0
 30 31  1  0  0  0
 31 32  2  0  0  0
 32 33  1  0  0  0
 33 34  2  0  0  0
 33 35  2  0  0  0
 33 36  1  0  0  0
 36 37  1  0  0  0
 36 38  1  0  0  0
  6  7  2  0  0  0
 12 16  1  0  0  0
 16 17  1  0  0  0
 17 18  1  0  0  0
 18 19  1  0  0  0
 19 20  1  0  0  0
 19 21  1  0  0  0
 21 22  1  0  0  0
 15 10  1  0  0  0
  7  1  1  0  0  0
 22 16  1  0  0  0
 32 27  1  0  0  0
  8  9  1  0  0  0
 25 26  1  0  0  0
M  END
> <minimizedAffinity>
-8.06996

> <CNNscore>
0.3908042610

> <CNNaffinity>
7.3668794632

> <CNN_VS>
2.8790078163

> <CNNaffinity_variance>
0.0703974590

$$$$
[H]c1nc(N([H])c2c([H])c([H])c(N3C([H])([H])C([H])([H])N(C([H])([H])[H])C([H])([H])C3([H])[H])c([H])c2OC([H])([H])[H])nc(N([H])c2c([H])c([H])c([H])c([H])c2S(=O)(=O)C([H])(C([H])([H])[H])C([H])([H])[H])c1Cl


 38 41  0  0  0  0  0  0  0  0999 V2000
   44.0187   13.2556  -16.0487 C   0  0  0  0  0  0  0  0  0  0  0  0
   45.2268   12.7467  -16.2889 N   0  0  0  0  0  0  0  0  0  0  0  0
   46.3332   13.0314  -15.6160 C   0  0  0  0  0  0  0  0  0  0  0  0
   46.2528   13.9279  -14.5740 C   0  0  0  0  0  0  0  0  0  0  0  0
   47.6764   14.3498  -13.6430 Cl  0  0  0  0  0  0  0  0  0  0  0  0
   45.0041   14.5180  -14.2496 C   0  0  0  0  0  0  0  0  0  0  0  0
   43.9900   14.1398  -15.0057 N   0  0  0  0  0  0  0  0  0  0  0  0
   42.8234   12.9716  -16.7475 N   0  0  0  0  0  0  0  0  0  0  0  0
   42.9672   12.8074  -17.8064 H   0  0  0  0  0  0  0  0  0  0  0  0
   40.5327   12.2701  -16.9902 C   0  0  0  0  0  0  0  0  0  0  0  0
   39.2550   12.1722  -16.5001 C   0  0  0  0  0  0  0  0  0  0  0  0
   38.8711   12.6462  -15.2792 C   0  0  0  0  0  0  0  0  0  0  0  0
   39.8541   13.2539  -14.5215 C   0  0  0  0  0  0  0  0  0  0  0  0
   41.1637   13.3595  -15.0131 C   0  0  0  0  0  0  0  0  0  0  0  0
   41.5385   12.8876  -16.2239 C   0  0  0  0  0  0  0  0  0  0  0  0
   37.5464   12.5119  -14.8094 N   0  0  0  0  0  0  0  0  0  0  0  0
   37.2009   11.9941  -13.4924 C   0  0  0  0  0  0  0  0  0  0  0  0
   36.1551   12.8634  -12.8228 C   0  0  0  0  0  0  0  0  0  0  0  0
   35.1527   13.3681  -13.7053 N   0  0  0  0  0  0  0  0  0  0  0  0
   34.1338   12.4180  -14.0424 C   0  0  0  0  0  0  0  0  0  0  0  0
   35.7264   14.0189  -14.8843 C   0  0  0  0  0  0  0  0  0  0  0  0
   36.4256   12.8783  -15.6422 C   0  0  0  0  0  0  0  0  0  0  0  0
   39.8409   11.1783  -19.0318 C   0  0  0  0  0  0  0  0  0  0  0  0
   40.8557   11.7632  -18.2473 O   0  0  0  0  0  0  0  0  0  0  0  0
   44.9643   15.4166  -13.1585 N   0  0  0  0  0  0  0  0  0  0  0  0
   45.8477   15.9926  -13.0204 H   0  0  0  0  0  0  0  0  0  0  0  0
   43.8623   15.5973  -12.3089 C   0  0  0  0  0  0  0  0  0  0  0  0
   42.6237   16.0576  -12.6956 C   0  0  0  0  0  0  0  0  0  0  0  0
   41.5723   16.2810  -11.7894 C   0  0  0  0  0  0  0  0  0  0  0  0
   41.8199   16.0198  -10.4580 C   0  0  0  0  0  0  0  0  0  0  0  0
   43.0454   15.5601  -10.0460 C   0  0  0  0  0  0  0  0  0  0  0  0
   44.0752   15.3411  -10.9404 C   0  0  0  0  0  0  0  0  0  0  0  0
   45.6127   14.7111  -10.4270 S   0  0  0  0  0  0  0  0  0  0  0  0
   46.7631   15.6340  -10.7054 O   0  0  0  0  0  0  0  0  0  0  0  0
   45.5399   14.6696   -8.8874 O   0  0  0  0  0  0  0  0  0  0  0  0
   45.8926   13.0500  -10.9162 C   0  0  0  0  0  0  0  0  0  0  0  0
   44.5609   12.2869  -10.9644 C   0  0  0  0  0  0  0  0  0  0  0  0
   46.7212   12.2911   -9.8729 C   0  0  0  0  0  0  0  0  0  0  0  0
 23 24  1  0  0  0
 24 10  1  0  0  0
 10 11  2  0  0  0
 11 12  1  0  0  0
 12 13  2  0  0  0
 13 14  1  0  0  0
 14 15  2  0  0  0
 15  8  1  0  0  0
  8  1  1  0  0  0
  1  2  2  0  0  0
  2  3  1  0  0  0
  3  4  2  0  0  0
  4  5  1  0  0  0
  4  6  1  0  0  0
  6 25  1  0  0  0
 25 27  1  0  0  0
 27 28  2  0  0  0
 28 29  1  0  0  0
 29 30  2  0  0  0
 30 31  1  0  0  0
 31 32  2  0  0  0
 32 33  1  0  0  0
 33 34  2  0  0  0
 33 35  2  0  0  0
 33 36  1  0  0  0
 36 37  1  0  0  0
 36 38  1  0  0  0
  6  7  2  0  0  0
 12 16  1  0  0  0
 16 17  1  0  0  0
 17 18  1  0  0  0
 18 19  1  0  0  0
 19 20  1  0  0  0
 19 21  1  0  0  0
 21 22  1  0  0  0
 15 10  1  0  0  0
  7  1  1  0  0  0
 22 16  1  0  0  0
 32 27  1  0  0  0
  8  9  1  0  0  0
 25 26  1  0  0  0
M  END
> <minimizedAffinity>
-8.08753

> <CNNscore>
0.2805541754

> <CNNaffinity>
7.3075180054

> <CNN_VS>
2.0501546860

> <CNNaffinity_variance>
0.0922369882

$$$$
[H]c1nc(N([H])c2c([H])c([H])c(N3C([H])([H])C([H])([H])N(C([H])([H])[H])C([H])([H])C3([H])[H])c([H])c2OC([H])([H])[H])nc(N([H])c2c([H])c([H])c([H])c([H])c2S(=O)(=O)C([H])(C([H])([H])[H])C([H])([H])[H])c1Cl


 38 41  0  0  0  0  0  0  0  0999 V2000
   44.0161   13.2363  -15.9584 C   0  0  0  0  0  0  0  0  0  0  0  0
   44.9242   12.2809  -15.7614 N   0  0  0  0  0  0  0  0  0  0  0  0
   46.0565   12.4183  -15.0854 C   0  0  0  0  0  0  0  0  0  0  0  0
   46.3416   13.6452  -14.5291 C   0  0  0  0  0  0  0  0  0  0  0  0
   47.8207   13.8965  -13.6234 Cl  0  0  0  0  0  0  0  0  0  0  0  0
   45.4286   14.7190  -14.6905 C   0  0  0  0  0  0  0  0  0  0  0  0
   44.3437   14.4350  -15.3873 N   0  0  0  0  0  0  0  0  0  0  0  0
   42.8022   13.1196  -16.6730 N   0  0  0  0  0  0  0  0  0  0  0  0
   42.9282   13.1177  -17.7468 H   0  0  0  0  0  0  0  0  0  0  0  0
   40.5482   12.2961  -16.8711 C   0  0  0  0  0  0  0  0  0  0  0  0
   39.2738   12.1727  -16.3782 C   0  0  0  0  0  0  0  0  0  0  0  0
   38.8615   12.7121  -15.1942 C   0  0  0  0  0  0  0  0  0  0  0  0
   39.8109   13.4166  -14.4787 C   0  0  0  0  0  0  0  0  0  0  0  0
   41.1168   13.5491  -14.9736 C   0  0  0  0  0  0  0  0  0  0  0  0
   41.5198   13.0121  -16.1476 C   0  0  0  0  0  0  0  0  0  0  0  0
   37.5420   12.5487  -14.7191 N   0  0  0  0  0  0  0  0  0  0  0  0
   37.2132   12.0201  -13.4021 C   0  0  0  0  0  0  0  0  0  0  0  0
   36.1524   12.8655  -12.7254 C   0  0  0  0  0  0  0  0  0  0  0  0
   35.1358   13.3516  -13.6021 N   0  0  0  0  0  0  0  0  0  0  0  0
   34.1355   12.3813  -13.9375 C   0  0  0  0  0  0  0  0  0  0  0  0
   35.6905   14.0176  -14.7817 C   0  0  0  0  0  0  0  0  0  0  0  0
   36.4101   12.8940  -15.5460 C   0  0  0  0  0  0  0  0  0  0  0  0
   39.8881   11.2024  -18.9222 C   0  0  0  0  0  0  0  0  0  0  0  0
   40.9013   11.7185  -18.0889 O   0  0  0  0  0  0  0  0  0  0  0  0
   45.7520   15.9548  -14.0840 N   0  0  0  0  0  0  0  0  0  0  0  0
   46.2531   16.6468  -14.7175 H   0  0  0  0  0  0  0  0  0  0  0  0
   45.4356   16.3064  -12.7630 C   0  0  0  0  0  0  0  0  0  0  0  0
   44.5770   15.6160  -11.9374 C   0  0  0  0  0  0  0  0  0  0  0  0
   44.2459   16.0494  -10.6417 C   0  0  0  0  0  0  0  0  0  0  0  0
   44.8209   17.2235  -10.2024 C   0  0  0  0  0  0  0  0  0  0  0  0
   45.6802   17.9309  -11.0050 C   0  0  0  0  0  0  0  0  0  0  0  0
   46.0034   17.5003  -12.2772 C   0  0  0  0  0  0  0  0  0  0  0  0
   47.1308   18.3687  -13.2768 S   0  0  0  0  0  0  0  0  0  0  0  0
   46.7402   18.4112  -14.7253 O   0  0  0  0  0  0  0  0  0  0  0  0
   47.0241   19.8390  -12.8247 O   0  0  0  0  0  0  0  0  0  0  0  0
   48.8052   17.9256  -12.9994 C   0  0  0  0  0  0  0  0  0  0  0  0
   49.3589   17.1796  -14.2220 C   0  0  0  0  0  0  0  0  0  0  0  0
   48.9344   16.9145  -11.8539 C   0  0  0  0  0  0  0  0  0  0  0  0
 23 24  1  0  0  0
 24 10  1  0  0  0
 10 11  2  0  0  0
 11 12  1  0  0  0
 12 13  2  0  0  0
 13 14  1  0  0  0
 14 15  2  0  0  0
 15  8  1  0  0  0
  8  1  1  0  0  0
  1  2  2  0  0  0
  2  3  1  0  0  0
  3  4  2  0  0  0
  4  5  1  0  0  0
  4  6  1  0  0  0
  6 25  1  0  0  0
 25 27  1  0  0  0
 27 28  2  0  0  0
 28 29  1  0  0  0
 29 30  2  0  0  0
 30 31  1  0  0  0
 31 32  2  0  0  0
 32 33  1  0  0  0
 33 34  2  0  0  0
 33 35  2  0  0  0
 33 36  1  0  0  0
 36 37  1  0  0  0
 36 38  1  0  0  0
  6  7  2  0  0  0
 12 16  1  0  0  0
 16 17  1  0  0  0
 17 18  1  0  0  0
 18 19  1  0  0  0
 19 20  1  0  0  0
 19 21  1  0  0  0
 21 22  1  0  0  0
 15 10  1  0  0  0
  7  1  1  0  0  0
 22 16  1  0  0  0
 32 27  1  0  0  0
  8  9  1  0  0  0
 25 26  1  0  0  0
M  END
> <minimizedAffinity>
-8.15668

> <CNNscore>
0.2238167822

> <CNNaffinity>
6.9580216408

> <CNN_VS>
1.5573220253

> <CNNaffinity_variance>
0.1428154409

$$$$
[H]c1nc(N([H])c2c([H])c([H])c(N3C([H])([H])C([H])([H])N(C([H])([H])[H])C([H])([H])C3([H])[H])c([H])c2OC([H])([H])[H])nc(N([H])c2c([H])c([H])c([H])c([H])c2S(=O)(=O)C([H])(C([H])([H])[H])C([H])([H])[H])c1Cl


 38 41  0  0  0  0  0  0  0  0999 V2000
   43.5167   12.8383  -16.1206 C   0  0  0  0  0  0  0  0  0  0  0  0
   44.7254   12.6040  -16.6308 N   0  0  0  0  0  0  0  0  0  0  0  0
   45.8802   12.8628  -16.0330 C   0  0  0  0  0  0  0  0  0  0  0  0
   45.8548   13.4225  -14.7752 C   0  0  0  0  0  0  0  0  0  0  0  0
   47.3440   13.7909  -13.9280 Cl  0  0  0  0  0  0  0  0  0  0  0  0
   44.6095   13.7052  -14.1571 C   0  0  0  0  0  0  0  0  0  0  0  0
   43.5436   13.3939  -14.8713 N   0  0  0  0  0  0  0  0  0  0  0  0
   42.2707   12.5735  -16.7330 N   0  0  0  0  0  0  0  0  0  0  0  0
   42.3490   12.2888  -17.7730 H   0  0  0  0  0  0  0  0  0  0  0  0
   39.9817   11.8294  -16.6593 C   0  0  0  0  0  0  0  0  0  0  0  0
   38.7281   11.8749  -16.1037 C   0  0  0  0  0  0  0  0  0  0  0  0
   38.3911   12.6789  -15.0535 C   0  0  0  0  0  0  0  0  0  0  0  0
   39.3975   13.4794  -14.5476 C   0  0  0  0  0  0  0  0  0  0  0  0
   40.6828   13.4410  -15.1083 C   0  0  0  0  0  0  0  0  0  0  0  0
   41.0111   12.6419  -16.1490 C   0  0  0  0  0  0  0  0  0  0  0  0
   37.0902   12.6835  -14.5048 N   0  0  0  0  0  0  0  0  0  0  0  0
   36.7540   12.1100  -13.2087 C   0  0  0  0  0  0  0  0  0  0  0  0
   35.8787   13.0526  -12.4067 C   0  0  0  0  0  0  0  0  0  0  0  0
   34.9057   13.7566  -13.1788 N   0  0  0  0  0  0  0  0  0  0  0  0
   33.7477   12.9810  -13.5137 C   0  0  0  0  0  0  0  0  0  0  0  0
   35.4938   14.4200  -14.3436 C   0  0  0  0  0  0  0  0  0  0  0  0
   35.9839   13.2626  -15.2294 C   0  0  0  0  0  0  0  0  0  0  0  0
   39.9407   11.4082  -19.0383 C   0  0  0  0  0  0  0  0  0  0  0  0
   40.2568   10.9835  -17.7317 O   0  0  0  0  0  0  0  0  0  0  0  0
   44.6310   14.2598  -12.8565 N   0  0  0  0  0  0  0  0  0  0  0  0
   44.5014   15.3148  -12.8175 H   0  0  0  0  0  0  0  0  0  0  0  0
   44.7793   13.5214  -11.6726 C   0  0  0  0  0  0  0  0  0  0  0  0
   45.4018   12.2979  -11.5682 C   0  0  0  0  0  0  0  0  0  0  0  0
   45.4657   11.5709  -10.3665 C   0  0  0  0  0  0  0  0  0  0  0  0
   44.8688   12.1316   -9.2568 C   0  0  0  0  0  0  0  0  0  0  0  0
   44.2420   13.3499   -9.3336 C   0  0  0  0  0  0  0  0  0  0  0  0
   44.1827   14.0610  -10.5164 C   0  0  0  0  0  0  0  0  0  0  0  0
   43.4327   15.6275  -10.6041 S   0  0  0  0  0  0  0  0  0  0  0  0
   43.3236   16.3163   -9.2751 O   0  0  0  0  0  0  0  0  0  0  0  0
   44.4231   16.5073  -11.3932 O   0  0  0  0  0  0  0  0  0  0  0  0
   41.9526   15.6486  -11.5452 C   0  0  0  0  0  0  0  0  0  0  0  0
   42.1021   16.6080  -12.7348 C   0  0  0  0  0  0  0  0  0  0  0  0
   40.7851   16.2307  -10.7395 C   0  0  0  0  0  0  0  0  0  0  0  0
 23 24  1  0  0  0
 24 10  1  0  0  0
 10 11  2  0  0  0
 11 12  1  0  0  0
 12 13  2  0  0  0
 13 14  1  0  0  0
 14 15  2  0  0  0
 15  8  1  0  0  0
  8  1  1  0  0  0
  1  2  2  0  0  0
  2  3  1  0  0  0
  3  4  2  0  0  0
  4  5  1  0  0  0
  4  6  1  0  0  0
  6 25  1  0  0  0
 25 27  1  0  0  0
 27 28  2  0  0  0
 28 29  1  0  0  0
 29 30  2  0  0  0
 30 31  1  0  0  0
 31 32  2  0  0  0
 32 33  1  0  0  0
 33 34  2  0  0  0
 33 35  2  0  0  0
 33 36  1  0  0  0
 36 37  1  0  0  0
 36 38  1  0  0  0
  6  7  2  0  0  0
 12 16  1  0  0  0
 16 17  1  0  0  0
 17 18  1  0  0  0
 18 19  1  0  0  0
 19 20  1  0  0  0
 19 21  1  0  0  0
 21 22  1  0  0  0
 15 10  1  0  0  0
  7  1  1  0  0  0
 22 16  1  0  0  0
 32 27  1  0  0  0
  8  9  1  0  0  0
 25 26  1  0  0  0
M  END
> <minimizedAffinity>
-7.66951

> <CNNscore>
0.1692913175

> <CNNaffinity>
7.0672645569

> <CNN_VS>
1.1964265108

> <CNNaffinity_variance>
0.1400325298

$$$$
[H]c1nc(N([H])c2c([H])c([H])c(N3C([H])([H])C([H])([H])N(C([H])([H])[H])C([H])([H])C3([H])[H])c([H])c2OC([H])([H])[H])nc(N([H])c2c([H])c([H])c([H])c([H])c2S(=O)(=O)C([H])(C([H])([H])[H])C([H])([H])[H])c1Cl


 38 41  0  0  0  0  0  0  0  0999 V2000
   43.8747   13.1587  -15.8559 C   0  0  0  0  0  0  0  0  0  0  0  0
   45.0973   12.8326  -16.2746 N   0  0  0  0  0  0  0  0  0  0  0  0
   46.2119   12.9413  -15.5648 C   0  0  0  0  0  0  0  0  0  0  0  0
   46.1248   13.4311  -14.2809 C   0  0  0  0  0  0  0  0  0  0  0  0
   47.5586   13.6013  -13.2876 Cl  0  0  0  0  0  0  0  0  0  0  0  0
   44.8607   13.8029  -13.7550 C   0  0  0  0  0  0  0  0  0  0  0  0
   43.8399   13.6396  -14.5762 N   0  0  0  0  0  0  0  0  0  0  0  0
   42.6704   13.0541  -16.5883 N   0  0  0  0  0  0  0  0  0  0  0  0
   42.8128   13.0405  -17.6599 H   0  0  0  0  0  0  0  0  0  0  0  0
   40.4316   12.1853  -16.7650 C   0  0  0  0  0  0  0  0  0  0  0  0
   39.1486   12.0837  -16.2896 C   0  0  0  0  0  0  0  0  0  0  0  0
   38.7045   12.7105  -15.1614 C   0  0  0  0  0  0  0  0  0  0  0  0
   39.6295   13.4835  -14.4860 C   0  0  0  0  0  0  0  0  0  0  0  0
   40.9439   13.5945  -14.9634 C   0  0  0  0  0  0  0  0  0  0  0  0
   41.3785   12.9708  -16.0820 C   0  0  0  0  0  0  0  0  0  0  0  0
   37.3773   12.5670  -14.7015 N   0  0  0  0  0  0  0  0  0  0  0  0
   37.0254   12.0394  -13.3901 C   0  0  0  0  0  0  0  0  0  0  0  0
   35.9710   12.8996  -12.7222 C   0  0  0  0  0  0  0  0  0  0  0  0
   34.9722   13.4051  -13.6084 N   0  0  0  0  0  0  0  0  0  0  0  0
   33.9601   12.4523  -13.9582 C   0  0  0  0  0  0  0  0  0  0  0  0
   35.5507   14.0659  -14.7794 C   0  0  0  0  0  0  0  0  0  0  0  0
   36.2604   12.9333  -15.5396 C   0  0  0  0  0  0  0  0  0  0  0  0
   39.8405   11.1962  -18.8889 C   0  0  0  0  0  0  0  0  0  0  0  0
   40.8179   11.5169  -17.9249 O   0  0  0  0  0  0  0  0  0  0  0  0
   44.8159   14.2806  -12.4248 N   0  0  0  0  0  0  0  0  0  0  0  0
   45.7276   14.1883  -11.8849 H   0  0  0  0  0  0  0  0  0  0  0  0
   43.6929   14.8665  -11.8212 C   0  0  0  0  0  0  0  0  0  0  0  0
   42.7664   15.6596  -12.4600 C   0  0  0  0  0  0  0  0  0  0  0  0
   41.6934   16.2746  -11.7914 C   0  0  0  0  0  0  0  0  0  0  0  0
   41.5878   16.0577  -10.4334 C   0  0  0  0  0  0  0  0  0  0  0  0
   42.4977   15.2714   -9.7725 C   0  0  0  0  0  0  0  0  0  0  0  0
   43.5498   14.6682  -10.4340 C   0  0  0  0  0  0  0  0  0  0  0  0
   44.6745   13.6310   -9.6074 S   0  0  0  0  0  0  0  0  0  0  0  0
   44.9027   12.3193  -10.3003 O   0  0  0  0  0  0  0  0  0  0  0  0
   46.0373   14.3443   -9.7143 O   0  0  0  0  0  0  0  0  0  0  0  0
   44.3673   13.4878   -7.8864 C   0  0  0  0  0  0  0  0  0  0  0  0
   45.3954   14.3144   -7.1004 C   0  0  0  0  0  0  0  0  0  0  0  0
   44.5879   12.0519   -7.3958 C   0  0  0  0  0  0  0  0  0  0  0  0
 23 24  1  0  0  0
 24 10  1  0  0  0
 10 11  2  0  0  0
 11 12  1  0  0  0
 12 13  2  0  0  0
 13 14  1  0  0  0
 14 15  2  0  0  0
 15  8  1  0  0  0
  8  1  1  0  0  0
  1  2  2  0  0  0
  2  3  1  0  0  0
  3  4  2  0  0  0
  4  5  1  0  0  0
  4  6  1  0  0  0
  6 25  1  0  0  0
 25 27  1  0  0  0
 27 28  2  0  0  0
 28 29  1  0  0  0
 29 30  2  0  0  0
 30 31  1  0  0  0
 31 32  2  0  0  0
 32 33  1  0  0  0
 33 34  2  0  0  0
 33 35  2  0  0  0
 33 36  1  0  0  0
 36 37  1  0  0  0
 36 38  1  0  0  0
  6  7  2  0  0  0
 12 16  1  0  0  0
 16 17  1  0  0  0
 17 18  1  0  0  0
 18 19  1  0  0  0
 19 20  1  0  0  0
 19 21  1  0  0  0
 21 22  1  0  0  0
 15 10  1  0  0  0
  7  1  1  0  0  0
 22 16  1  0  0  0
 32 27  1  0  0  0
  8  9  1  0  0  0
 25 26  1  0  0  0
M  END
> <minimizedAffinity>
-7.93476

> <CNNscore>
0.1631556749

> <CNNaffinity>
7.0565290451

> <CNN_VS>
1.1513127089

> <CNNaffinity_variance>
0.0930159539

$$$$
[H]c1nc(N([H])c2c([H])c([H])c(N3C([H])([H])C([H])([H])N(C([H])([H])[H])C([H])([H])C3([H])[H])c([H])c2OC([H])([H])[H])nc(N([H])c2c([H])c([H])c([H])c([H])c2S(=O)(=O)C([H])(C([H])([H])[H])C([H])([H])[H])c1Cl


 38 41  0  0  0  0  0  0  0  0999 V2000
   43.8198   13.5588  -15.0852 C   0  0  0  0  0  0  0  0  0  0  0  0
   44.5538   14.6539  -15.2808 N   0  0  0  0  0  0  0  0  0  0  0  0
   45.5649   15.0525  -14.5214 C   0  0  0  0  0  0  0  0  0  0  0  0
   45.9054   14.2855  -13.4298 C   0  0  0  0  0  0  0  0  0  0  0  0
   47.2308   14.7543  -12.3835 Cl  0  0  0  0  0  0  0  0  0  0  0  0
   45.1756   13.1020  -13.1476 C   0  0  0  0  0  0  0  0  0  0  0  0
   44.1961   12.8309  -13.9902 N   0  0  0  0  0  0  0  0  0  0  0  0
   42.7382   13.1091  -15.8762 N   0  0  0  0  0  0  0  0  0  0  0  0
   43.0396   12.6818  -16.8224 H   0  0  0  0  0  0  0  0  0  0  0  0
   40.4651   12.5357  -16.4259 C   0  0  0  0  0  0  0  0  0  0  0  0
   39.1226   12.5715  -16.1450 C   0  0  0  0  0  0  0  0  0  0  0  0
   38.5914   13.1927  -15.0519 C   0  0  0  0  0  0  0  0  0  0  0  0
   39.4890   13.8104  -14.2021 C   0  0  0  0  0  0  0  0  0  0  0  0
   40.8637   13.7800  -14.4800 C   0  0  0  0  0  0  0  0  0  0  0  0
   41.3846   13.1626  -15.5648 C   0  0  0  0  0  0  0  0  0  0  0  0
   37.2030   13.1933  -14.7954 N   0  0  0  0  0  0  0  0  0  0  0  0
   36.2030   12.7125  -15.7393 C   0  0  0  0  0  0  0  0  0  0  0  0
   35.1896   11.8196  -15.0511 C   0  0  0  0  0  0  0  0  0  0  0  0
   34.8235   12.2437  -13.7379 N   0  0  0  0  0  0  0  0  0  0  0  0
   33.8790   13.3216  -13.7102 C   0  0  0  0  0  0  0  0  0  0  0  0
   35.9895   12.4964  -12.8898 C   0  0  0  0  0  0  0  0  0  0  0  0
   36.6814   13.7011  -13.5487 C   0  0  0  0  0  0  0  0  0  0  0  0
   40.0257   11.5023  -18.5655 C   0  0  0  0  0  0  0  0  0  0  0  0
   40.9394   11.8821  -17.5614 O   0  0  0  0  0  0  0  0  0  0  0  0
   45.5739   12.3340  -12.0290 N   0  0  0  0  0  0  0  0  0  0  0  0
   46.3389   11.6215  -12.2246 H   0  0  0  0  0  0  0  0  0  0  0  0
   45.0559   12.4775  -10.7329 C   0  0  0  0  0  0  0  0  0  0  0  0
   43.9867   13.2718  -10.3844 C   0  0  0  0  0  0  0  0  0  0  0  0
   43.5491   13.4284   -9.0576 C   0  0  0  0  0  0  0  0  0  0  0  0
   44.2405   12.7445   -8.0797 C   0  0  0  0  0  0  0  0  0  0  0  0
   45.3096   11.9461   -8.4000 C   0  0  0  0  0  0  0  0  0  0  0  0
   45.7352   11.7944   -9.7054 C   0  0  0  0  0  0  0  0  0  0  0  0
   47.0580   10.7439  -10.1189 S   0  0  0  0  0  0  0  0  0  0  0  0
   46.7419    9.7909  -11.2344 O   0  0  0  0  0  0  0  0  0  0  0  0
   48.1364   11.6677  -10.7199 O   0  0  0  0  0  0  0  0  0  0  0  0
   47.8221    9.9927   -8.7301 C   0  0  0  0  0  0  0  0  0  0  0  0
   48.8285   10.9643   -8.0969 C   0  0  0  0  0  0  0  0  0  0  0  0
   48.6750    8.7876   -9.1440 C   0  0  0  0  0  0  0  0  0  0  0  0
 23 24  1  0  0  0
 24 10  1  0  0  0
 10 11  2  0  0  0
 11 12  1  0  0  0
 12 13  2  0  0  0
 13 14  1  0  0  0
 14 15  2  0  0  0
 15  8  1  0  0  0
  8  1  1  0  0  0
  1  2  2  0  0  0
  2  3  1  0  0  0
  3  4  2  0  0  0
  4  5  1  0  0  0
  4  6  1  0  0  0
  6 25  1  0  0  0
 25 27  1  0  0  0
 27 28  2  0  0  0
 28 29  1  0  0  0
 29 30  2  0  0  0
 30 31  1  0  0  0
 31 32  2  0  0  0
 32 33  1  0  0  0
 33 34  2  0  0  0
 33 35  2  0  0  0
 33 36  1  0  0  0
 36 37  1  0  0  0
 36 38  1  0  0  0
  6  7  2  0  0  0
 12 16  1  0  0  0
 16 17  1  0  0  0
 17 18  1  0  0  0
 18 19  1  0  0  0
 19 20  1  0  0  0
 19 21  1  0  0  0
 21 22  1  0  0  0
 15 10  1  0  0  0
  7  1  1  0  0  0
 22 16  1  0  0  0
 32 27  1  0  0  0
  8  9  1  0  0  0
 25 26  1  0  0  0
M  END
> <minimizedAffinity>
-7.51622

> <CNNscore>
0.0545873195

> <CNNaffinity>
6.6654481888

> <CNN_VS>
0.3638489544

> <CNNaffinity_variance>
0.0610242672

$$$$
[H]c1nc(N([H])c2c([H])c([H])c(N3C([H])([H])C([H])([H])N(C([H])([H])[H])C([H])([H])C3([H])[H])c([H])c2OC([H])([H])[H])nc(N([H])c2c([H])c([H])c([H])c([H])c2S(=O)(=O)C([H])(C([H])([H])[H])C([H])([H])[H])c1Cl


 38 41  0  0  0  0  0  0  0  0999 V2000
   39.6482   13.2253  -15.0622 C   0  0  0  0  0  0  0  0  0  0  0  0
   39.9925   12.5790  -16.1758 N   0  0  0  0  0  0  0  0  0  0  0  0
   41.2316   12.3889  -16.6074 C   0  0  0  0  0  0  0  0  0  0  0  0
   42.2703   12.8935  -15.8575 C   0  0  0  0  0  0  0  0  0  0  0  0
   43.9324   12.6789  -16.3699 Cl  0  0  0  0  0  0  0  0  0  0  0  0
   41.9932   13.5959  -14.6564 C   0  0  0  0  0  0  0  0  0  0  0  0
   40.7132   13.7073  -14.3525 N   0  0  0  0  0  0  0  0  0  0  0  0
   38.3386   13.4433  -14.5773 N   0  0  0  0  0  0  0  0  0  0  0  0
   37.5635   13.1109  -15.2538 H   0  0  0  0  0  0  0  0  0  0  0  0
   36.9380   13.4248  -12.6187 C   0  0  0  0  0  0  0  0  0  0  0  0
   36.5532   13.9703  -11.4201 C   0  0  0  0  0  0  0  0  0  0  0  0
   37.1182   15.0882  -10.8777 C   0  0  0  0  0  0  0  0  0  0  0  0
   38.1333   15.6768  -11.6074 C   0  0  0  0  0  0  0  0  0  0  0  0
   38.5345   15.1275  -12.8342 C   0  0  0  0  0  0  0  0  0  0  0  0
   37.9711   14.0192  -13.3668 C   0  0  0  0  0  0  0  0  0  0  0  0
   36.6987   15.6076   -9.6336 N   0  0  0  0  0  0  0  0  0  0  0  0
   37.3661   16.7043   -8.9453 C   0  0  0  0  0  0  0  0  0  0  0  0
   36.3617   17.7184   -8.4349 C   0  0  0  0  0  0  0  0  0  0  0  0
   35.1551   17.1504   -7.9250 N   0  0  0  0  0  0  0  0  0  0  0  0
   35.2718   16.6134   -6.6012 C   0  0  0  0  0  0  0  0  0  0  0  0
   34.5453   16.2062   -8.8627 C   0  0  0  0  0  0  0  0  0  0  0  0
   35.5570   15.0514   -8.9470 C   0  0  0  0  0  0  0  0  0  0  0  0
   34.9618   12.3460  -13.4958 C   0  0  0  0  0  0  0  0  0  0  0  0
   36.3172   12.2799  -13.1138 O   0  0  0  0  0  0  0  0  0  0  0  0
   43.0915   14.0779  -13.9074 N   0  0  0  0  0  0  0  0  0  0  0  0
   44.0440   13.9067  -14.3486 H   0  0  0  0  0  0  0  0  0  0  0  0
   42.9906   14.7614  -12.6862 C   0  0  0  0  0  0  0  0  0  0  0  0
   41.8724   15.4248  -12.2332 C   0  0  0  0  0  0  0  0  0  0  0  0
   41.8467   16.1487  -11.0283 C   0  0  0  0  0  0  0  0  0  0  0  0
   43.0085   16.1801  -10.2856 C   0  0  0  0  0  0  0  0  0  0  0  0
   44.1368   15.5273  -10.7141 C   0  0  0  0  0  0  0  0  0  0  0  0
   44.1569   14.8163  -11.8984 C   0  0  0  0  0  0  0  0  0  0  0  0
   45.5704   13.9470  -12.4183 S   0  0  0  0  0  0  0  0  0  0  0  0
   46.5961   13.7671  -11.3374 O   0  0  0  0  0  0  0  0  0  0  0  0
   45.0820   12.5125  -12.7030 O   0  0  0  0  0  0  0  0  0  0  0  0
   46.2277   14.5168  -13.9415 C   0  0  0  0  0  0  0  0  0  0  0  0
   47.0767   13.4142  -14.5905 C   0  0  0  0  0  0  0  0  0  0  0  0
   47.2135   15.6718  -13.7288 C   0  0  0  0  0  0  0  0  0  0  0  0
 23 24  1  0  0  0
 24 10  1  0  0  0
 10 11  2  0  0  0
 11 12  1  0  0  0
 12 13  2  0  0  0
 13 14  1  0  0  0
 14 15  2  0  0  0
 15  8  1  0  0  0
  8  1  1  0  0  0
  1  2  2  0  0  0
  2  3  1  0  0  0
  3  4  2  0  0  0
  4  5  1  0  0  0
  4  6  1  0  0  0
  6 25  1  0  0  0
 25 27  1  0  0  0
 27 28  2  0  0  0
 28 29  1  0  0  0
 29 30  2  0  0  0
 30 31  1  0  0  0
 31 32  2  0  0  0
 32 33  1  0  0  0
 33 34  2  0  0  0
 33 35  2  0  0  0
 33 36  1  0  0  0
 36 37  1  0  0  0
 36 38  1  0  0  0
  6  7  2  0  0  0
 12 16  1  0  0  0
 16 17  1  0  0  0
 17 18  1  0  0  0
 18 19  1  0  0  0
 19 20  1  0  0  0
 19 21  1  0  0  0
 21 22  1  0  0  0
 15 10  1  0  0  0
  7  1  1  0  0  0
 22 16  1  0  0  0
 32 27  1  0  0  0
  8  9  1  0  0  0
 25 26  1  0  0  0
M  END
> <minimizedAffinity>
-6.97841

> <CNNscore>
0.0374544337

> <CNNaffinity>
6.4498763084

> <CNN_VS>
0.2415764630

> <CNNaffinity_variance>
0.1905019134

$$$$
[H]c1nc(N([H])c2c([H])c([H])c(N3C([H])([H])C([H])([H])N(C([H])([H])[H])C([H])([H])C3([H])[H])c([H])c2OC([H])([H])[H])nc(N([H])c2c([H])c([H])c([H])c([H])c2S(=O)(=O)C([H])(C([H])([H])[H])C([H])([H])[H])c1Cl


 38 41  0  0  0  0  0  0  0  0999 V2000
   37.0476   13.5998  -14.3707 C   0  0  0  0  0  0  0  0  0  0  0  0
   35.7319   13.3876  -14.3838 N   0  0  0  0  0  0  0  0  0  0  0  0
   34.8526   13.9338  -13.5553 C   0  0  0  0  0  0  0  0  0  0  0  0
   35.3142   14.7987  -12.5886 C   0  0  0  0  0  0  0  0  0  0  0  0
   34.2069   15.5555  -11.4605 Cl  0  0  0  0  0  0  0  0  0  0  0  0
   36.7019   15.0812  -12.5033 C   0  0  0  0  0  0  0  0  0  0  0  0
   37.4570   14.4650  -13.3940 N   0  0  0  0  0  0  0  0  0  0  0  0
   38.0078   13.0330  -15.2394 N   0  0  0  0  0  0  0  0  0  0  0  0
   37.5774   12.4588  -16.0480 H   0  0  0  0  0  0  0  0  0  0  0  0
   40.1778   12.6056  -16.1915 C   0  0  0  0  0  0  0  0  0  0  0  0
   41.5456   12.6961  -16.1358 C   0  0  0  0  0  0  0  0  0  0  0  0
   42.2269   13.2883  -15.1121 C   0  0  0  0  0  0  0  0  0  0  0  0
   41.4602   13.8155  -14.0904 C   0  0  0  0  0  0  0  0  0  0  0  0
   40.0609   13.7282  -14.1371 C   0  0  0  0  0  0  0  0  0  0  0  0
   39.3911   13.1403  -15.1545 C   0  0  0  0  0  0  0  0  0  0  0  0
   43.6364   13.3703  -15.1027 N   0  0  0  0  0  0  0  0  0  0  0  0
   44.4324   13.5236  -13.8924 C   0  0  0  0  0  0  0  0  0  0  0  0
   45.6110   12.5703  -13.8915 C   0  0  0  0  0  0  0  0  0  0  0  0
   46.2296   12.3940  -15.1662 N   0  0  0  0  0  0  0  0  0  0  0  0
   47.1059   13.4624  -15.5472 C   0  0  0  0  0  0  0  0  0  0  0  0
   45.2619   12.0605  -16.2126 C   0  0  0  0  0  0  0  0  0  0  0  0
   44.3884   13.3202  -16.3340 C   0  0  0  0  0  0  0  0  0  0  0  0
   40.3261   11.5401  -18.3551 C   0  0  0  0  0  0  0  0  0  0  0  0
   39.5468   11.9866  -17.2686 O   0  0  0  0  0  0  0  0  0  0  0  0
   37.1285   15.9917  -11.5090 N   0  0  0  0  0  0  0  0  0  0  0  0
   36.3910   16.6917  -11.1969 H   0  0  0  0  0  0  0  0  0  0  0  0
   38.4034   15.9992  -10.9231 C   0  0  0  0  0  0  0  0  0  0  0  0
   39.5887   16.1992  -11.5942 C   0  0  0  0  0  0  0  0  0  0  0  0
   40.8451   16.1326  -10.9668 C   0  0  0  0  0  0  0  0  0  0  0  0
   40.8625   15.8517   -9.6166 C   0  0  0  0  0  0  0  0  0  0  0  0
   39.6956   15.6485   -8.9239 C   0  0  0  0  0  0  0  0  0  0  0  0
   38.4633   15.7160   -9.5446 C   0  0  0  0  0  0  0  0  0  0  0  0
   36.9813   15.5084   -8.6586 S   0  0  0  0  0  0  0  0  0  0  0  0
   35.9707   16.5874   -8.9175 O   0  0  0  0  0  0  0  0  0  0  0  0
   36.3283   14.2440   -9.2521 O   0  0  0  0  0  0  0  0  0  0  0  0
   37.2211   15.1445   -6.9595 C   0  0  0  0  0  0  0  0  0  0  0  0
   37.3482   13.6270   -6.7619 C   0  0  0  0  0  0  0  0  0  0  0  0
   35.9929   15.5288   -6.1259 C   0  0  0  0  0  0  0  0  0  0  0  0
 23 24  1  0  0  0
 24 10  1  0  0  0
 10 11  2  0  0  0
 11 12  1  0  0  0
 12 13  2  0  0  0
 13 14  1  0  0  0
 14 15  2  0  0  0
 15  8  1  0  0  0
  8  1  1  0  0  0
  1  2  2  0  0  0
  2  3  1  0  0  0
  3  4  2  0  0  0
  4  5  1  0  0  0
  4  6  1  0  0  0
  6 25  1  0  0  0
 25 27  1  0  0  0
 27 28  2  0  0  0
 28 29  1  0  0  0
 29 30  2  0  0  0
 30 31  1  0  0  0
 31 32  2  0  0  0
 32 33  1  0  0  0
 33 34  2  0  0  0
 33 35  2  0  0  0
 33 36  1  0  0  0
 36 37  1  0  0  0
 36 38  1  0  0  0
  6  7  2  0  0  0
 12 16  1  0  0  0
 16 17  1  0  0  0
 17 18  1  0  0  0
 18 19  1  0  0  0
 19 20  1  0  0  0
 19 21  1  0  0  0
 21 22  1  0  0  0
 15 10  1  0  0  0
  7  1  1  0  0  0
 22 16  1  0  0  0
 32 27  1  0  0  0
  8  9  1  0  0  0
 25 26  1  0  0  0
M  END
> <minimizedAffinity>
-8.35213

> <CNNscore>
0.0318777114

> <CNNaffinity>
6.1570158005

> <CNN_VS>
0.1962715685

> <CNNaffinity_variance>
0.7402557731

$$$$
[H]c1nc(N([H])c2c([H])c([H])c(N3C([H])([H])C([H])([H])N(C([H])([H])[H])C([H])([H])C3([H])[H])c([H])c2OC([H])([H])[H])nc(N([H])c2c([H])c([H])c([H])c([H])c2S(=O)(=O)C([H])(C([H])([H])[H])C([H])([H])[H])c1Cl


 38 41  0  0  0  0  0  0  0  0999 V2000
   43.9263   13.8455  -14.9309 C   0  0  0  0  0  0  0  0  0  0  0  0
   44.8401   14.7567  -15.2639 N   0  0  0  0  0  0  0  0  0  0  0  0
   45.8104   15.2017  -14.4775 C   0  0  0  0  0  0  0  0  0  0  0  0
   45.9028   14.6936  -13.2011 C   0  0  0  0  0  0  0  0  0  0  0  0
   47.1606   15.2379  -12.1088 Cl  0  0  0  0  0  0  0  0  0  0  0  0
   44.9697   13.7185  -12.7637 C   0  0  0  0  0  0  0  0  0  0  0  0
   44.0596   13.3714  -13.6550 N   0  0  0  0  0  0  0  0  0  0  0  0
   42.8824   13.3524  -15.7462 N   0  0  0  0  0  0  0  0  0  0  0  0
   43.2048   13.0594  -16.7357 H   0  0  0  0  0  0  0  0  0  0  0  0
   40.6956   12.4918  -16.2712 C   0  0  0  0  0  0  0  0  0  0  0  0
   39.3668   12.3396  -15.9658 C   0  0  0  0  0  0  0  0  0  0  0  0
   38.7802   12.8564  -14.8469 C   0  0  0  0  0  0  0  0  0  0  0  0
   39.6046   13.5684  -13.9966 C   0  0  0  0  0  0  0  0  0  0  0  0
   40.9648   13.7303  -14.2994 C   0  0  0  0  0  0  0  0  0  0  0  0
   41.5407   13.2155  -15.4097 C   0  0  0  0  0  0  0  0  0  0  0  0
   37.4101   12.6637  -14.5660 N   0  0  0  0  0  0  0  0  0  0  0  0
   36.9092   12.0855  -13.3263 C   0  0  0  0  0  0  0  0  0  0  0  0
   35.7528   12.8961  -12.7756 C   0  0  0  0  0  0  0  0  0  0  0  0
   34.8608   13.4034  -13.7683 N   0  0  0  0  0  0  0  0  0  0  0  0
   33.9308   12.4362  -14.2724 C   0  0  0  0  0  0  0  0  0  0  0  0
   35.5643   14.1162  -14.8359 C   0  0  0  0  0  0  0  0  0  0  0  0
   36.3991   13.0274  -15.5302 C   0  0  0  0  0  0  0  0  0  0  0  0
   40.3662   11.2968  -18.3454 C   0  0  0  0  0  0  0  0  0  0  0  0
   41.2292   11.9362  -17.4322 O   0  0  0  0  0  0  0  0  0  0  0  0
   45.1157   13.2090  -11.4527 N   0  0  0  0  0  0  0  0  0  0  0  0
   44.6678   13.8000  -10.6903 H   0  0  0  0  0  0  0  0  0  0  0  0
   45.7651   12.0086  -11.1271 C   0  0  0  0  0  0  0  0  0  0  0  0
   46.4066   11.1807  -12.0208 C   0  0  0  0  0  0  0  0  0  0  0  0
   46.9865    9.9551  -11.6492 C   0  0  0  0  0  0  0  0  0  0  0  0
   46.8939    9.5890  -10.3228 C   0  0  0  0  0  0  0  0  0  0  0  0
   46.2603   10.3959   -9.4115 C   0  0  0  0  0  0  0  0  0  0  0  0
   45.6928   11.5999   -9.7812 C   0  0  0  0  0  0  0  0  0  0  0  0
   44.9335   12.6471   -8.6189 S   0  0  0  0  0  0  0  0  0  0  0  0
   45.5525   14.0125   -8.5462 O   0  0  0  0  0  0  0  0  0  0  0  0
   43.5207   12.9140   -9.1760 O   0  0  0  0  0  0  0  0  0  0  0  0
   44.6738   11.8945   -7.0559 C   0  0  0  0  0  0  0  0  0  0  0  0
   43.2646   12.2251   -6.5432 C   0  0  0  0  0  0  0  0  0  0  0  0
   45.6070   12.4811   -5.9900 C   0  0  0  0  0  0  0  0  0  0  0  0
 23 24  1  0  0  0
 24 10  1  0  0  0
 10 11  2  0  0  0
 11 12  1  0  0  0
 12 13  2  0  0  0
 13 14  1  0  0  0
 14 15  2  0  0  0
 15  8  1  0  0  0
  8  1  1  0  0  0
  1  2  2  0  0  0
  2  3  1  0  0  0
  3  4  2  0  0  0
  4  5  1  0  0  0
  4  6  1  0  0  0
  6 25  1  0  0  0
 25 27  1  0  0  0
 27 28  2  0  0  0
 28 29  1  0  0  0
 29 30  2  0  0  0
 30 31  1  0  0  0
 31 32  2  0  0  0
 32 33  1  0  0  0
 33 34  2  0  0  0
 33 35  2  0  0  0
 33 36  1  0  0  0
 36 37  1  0  0  0
 36 38  1  0  0  0
  6  7  2  0  0  0
 12 16  1  0  0  0
 16 17  1  0  0  0
 17 18  1  0  0  0
 18 19  1  0  0  0
 19 20  1  0  0  0
 19 21  1  0  0  0
 21 22  1  0  0  0
 15 10  1  0  0  0
  7  1  1  0  0  0
 22 16  1  0  0  0
 32 27  1  0  0  0
  8  9  1  0  0  0
 25 26  1  0  0  0
M  END
> <minimizedAffinity>
-7.61339

> <CNNscore>
0.0297846496

> <CNNaffinity>
6.5274162292

> <CNN_VS>
0.1944168061

> <CNNaffinity_variance>
0.0936978906

$$$$
[H]c1c([H])c([H])c2c(c1[H])c1c3c(c4c5c([H])c([H])c([H])c([H])c5n5c4c1n2[C@@]1([H])O[C@]5(C([H])([H])[H])[C@]([H])(OC([H])([H])[H])[C@]([H])(N([H])C([H])([H])[H])C1([H])[H])C([H])([H])N([H])C3=O


 37 44  0  0  0  0  0  0  0  0999 V2000
   34.4745   15.6488  -11.8608 C   0  0  0  0  0  0  0  0  0  0  0  0
   34.4467   14.7007  -12.9997 C   0  0  0  0  0  0  0  0  0  0  0  0
   35.1169   13.4233  -12.5835 C   0  0  0  0  0  0  0  0  0  0  0  0
   35.9630   13.5086  -11.5497 O   0  0  0  0  0  0  0  0  0  0  0  0
   36.7430   14.6589  -11.4033 C   0  0  0  0  0  0  0  0  0  0  0  0
   37.1998   14.5209   -9.9383 C   0  0  0  0  0  0  0  0  0  0  0  0
   35.9610   15.9208  -11.5455 C   0  0  0  0  0  0  0  0  0  0  0  0
   37.8749   14.5421  -12.3033 N   0  0  0  0  0  0  0  0  0  0  0  0
   39.0918   15.0913  -12.1415 C   0  0  0  0  0  0  0  0  0  0  0  0
   39.6103   15.9170  -11.1740 C   0  0  0  0  0  0  0  0  0  0  0  0
   40.9239   16.3758  -11.2293 C   0  0  0  0  0  0  0  0  0  0  0  0
   41.7619   16.0155  -12.2688 C   0  0  0  0  0  0  0  0  0  0  0  0
   41.2530   15.1955  -13.2354 C   0  0  0  0  0  0  0  0  0  0  0  0
   39.9540   14.7505  -13.1672 C   0  0  0  0  0  0  0  0  0  0  0  0
   39.2391   13.9574  -14.0055 C   0  0  0  0  0  0  0  0  0  0  0  0
   39.5411   13.3165  -15.1992 C   0  0  0  0  0  0  0  0  0  0  0  0
   40.8222   13.3090  -15.9375 C   0  0  0  0  0  0  0  0  0  0  0  0
   40.5654   12.4998  -17.0855 N   0  0  0  0  0  0  0  0  0  0  0  0
   39.2081   12.0258  -17.0676 C   0  0  0  0  0  0  0  0  0  0  0  0
   38.7739   11.3035  -17.9705 O   0  0  0  0  0  0  0  0  0  0  0  0
   38.5967   12.5588  -15.8699 C   0  0  0  0  0  0  0  0  0  0  0  0
   37.3419   12.4600  -15.3148 C   0  0  0  0  0  0  0  0  0  0  0  0
   36.1758   11.8177  -15.7081 C   0  0  0  0  0  0  0  0  0  0  0  0
   35.8321   11.0337  -16.7774 C   0  0  0  0  0  0  0  0  0  0  0  0
   34.5195   10.5543  -16.8307 C   0  0  0  0  0  0  0  0  0  0  0  0
   33.5883   10.8390  -15.8673 C   0  0  0  0  0  0  0  0  0  0  0  0
   33.9486   11.6269  -14.8006 C   0  0  0  0  0  0  0  0  0  0  0  0
   35.2521   12.1161  -14.7266 C   0  0  0  0  0  0  0  0  0  0  0  0
   35.7740   12.8809  -13.7841 N   0  0  0  0  0  0  0  0  0  0  0  0
   37.0470   13.1040  -14.1183 C   0  0  0  0  0  0  0  0  0  0  0  0
   38.0005   13.8442  -13.4762 C   0  0  0  0  0  0  0  0  0  0  0  0
   41.2766   12.2947  -17.8220 H   0  0  0  0  0  0  0  0  0  0  0  0
   32.4365   15.7272  -10.5682 C   0  0  0  0  0  0  0  0  0  0  0  0
   33.7778   15.2355  -10.6820 N   0  0  0  0  0  0  0  0  0  0  0  0
   34.3147   15.5719   -9.8524 H   0  0  0  0  0  0  0  0  0  0  0  0
   35.8635   16.6778  -10.3663 O   0  0  0  0  0  0  0  0  0  0  0  0
   36.8451   17.6624  -10.4143 C   0  0  0  0  0  0  0  0  0  0  0  0
 33 34  1  0  0  0
 34  1  1  0  0  0
  1  2  1  0  0  0
  2  3  1  0  0  0
  3  4  1  0  0  0
  4  5  1  0  0  0
  5  6  1  0  0  0
  5  7  1  0  0  0
  7 36  1  0  0  0
 36 37  1  0  0  0
  5  8  1  0  0  0
  8  9  1  0  0  0
  9 10  2  0  0  0
 10 11  1  0  0  0
 11 12  2  0  0  0
 12 13  1  0  0  0
 13 14  2  0  0  0
 14 15  1  0  0  0
 15 16  2  0  0  0
 16 17  1  0  0  0
 17 18  1  0  0  0
 18 19  1  0  0  0
 19 20  2  0  0  0
 19 21  1  0  0  0
 21 22  2  0  0  0
 22 23  1  0  0  0
 23 24  2  0  0  0
 24 25  1  0  0  0
 25 26  2  0  0  0
 26 27  1  0  0  0
 27 28  2  0  0  0
 28 29  1  0  0  0
 29 30  1  0  0  0
 30 31  2  0  0  0
  7  1  1  0  0  0
 31  8  1  0  0  0
 29  3  1  0  0  0
 14  9  1  0  0  0
 31 15  1  0  0  0
 21 16  1  0  0  0
 30 22  1  0  0  0
 28 23  1  0  0  0
 34 35  1  0  0  0
 18 32  1  0  0  0
M  END
> <minimizedAffinity>
-11.76572

> <CNNscore>
0.5852269530

> <CNNaffinity>
7.1083283424

> <CNN_VS>
4.1599855423

> <CNNaffinity_variance>
0.1061778218

$$$$
[H]c1c([H])c([H])c2c(c1[H])c1c3c(c4c5c([H])c([H])c([H])c([H])c5n5c4c1n2[C@@]1([H])O[C@]5(C([H])([H])[H])[C@]([H])(OC([H])([H])[H])[C@]([H])(N([H])C([H])([H])[H])C1([H])[H])C([H])([H])N([H])C3=O


 37 44  0  0  0  0  0  0  0  0999 V2000
   36.2254   13.7049  -11.7135 C   0  0  0  0  0  0  0  0  0  0  0  0
   37.6484   14.1082  -11.6188 C   0  0  0  0  0  0  0  0  0  0  0  0
   37.9434   15.1031  -12.7038 C   0  0  0  0  0  0  0  0  0  0  0  0
   37.1149   15.0952  -13.7552 O   0  0  0  0  0  0  0  0  0  0  0  0
   36.5906   13.8777  -14.1978 C   0  0  0  0  0  0  0  0  0  0  0  0
   35.4223   14.3622  -15.0777 C   0  0  0  0  0  0  0  0  0  0  0  0
   36.0437   13.0377  -13.0936 C   0  0  0  0  0  0  0  0  0  0  0  0
   37.6043   13.2293  -15.0083 N   0  0  0  0  0  0  0  0  0  0  0  0
   37.3963   12.3689  -16.0208 C   0  0  0  0  0  0  0  0  0  0  0  0
   36.2508   11.8257  -16.5496 C   0  0  0  0  0  0  0  0  0  0  0  0
   36.2891   10.9274  -17.6130 C   0  0  0  0  0  0  0  0  0  0  0  0
   37.4909   10.5448  -18.1802 C   0  0  0  0  0  0  0  0  0  0  0  0
   38.6344   11.0798  -17.6589 C   0  0  0  0  0  0  0  0  0  0  0  0
   38.5808   11.9656  -16.6089 C   0  0  0  0  0  0  0  0  0  0  0  0
   39.5688   12.6010  -15.9284 C   0  0  0  0  0  0  0  0  0  0  0  0
   40.9526   12.5998  -16.0363 C   0  0  0  0  0  0  0  0  0  0  0  0
   41.7967   11.8620  -17.0003 C   0  0  0  0  0  0  0  0  0  0  0  0
   43.1329   12.2282  -16.6549 N   0  0  0  0  0  0  0  0  0  0  0  0
   43.1281   13.1420  -15.5449 C   0  0  0  0  0  0  0  0  0  0  0  0
   44.1829   13.5893  -15.0837 O   0  0  0  0  0  0  0  0  0  0  0  0
   41.7430   13.3512  -15.1838 C   0  0  0  0  0  0  0  0  0  0  0  0
   41.1119   14.1032  -14.2202 C   0  0  0  0  0  0  0  0  0  0  0  0
   41.5734   14.9394  -13.2129 C   0  0  0  0  0  0  0  0  0  0  0  0
   42.8160   15.3451  -12.8036 C   0  0  0  0  0  0  0  0  0  0  0  0
   42.8832   16.2209  -11.7155 C   0  0  0  0  0  0  0  0  0  0  0  0
   41.7685   16.6749  -11.0614 C   0  0  0  0  0  0  0  0  0  0  0  0
   40.5288   16.2588  -11.4841 C   0  0  0  0  0  0  0  0  0  0  0  0
   40.4377   15.3855  -12.5672 C   0  0  0  0  0  0  0  0  0  0  0  0
   39.3419   14.8840  -13.1085 N   0  0  0  0  0  0  0  0  0  0  0  0
   39.7252   14.1000  -14.1186 C   0  0  0  0  0  0  0  0  0  0  0  0
   38.9692   13.3497  -14.9760 C   0  0  0  0  0  0  0  0  0  0  0  0
   43.9794   11.8707  -17.1509 H   0  0  0  0  0  0  0  0  0  0  0  0
   35.3106   15.3936  -10.2500 C   0  0  0  0  0  0  0  0  0  0  0  0
   35.2633   14.7468  -11.5280 N   0  0  0  0  0  0  0  0  0  0  0  0
   34.3114   14.3346  -11.6443 H   0  0  0  0  0  0  0  0  0  0  0  0
   34.6512   12.8586  -13.1372 O   0  0  0  0  0  0  0  0  0  0  0  0
   34.3968   11.7027  -13.8684 C   0  0  0  0  0  0  0  0  0  0  0  0
 33 34  1  0  0  0
 34  1  1  0  0  0
  1  2  1  0  0  0
  2  3  1  0  0  0
  3  4  1  0  0  0
  4  5  1  0  0  0
  5  6  1  0  0  0
  5  7  1  0  0  0
  7 36  1  0  0  0
 36 37  1  0  0  0
  5  8  1  0  0  0
  8  9  1  0  0  0
  9 10  2  0  0  0
 10 11  1  0  0  0
 11 12  2  0  0  0
 12 13  1  0  0  0
 13 14  2  0  0  0
 14 15  1  0  0  0
 15 16  2  0  0  0
 16 17  1  0  0  0
 17 18  1  0  0  0
 18 19  1  0  0  0
 19 20  2  0  0  0
 19 21  1  0  0  0
 21 22  2  0  0  0
 22 23  1  0  0  0
 23 24  2  0  0  0
 24 25  1  0  0  0
 25 26  2  0  0  0
 26 27  1  0  0  0
 27 28  2  0  0  0
 28 29  1  0  0  0
 29 30  1  0  0  0
 30 31  2  0  0  0
  7  1  1  0  0  0
 31  8  1  0  0  0
 29  3  1  0  0  0
 14  9  1  0  0  0
 31 15  1  0  0  0
 21 16  1  0  0  0
 30 22  1  0  0  0
 28 23  1  0  0  0
 34 35  1  0  0  0
 18 32  1  0  0  0
M  END
> <minimizedAffinity>
-11.61750

> <CNNscore>
0.4591113925

> <CNNaffinity>
7.0487833023

> <CNN_VS>
3.2361767292

> <CNNaffinity_variance>
0.0775693730

$$$$
[H]c1c([H])c([H])c2c(c1[H])c1c3c(c4c5c([H])c([H])c([H])c([H])c5n5c4c1n2[C@@]1([H])O[C@]5(C([H])([H])[H])[C@]([H])(OC([H])([H])[H])[C@]([H])(N([H])C([H])([H])[H])C1([H])[H])C([H])([H])N([H])C3=O


 37 44  0  0  0  0  0  0  0  0999 V2000
   34.6545   13.1591  -15.3688 C   0  0  0  0  0  0  0  0  0  0  0  0
   35.8974   12.8730  -16.1238 C   0  0  0  0  0  0  0  0  0  0  0  0
   36.7129   11.8745  -15.3543 C   0  0  0  0  0  0  0  0  0  0  0  0
   36.4579   11.7869  -14.0431 O   0  0  0  0  0  0  0  0  0  0  0  0
   36.1246   12.9460  -13.3370 C   0  0  0  0  0  0  0  0  0  0  0  0
   35.5182   12.3455  -12.0542 C   0  0  0  0  0  0  0  0  0  0  0  0
   35.0857   13.7706  -14.0186 C   0  0  0  0  0  0  0  0  0  0  0  0
   37.3574   13.6498  -13.0370 N   0  0  0  0  0  0  0  0  0  0  0  0
   37.5860   14.4620  -11.9899 C   0  0  0  0  0  0  0  0  0  0  0  0
   36.7798   14.8973  -10.9664 C   0  0  0  0  0  0  0  0  0  0  0  0
   37.2482   15.7655   -9.9835 C   0  0  0  0  0  0  0  0  0  0  0  0
   38.5519   16.2263  -10.0015 C   0  0  0  0  0  0  0  0  0  0  0  0
   39.3593   15.7987  -11.0168 C   0  0  0  0  0  0  0  0  0  0  0  0
   38.8828   14.9414  -11.9801 C   0  0  0  0  0  0  0  0  0  0  0  0
   39.4851   14.4060  -13.0726 C   0  0  0  0  0  0  0  0  0  0  0  0
   40.7624   14.5140  -13.6049 C   0  0  0  0  0  0  0  0  0  0  0  0
   41.9097   15.2891  -13.0860 C   0  0  0  0  0  0  0  0  0  0  0  0
   42.9588   15.0401  -14.0221 N   0  0  0  0  0  0  0  0  0  0  0  0
   42.4997   14.1605  -15.0627 C   0  0  0  0  0  0  0  0  0  0  0  0
   43.2508   13.8116  -15.9790 O   0  0  0  0  0  0  0  0  0  0  0  0
   41.1175   13.8521  -14.7676 C   0  0  0  0  0  0  0  0  0  0  0  0
   40.1603   13.0799  -15.3838 C   0  0  0  0  0  0  0  0  0  0  0  0
   40.1575   12.3117  -16.5399 C   0  0  0  0  0  0  0  0  0  0  0  0
   41.0966   12.0177  -17.4928 C   0  0  0  0  0  0  0  0  0  0  0  0
   40.7092   11.1810  -18.5442 C   0  0  0  0  0  0  0  0  0  0  0  0
   39.4472   10.6585  -18.6474 C   0  0  0  0  0  0  0  0  0  0  0  0
   38.5162   10.9627  -17.6832 C   0  0  0  0  0  0  0  0  0  0  0  0
   38.8802   11.7951  -16.6256 C   0  0  0  0  0  0  0  0  0  0  0  0
   38.1263   12.1925  -15.6161 N   0  0  0  0  0  0  0  0  0  0  0  0
   38.8831   12.9757  -14.8442 C   0  0  0  0  0  0  0  0  0  0  0  0
   38.5608   13.6391  -13.6928 C   0  0  0  0  0  0  0  0  0  0  0  0
   43.9161   15.4496  -13.9437 H   0  0  0  0  0  0  0  0  0  0  0  0
   33.5214   11.2530  -16.3244 C   0  0  0  0  0  0  0  0  0  0  0  0
   33.7761   12.0497  -15.1608 N   0  0  0  0  0  0  0  0  0  0  0  0
   32.8619   12.4188  -14.8179 H   0  0  0  0  0  0  0  0  0  0  0  0
   33.8596   13.8372  -13.3366 O   0  0  0  0  0  0  0  0  0  0  0  0
   33.7644   15.1003  -12.7614 C   0  0  0  0  0  0  0  0  0  0  0  0
 33 34  1  0  0  0
 34  1  1  0  0  0
  1  2  1  0  0  0
  2  3  1  0  0  0
  3  4  1  0  0  0
  4  5  1  0  0  0
  5  6  1  0  0  0
  5  7  1  0  0  0
  7 36  1  0  0  0
 36 37  1  0  0  0
  5  8  1  0  0  0
  8  9  1  0  0  0
  9 10  2  0  0  0
 10 11  1  0  0  0
 11 12  2  0  0  0
 12 13  1  0  0  0
 13 14  2  0  0  0
 14 15  1  0  0  0
 15 16  2  0  0  0
 16 17  1  0  0  0
 17 18  1  0  0  0
 18 19  1  0  0  0
 19 20  2  0  0  0
 19 21  1  0  0  0
 21 22  2  0  0  0
 22 23  1  0  0  0
 23 24  2  0  0  0
 24 25  1  0  0  0
 25 26  2  0  0  0
 26 27  1  0  0  0
 27 28  2  0  0  0
 28 29  1  0  0  0
 29 30  1  0  0  0
 30 31  2  0  0  0
  7  1  1  0  0  0
 31  8  1  0  0  0
 29  3  1  0  0  0
 14  9  1  0  0  0
 31 15  1  0  0  0
 21 16  1  0  0  0
 30 22  1  0  0  0
 28 23  1  0  0  0
 34 35  1  0  0  0
 18 32  1  0  0  0
M  END
> <minimizedAffinity>
-8.49704

> <CNNscore>
0.1743340641

> <CNNaffinity>
6.5486650467

> <CNN_VS>
1.1416554451

> <CNNaffinity_variance>
0.2470136136

$$$$
[H]c1c([H])c([H])c2c(c1[H])c1c3c(c4c5c([H])c([H])c([H])c([H])c5n5c4c1n2[C@@]1([H])O[C@]5(C([H])([H])[H])[C@]([H])(OC([H])([H])[H])[C@]([H])(N([H])C([H])([H])[H])C1([H])[H])C([H])([H])N([H])C3=O


 37 44  0  0  0  0  0  0  0  0999 V2000
   43.0444   13.9589  -12.9656 C   0  0  0  0  0  0  0  0  0  0  0  0
   42.2376   13.2024  -13.9522 C   0  0  0  0  0  0  0  0  0  0  0  0
   41.4454   14.1746  -14.7778 C   0  0  0  0  0  0  0  0  0  0  0  0
   41.2402   15.3813  -14.2361 O   0  0  0  0  0  0  0  0  0  0  0  0
   41.0436   15.4820  -12.8560 C   0  0  0  0  0  0  0  0  0  0  0  0
   41.2810   16.9879  -12.6335 C   0  0  0  0  0  0  0  0  0  0  0  0
   42.0469   14.7154  -12.0625 C   0  0  0  0  0  0  0  0  0  0  0  0
   39.6613   15.1378  -12.5810 N   0  0  0  0  0  0  0  0  0  0  0  0
   38.9098   15.5811  -11.5575 C   0  0  0  0  0  0  0  0  0  0  0  0
   39.1925   16.4020  -10.4931 C   0  0  0  0  0  0  0  0  0  0  0  0
   38.2327   16.7141   -9.5335 C   0  0  0  0  0  0  0  0  0  0  0  0
   36.9498   16.2046   -9.6162 C   0  0  0  0  0  0  0  0  0  0  0  0
   36.6616   15.3864  -10.6713 C   0  0  0  0  0  0  0  0  0  0  0  0
   37.6195   15.0874  -11.6109 C   0  0  0  0  0  0  0  0  0  0  0  0
   37.5687   14.2989  -12.7149 C   0  0  0  0  0  0  0  0  0  0  0  0
   36.5664   13.5314  -13.2918 C   0  0  0  0  0  0  0  0  0  0  0  0
   35.1700   13.3555  -12.8385 C   0  0  0  0  0  0  0  0  0  0  0  0
   34.5948   12.4674  -13.7972 N   0  0  0  0  0  0  0  0  0  0  0  0
   35.5686   12.1102  -14.7927 C   0  0  0  0  0  0  0  0  0  0  0  0
   35.2799   11.3491  -15.7217 O   0  0  0  0  0  0  0  0  0  0  0  0
   36.7931   12.7962  -14.4425 C   0  0  0  0  0  0  0  0  0  0  0  0
   38.0496   12.8490  -15.0001 C   0  0  0  0  0  0  0  0  0  0  0  0
   38.6234   12.2452  -16.1105 C   0  0  0  0  0  0  0  0  0  0  0  0
   38.1641   11.3875  -17.0747 C   0  0  0  0  0  0  0  0  0  0  0  0
   39.0670   10.9853  -18.0639 C   0  0  0  0  0  0  0  0  0  0  0  0
   40.3677   11.4137  -18.0967 C   0  0  0  0  0  0  0  0  0  0  0  0
   40.8134   12.2743  -17.1223 C   0  0  0  0  0  0  0  0  0  0  0  0
   39.9306   12.6887  -16.1259 C   0  0  0  0  0  0  0  0  0  0  0  0
   40.1788   13.5055  -15.1176 N   0  0  0  0  0  0  0  0  0  0  0  0
   39.0484   13.6208  -14.4170 C   0  0  0  0  0  0  0  0  0  0  0  0
   38.7954   14.3389  -13.2813 C   0  0  0  0  0  0  0  0  0  0  0  0
   33.6052   12.1362  -13.7611 H   0  0  0  0  0  0  0  0  0  0  0  0
   45.0734   14.2351  -14.2451 C   0  0  0  0  0  0  0  0  0  0  0  0
   44.0159   14.8589  -13.5060 N   0  0  0  0  0  0  0  0  0  0  0  0
   44.4452   15.3871  -12.7147 H   0  0  0  0  0  0  0  0  0  0  0  0
   42.9121   15.5139  -11.2964 O   0  0  0  0  0  0  0  0  0  0  0  0
   42.9921   14.9516  -10.0264 C   0  0  0  0  0  0  0  0  0  0  0  0
 33 34  1  0  0  0
 34  1  1  0  0  0
  1  2  1  0  0  0
  2  3  1  0  0  0
  3  4  1  0  0  0
  4  5  1  0  0  0
  5  6  1  0  0  0
  5  7  1  0  0  0
  7 36  1  0  0  0
 36 37  1  0  0  0
  5  8  1  0  0  0
  8  9  1  0  0  0
  9 10  2  0  0  0
 10 11  1  0  0  0
 11 12  2  0  0  0
 12 13  1  0  0  0
 13 14  2  0  0  0
 14 15  1  0  0  0
 15 16  2  0  0  0
 16 17  1  0  0  0
 17 18  1  0  0  0
 18 19  1  0  0  0
 19 20  2  0  0  0
 19 21  1  0  0  0
 21 22  2  0  0  0
 22 23  1  0  0  0
 23 24  2  0  0  0
 24 25  1  0  0  0
 25 26  2  0  0  0
 26 27  1  0  0  0
 27 28  2  0  0  0
 28 29  1  0  0  0
 29 30  1  0  0  0
 30 31  2  0  0  0
  7  1  1  0  0  0
 31  8  1  0  0  0
 29  3  1  0  0  0
 14  9  1  0  0  0
 31 15  1  0  0  0
 21 16  1  0  0  0
 30 22  1  0  0  0
 28 23  1  0  0  0
 34 35  1  0  0  0
 18 32  1  0  0  0
M  END
> <minimizedAffinity>
-9.78760

> <CNNscore>
0.1374436766

> <CNNaffinity>
6.3967471123

> <CNN_VS>
0.8791924119

> <CNNaffinity_variance>
0.1749847084

$$$$
[H]c1c([H])c([H])c2c(c1[H])c1c3c(c4c5c([H])c([H])c([H])c([H])c5n5c4c1n2[C@@]1([H])O[C@]5(C([H])([H])[H])[C@]([H])(OC([H])([H])[H])[C@]([H])(N([H])C([H])([H])[H])C1([H])[H])C([H])([H])N([H])C3=O


 37 44  0  0  0  0  0  0  0  0999 V2000
   40.4732   11.1210  -16.8666 C   0  0  0  0  0  0  0  0  0  0  0  0
   39.0156   11.0065  -16.6236 C   0  0  0  0  0  0  0  0  0  0  0  0
   38.3559   12.2964  -17.0175 C   0  0  0  0  0  0  0  0  0  0  0  0
   39.1443   13.3775  -17.0535 O   0  0  0  0  0  0  0  0  0  0  0  0
   40.1691   13.5026  -16.1114 C   0  0  0  0  0  0  0  0  0  0  0  0
   41.0381   14.5945  -16.7644 C   0  0  0  0  0  0  0  0  0  0  0  0
   40.9857   12.2635  -15.9638 C   0  0  0  0  0  0  0  0  0  0  0  0
   39.5785   13.9904  -14.8792 N   0  0  0  0  0  0  0  0  0  0  0  0
   40.1849   14.7298  -13.9337 C   0  0  0  0  0  0  0  0  0  0  0  0
   41.4727   15.1909  -13.8077 C   0  0  0  0  0  0  0  0  0  0  0  0
   41.8771   15.9439  -12.7083 C   0  0  0  0  0  0  0  0  0  0  0  0
   40.9910   16.2573  -11.6939 C   0  0  0  0  0  0  0  0  0  0  0  0
   39.7089   15.8012  -11.8115 C   0  0  0  0  0  0  0  0  0  0  0  0
   39.3243   15.0590  -12.9029 C   0  0  0  0  0  0  0  0  0  0  0  0
   38.1310   14.4950  -13.2208 C   0  0  0  0  0  0  0  0  0  0  0  0
   36.8950   14.4619  -12.5900 C   0  0  0  0  0  0  0  0  0  0  0  0
   36.5021   15.0871  -11.3089 C   0  0  0  0  0  0  0  0  0  0  0  0
   35.1287   14.7315  -11.1470 N   0  0  0  0  0  0  0  0  0  0  0  0
   34.6857   13.9352  -12.2591 C   0  0  0  0  0  0  0  0  0  0  0  0
   33.5242   13.5201  -12.3224 O   0  0  0  0  0  0  0  0  0  0  0  0
   35.8209   13.7867  -13.1434 C   0  0  0  0  0  0  0  0  0  0  0  0
   36.0166   13.1450  -14.3444 C   0  0  0  0  0  0  0  0  0  0  0  0
   35.1937   12.3788  -15.1584 C   0  0  0  0  0  0  0  0  0  0  0  0
   33.8842   11.9828  -15.0896 C   0  0  0  0  0  0  0  0  0  0  0  0
   33.3943   11.1895  -16.1317 C   0  0  0  0  0  0  0  0  0  0  0  0
   34.1673   10.8051  -17.1953 C   0  0  0  0  0  0  0  0  0  0  0  0
   35.4793   11.2107  -17.2499 C   0  0  0  0  0  0  0  0  0  0  0  0
   35.9894   12.0023  -16.2218 C   0  0  0  0  0  0  0  0  0  0  0  0
   37.2148   12.4823  -16.1060 N   0  0  0  0  0  0  0  0  0  0  0  0
   37.2572   13.1834  -14.9708 C   0  0  0  0  0  0  0  0  0  0  0  0
   38.3003   13.8602  -14.4021 C   0  0  0  0  0  0  0  0  0  0  0  0
   34.5473   15.0190  -10.3288 H   0  0  0  0  0  0  0  0  0  0  0  0
   39.9731   10.8035  -19.2074 C   0  0  0  0  0  0  0  0  0  0  0  0
   40.8690   11.3365  -18.2240 N   0  0  0  0  0  0  0  0  0  0  0  0
   41.8025   10.8911  -18.3649 H   0  0  0  0  0  0  0  0  0  0  0  0
   42.3149   12.3905  -16.3997 O   0  0  0  0  0  0  0  0  0  0  0  0
   43.1063   12.6221  -15.2792 C   0  0  0  0  0  0  0  0  0  0  0  0
 33 34  1  0  0  0
 34  1  1  0  0  0
  1  2  1  0  0  0
  2  3  1  0  0  0
  3  4  1  0  0  0
  4  5  1  0  0  0
  5  6  1  0  0  0
  5  7  1  0  0  0
  7 36  1  0  0  0
 36 37  1  0  0  0
  5  8  1  0  0  0
  8  9  1  0  0  0
  9 10  2  0  0  0
 10 11  1  0  0  0
 11 12  2  0  0  0
 12 13  1  0  0  0
 13 14  2  0  0  0
 14 15  1  0  0  0
 15 16  2  0  0  0
 16 17  1  0  0  0
 17 18  1  0  0  0
 18 19  1  0  0  0
 19 20  2  0  0  0
 19 21  1  0  0  0
 21 22  2  0  0  0
 22 23  1  0  0  0
 23 24  2  0  0  0
 24 25  1  0  0  0
 25 26  2  0  0  0
 26 27  1  0  0  0
 27 28  2  0  0  0
 28 29  1  0  0  0
 29 30  1  0  0  0
 30 31  2  0  0  0
  7  1  1  0  0  0
 31  8  1  0  0  0
 29  3  1  0  0  0
 14  9  1  0  0  0
 31 15  1  0  0  0
 21 16  1  0  0  0
 30 22  1  0  0  0
 28 23  1  0  0  0
 34 35  1  0  0  0
 18 32  1  0  0  0
M  END
> <minimizedAffinity>
-7.28416

> <CNNscore>
0.1354544759

> <CNNaffinity>
6.6171188354

> <CNN_VS>
0.8963183761

> <CNNaffinity_variance>
0.3819222152

$$$$
[H]c1c([H])c([H])c2c(c1[H])c1c3c(c4c5c([H])c([H])c([H])c([H])c5n5c4c1n2[C@@]1([H])O[C@]5(C([H])([H])[H])[C@]([H])(OC([H])([H])[H])[C@]([H])(N([H])C([H])([H])[H])C1([H])[H])C([H])([H])N([H])C3=O


 37 44  0  0  0  0  0  0  0  0999 V2000
   44.1765   16.0226  -11.9411 C   0  0  0  0  0  0  0  0  0  0  0  0
   43.8219   16.1715  -10.5098 C   0  0  0  0  0  0  0  0  0  0  0  0
   45.0856   16.2409   -9.7021 C   0  0  0  0  0  0  0  0  0  0  0  0
   46.1815   15.7256  -10.2725 O   0  0  0  0  0  0  0  0  0  0  0  0
   46.0581   14.5906  -11.0786 C   0  0  0  0  0  0  0  0  0  0  0  0
   47.4021   14.6161  -11.8315 C   0  0  0  0  0  0  0  0  0  0  0  0
   44.9498   14.6929  -12.0712 C   0  0  0  0  0  0  0  0  0  0  0  0
   45.9852   13.4346  -10.2049 N   0  0  0  0  0  0  0  0  0  0  0  0
   46.3813   12.1821  -10.4926 C   0  0  0  0  0  0  0  0  0  0  0  0
   46.8997   11.6171  -11.6323 C   0  0  0  0  0  0  0  0  0  0  0  0
   47.2290   10.2655  -11.6955 C   0  0  0  0  0  0  0  0  0  0  0  0
   47.0442    9.4348  -10.6054 C   0  0  0  0  0  0  0  0  0  0  0  0
   46.5279    9.9893   -9.4689 C   0  0  0  0  0  0  0  0  0  0  0  0
   46.2076   11.3253   -9.4215 C   0  0  0  0  0  0  0  0  0  0  0  0
   45.6760   12.0790   -8.4253 C   0  0  0  0  0  0  0  0  0  0  0  0
   45.2763   11.7960   -7.1265 C   0  0  0  0  0  0  0  0  0  0  0  0
   45.3334   10.5037   -6.4103 C   0  0  0  0  0  0  0  0  0  0  0  0
   44.7959   10.7896   -5.1188 N   0  0  0  0  0  0  0  0  0  0  0  0
   44.4271   12.1763   -5.0283 C   0  0  0  0  0  0  0  0  0  0  0  0
   43.9415   12.6398   -3.9916 O   0  0  0  0  0  0  0  0  0  0  0  0
   44.7427   12.7754   -6.3067 C   0  0  0  0  0  0  0  0  0  0  0  0
   44.6191   14.0452   -6.8212 C   0  0  0  0  0  0  0  0  0  0  0  0
   44.1258   15.2361   -6.3062 C   0  0  0  0  0  0  0  0  0  0  0  0
   43.5927   15.6063   -5.1001 C   0  0  0  0  0  0  0  0  0  0  0  0
   43.1955   16.9388   -4.9516 C   0  0  0  0  0  0  0  0  0  0  0  0
   43.3209   17.8642   -5.9538 C   0  0  0  0  0  0  0  0  0  0  0  0
   43.8579   17.4773   -7.1582 C   0  0  0  0  0  0  0  0  0  0  0  0
   44.2609   16.1535   -7.3289 C   0  0  0  0  0  0  0  0  0  0  0  0
   44.7938   15.6055   -8.4065 N   0  0  0  0  0  0  0  0  0  0  0  0
   45.0225   14.3213   -8.1228 C   0  0  0  0  0  0  0  0  0  0  0  0
   45.5486   13.3345   -8.9096 C   0  0  0  0  0  0  0  0  0  0  0  0
   44.6933   10.0774   -4.3621 H   0  0  0  0  0  0  0  0  0  0  0  0
   44.1403   18.0638  -13.2305 C   0  0  0  0  0  0  0  0  0  0  0  0
   44.9231   17.0972  -12.5187 N   0  0  0  0  0  0  0  0  0  0  0  0
   45.6153   16.6903  -13.1857 H   0  0  0  0  0  0  0  0  0  0  0  0
   45.3737   14.7449  -13.4093 O   0  0  0  0  0  0  0  0  0  0  0  0
   44.5986   13.8444  -14.1331 C   0  0  0  0  0  0  0  0  0  0  0  0
 33 34  1  0  0  0
 34  1  1  0  0  0
  1  2  1  0  0  0
  2  3  1  0  0  0
  3  4  1  0  0  0
  4  5  1  0  0  0
  5  6  1  0  0  0
  5  7  1  0  0  0
  7 36  1  0  0  0
 36 37  1  0  0  0
  5  8  1  0  0  0
  8  9  1  0  0  0
  9 10  2  0  0  0
 10 11  1  0  0  0
 11 12  2  0  0  0
 12 13  1  0  0  0
 13 14  2  0  0  0
 14 15  1  0  0  0
 15 16  2  0  0  0
 16 17  1  0  0  0
 17 18  1  0  0  0
 18 19  1  0  0  0
 19 20  2  0  0  0
 19 21  1  0  0  0
 21 22  2  0  0  0
 22 23  1  0  0  0
 23 24  2  0  0  0
 24 25  1  0  0  0
 25 26  2  0  0  0
 26 27  1  0  0  0
 27 28  2  0  0  0
 28 29  1  0  0  0
 29 30  1  0  0  0
 30 31  2  0  0  0
  7  1  1  0  0  0
 31  8  1  0  0  0
 29  3  1  0  0  0
 14  9  1  0  0  0
 31 15  1  0  0  0
 21 16  1  0  0  0
 30 22  1  0  0  0
 28 23  1  0  0  0
 34 35  1  0  0  0
 18 32  1  0  0  0
M  END
> <minimizedAffinity>
-5.53627

> <CNNscore>
0.1241614819

> <CNNaffinity>
5.0703349113

> <CNN_VS>
0.6295403242

> <CNNaffinity_variance>
0.1399664581

$$$$
[H]c1c([H])c([H])c2c(c1[H])c1c3c(c4c5c([H])c([H])c([H])c([H])c5n5c4c1n2[C@@]1([H])O[C@]5(C([H])([H])[H])[C@]([H])(OC([H])([H])[H])[C@]([H])(N([H])C([H])([H])[H])C1([H])[H])C([H])([H])N([H])C3=O


 37 44  0  0  0  0  0  0  0  0999 V2000
   38.4736   15.5730   -8.9757 C   0  0  0  0  0  0  0  0  0  0  0  0
   39.6865   15.3553   -9.7993 C   0  0  0  0  0  0  0  0  0  0  0  0
   39.6367   16.2723  -10.9871 C   0  0  0  0  0  0  0  0  0  0  0  0
   38.4261   16.7267  -11.3335 O   0  0  0  0  0  0  0  0  0  0  0  0
   37.3184   15.8867  -11.1897 C   0  0  0  0  0  0  0  0  0  0  0  0
   36.1642   16.9036  -11.2758 C   0  0  0  0  0  0  0  0  0  0  0  0
   37.2635   15.2093   -9.8623 C   0  0  0  0  0  0  0  0  0  0  0  0
   37.2938   14.9899  -12.3300 N   0  0  0  0  0  0  0  0  0  0  0  0
   36.2085   14.4166  -12.8796 C   0  0  0  0  0  0  0  0  0  0  0  0
   34.8773   14.4488  -12.5425 C   0  0  0  0  0  0  0  0  0  0  0  0
   33.9197   13.7483  -13.2716 C   0  0  0  0  0  0  0  0  0  0  0  0
   34.2758   12.9873  -14.3700 C   0  0  0  0  0  0  0  0  0  0  0  0
   35.5980   12.9494  -14.7106 C   0  0  0  0  0  0  0  0  0  0  0  0
   36.5319   13.6464  -13.9813 C   0  0  0  0  0  0  0  0  0  0  0  0
   37.8790   13.7426  -14.1194 C   0  0  0  0  0  0  0  0  0  0  0  0
   38.7855   13.1985  -15.0187 C   0  0  0  0  0  0  0  0  0  0  0  0
   38.5154   12.3075  -16.1675 C   0  0  0  0  0  0  0  0  0  0  0  0
   39.8021   12.0605  -16.7352 N   0  0  0  0  0  0  0  0  0  0  0  0
   40.8169   12.7559  -15.9912 C   0  0  0  0  0  0  0  0  0  0  0  0
   42.0068   12.6814  -16.3139 O   0  0  0  0  0  0  0  0  0  0  0  0
   40.1417   13.4584  -14.9220 C   0  0  0  0  0  0  0  0  0  0  0  0
   40.5666   14.2766  -13.9010 C   0  0  0  0  0  0  0  0  0  0  0  0
   41.8172   14.7268  -13.5009 C   0  0  0  0  0  0  0  0  0  0  0  0
   43.0917   14.5454  -13.9689 C   0  0  0  0  0  0  0  0  0  0  0  0
   44.1292   15.1800  -13.2788 C   0  0  0  0  0  0  0  0  0  0  0  0
   43.9138   15.9601  -12.1735 C   0  0  0  0  0  0  0  0  0  0  0  0
   42.6293   16.1326  -11.7163 C   0  0  0  0  0  0  0  0  0  0  0  0
   41.5791   15.5092  -12.3888 C   0  0  0  0  0  0  0  0  0  0  0  0
   40.2915   15.5607  -12.0972 N   0  0  0  0  0  0  0  0  0  0  0  0
   39.6525   14.8187  -13.0044 C   0  0  0  0  0  0  0  0  0  0  0  0
   38.3180   14.5467  -13.1255 C   0  0  0  0  0  0  0  0  0  0  0  0
   39.9611   11.4564  -17.5720 H   0  0  0  0  0  0  0  0  0  0  0  0
   38.7295   17.0162   -7.0568 C   0  0  0  0  0  0  0  0  0  0  0  0
   38.3163   16.8825   -8.4225 N   0  0  0  0  0  0  0  0  0  0  0  0
   37.3064   17.1401   -8.4792 H   0  0  0  0  0  0  0  0  0  0  0  0
   36.1902   15.6119   -9.0506 O   0  0  0  0  0  0  0  0  0  0  0  0
   35.8800   14.5521   -8.2044 C   0  0  0  0  0  0  0  0  0  0  0  0
 33 34  1  0  0  0
 34  1  1  0  0  0
  1  2  1  0  0  0
  2  3  1  0  0  0
  3  4  1  0  0  0
  4  5  1  0  0  0
  5  6  1  0  0  0
  5  7  1  0  0  0
  7 36  1  0  0  0
 36 37  1  0  0  0
  5  8  1  0  0  0
  8  9  1  0  0  0
  9 10  2  0  0  0
 10 11  1  0  0  0
 11 12  2  0  0  0
 12 13  1  0  0  0
 13 14  2  0  0  0
 14 15  1  0  0  0
 15 16  2  0  0  0
 16 17  1  0  0  0
 17 18  1  0  0  0
 18 19  1  0  0  0
 19 20  2  0  0  0
 19 21  1  0  0  0
 21 22  2  0  0  0
 22 23  1  0  0  0
 23 24  2  0  0  0
 24 25  1  0  0  0
 25 26  2  0  0  0
 26 27  1  0  0  0
 27 28  2  0  0  0
 28 29  1  0  0  0
 29 30  1  0  0  0
 30 31  2  0  0  0
  7  1  1  0  0  0
 31  8  1  0  0  0
 29  3  1  0  0  0
 14  9  1  0  0  0
 31 15  1  0  0  0
 21 16  1  0  0  0
 30 22  1  0  0  0
 28 23  1  0  0  0
 34 35  1  0  0  0
 18 32  1  0  0  0
M  END
> <minimizedAffinity>
-10.03827

> <CNNscore>
0.1003012285

> <CNNaffinity>
6.0220627785

> <CNN_VS>
0.6040202975

> <CNNaffinity_variance>
0.3690409660

$$$$
[H]c1c([H])c([H])c2c(c1[H])c1c3c(c4c5c([H])c([H])c([H])c([H])c5n5c4c1n2[C@@]1([H])O[C@]5(C([H])([H])[H])[C@]([H])(OC([H])([H])[H])[C@]([H])(N([H])C([H])([H])[H])C1([H])[H])C([H])([H])N([H])C3=O


 37 44  0  0  0  0  0  0  0  0999 V2000
   38.5433   16.0752  -10.3759 C   0  0  0  0  0  0  0  0  0  0  0  0
   39.9671   16.3813  -10.1007 C   0  0  0  0  0  0  0  0  0  0  0  0
   40.5200   15.3303   -9.1821 C   0  0  0  0  0  0  0  0  0  0  0  0
   39.6255   14.6499   -8.4550 O   0  0  0  0  0  0  0  0  0  0  0  0
   38.4921   15.3137   -7.9775 C   0  0  0  0  0  0  0  0  0  0  0  0
   37.5875   14.1231   -7.6063 C   0  0  0  0  0  0  0  0  0  0  0  0
   37.8070   16.1305   -9.0203 C   0  0  0  0  0  0  0  0  0  0  0  0
   38.8798   16.0493   -6.7885 N   0  0  0  0  0  0  0  0  0  0  0  0
   38.0907   16.3710   -5.7481 C   0  0  0  0  0  0  0  0  0  0  0  0
   36.7537   16.1683   -5.5068 C   0  0  0  0  0  0  0  0  0  0  0  0
   36.1449   16.6131   -4.3360 C   0  0  0  0  0  0  0  0  0  0  0  0
   36.8686   17.2814   -3.3655 C   0  0  0  0  0  0  0  0  0  0  0  0
   38.1985   17.4878   -3.5989 C   0  0  0  0  0  0  0  0  0  0  0  0
   38.7856   17.0428   -4.7596 C   0  0  0  0  0  0  0  0  0  0  0  0
   40.0627   17.1464   -5.2082 C   0  0  0  0  0  0  0  0  0  0  0  0
   41.2143   17.7143   -4.6810 C   0  0  0  0  0  0  0  0  0  0  0  0
   41.3860   18.4041   -3.3844 C   0  0  0  0  0  0  0  0  0  0  0  0
   42.7628   18.7820   -3.3630 N   0  0  0  0  0  0  0  0  0  0  0  0
   43.4160   18.3532   -4.5698 C   0  0  0  0  0  0  0  0  0  0  0  0
   44.6161   18.5765   -4.7583 O   0  0  0  0  0  0  0  0  0  0  0  0
   42.4132   17.6877   -5.3723 C   0  0  0  0  0  0  0  0  0  0  0  0
   42.4289   17.0783   -6.6055 C   0  0  0  0  0  0  0  0  0  0  0  0
   43.4196   16.8855   -7.5585 C   0  0  0  0  0  0  0  0  0  0  0  0
   44.7485   17.2093   -7.6329 C   0  0  0  0  0  0  0  0  0  0  0  0
   45.4397   16.8370   -8.7901 C   0  0  0  0  0  0  0  0  0  0  0  0
   44.8410   16.1732   -9.8281 C   0  0  0  0  0  0  0  0  0  0  0  0
   43.5070   15.8553   -9.7383 C   0  0  0  0  0  0  0  0  0  0  0  0
   42.7977   16.2166   -8.5937 C   0  0  0  0  0  0  0  0  0  0  0  0
   41.5214   15.9964   -8.3330 N   0  0  0  0  0  0  0  0  0  0  0  0
   41.2716   16.5109   -7.1269 C   0  0  0  0  0  0  0  0  0  0  0  0
   40.1015   16.5499   -6.4205 C   0  0  0  0  0  0  0  0  0  0  0  0
   43.2111   19.2971   -2.5731 H   0  0  0  0  0  0  0  0  0  0  0  0
   38.3094   14.8966  -12.4704 C   0  0  0  0  0  0  0  0  0  0  0  0
   38.2840   14.8346  -11.0388 N   0  0  0  0  0  0  0  0  0  0  0  0
   37.3380   14.5025  -10.7485 H   0  0  0  0  0  0  0  0  0  0  0  0
   36.5305   15.6639   -9.3753 O   0  0  0  0  0  0  0  0  0  0  0  0
   35.6237   16.6915   -9.1360 C   0  0  0  0  0  0  0  0  0  0  0  0
 33 34  1  0  0  0
 34  1  1  0  0  0
  1  2  1  0  0  0
  2  3  1  0  0  0
  3  4  1  0  0  0
  4  5  1  0  0  0
  5  6  1  0  0  0
  5  7  1  0  0  0
  7 36  1  0  0  0
 36 37  1  0  0  0
  5  8  1  0  0  0
  8  9  1  0  0  0
  9 10  2  0  0  0
 10 11  1  0  0  0
 11 12  2  0  0  0
 12 13  1  0  0  0
 13 14  2  0  0  0
 14 15  1  0  0  0
 15 16  2  0  0  0
 16 17  1  0  0  0
 17 18  1  0  0  0
 18 19  1  0  0  0
 19 20  2  0  0  0
 19 21  1  0  0  0
 21 22  2  0  0  0
 22 23  1  0  0  0
 23 24  2  0  0  0
 24 25  1  0  0  0
 25 26  2  0  0  0
 26 27  1  0  0  0
 27 28  2  0  0  0
 28 29  1  0  0  0
 29 30  1  0  0  0
 30 31  2  0  0  0
  7  1  1  0  0  0
 31  8  1  0  0  0
 29  3  1  0  0  0
 14  9  1  0  0  0
 31 15  1  0  0  0
 21 16  1  0  0  0
 30 22  1  0  0  0
 28 23  1  0  0  0
 34 35  1  0  0  0
 18 32  1  0  0  0
M  END
> <minimizedAffinity>
-5.90069

> <CNNscore>
0.0973789021

> <CNNaffinity>
5.1362638474

> <CNN_VS>
0.5001637340

> <CNNaffinity_variance>
0.2436264753

$$$$
[H]c1c([H])c([H])c2c(c1[H])c1c3c(c4c5c([H])c([H])c([H])c([H])c5n5c4c1n2[C@@]1([H])O[C@]5(C([H])([H])[H])[C@]([H])(OC([H])([H])[H])[C@]([H])(N([H])C([H])([H])[H])C1([H])[H])C([H])([H])N([H])C3=O


 37 44  0  0  0  0  0  0  0  0999 V2000
   45.6957   17.7268  -10.2593 C   0  0  0  0  0  0  0  0  0  0  0  0
   45.2560   17.7423   -8.8440 C   0  0  0  0  0  0  0  0  0  0  0  0
   44.9438   16.3369   -8.4180 C   0  0  0  0  0  0  0  0  0  0  0  0
   44.6705   15.4681   -9.3990 O   0  0  0  0  0  0  0  0  0  0  0  0
   43.9716   15.9124  -10.5247 C   0  0  0  0  0  0  0  0  0  0  0  0
   44.2574   14.7705  -11.5188 C   0  0  0  0  0  0  0  0  0  0  0  0
   44.5107   17.1842  -11.0866 C   0  0  0  0  0  0  0  0  0  0  0  0
   42.5621   15.9496  -10.1827 N   0  0  0  0  0  0  0  0  0  0  0  0
   41.5252   15.7956  -11.0252 C   0  0  0  0  0  0  0  0  0  0  0  0
   41.4603   15.6145  -12.3852 C   0  0  0  0  0  0  0  0  0  0  0  0
   40.2433   15.4900  -13.0505 C   0  0  0  0  0  0  0  0  0  0  0  0
   39.0453   15.5456  -12.3619 C   0  0  0  0  0  0  0  0  0  0  0  0
   39.1018   15.7268  -11.0093 C   0  0  0  0  0  0  0  0  0  0  0  0
   40.3108   15.8479  -10.3663 C   0  0  0  0  0  0  0  0  0  0  0  0
   40.6070   16.0474   -9.0565 C   0  0  0  0  0  0  0  0  0  0  0  0
   39.8298   16.1928   -7.9157 C   0  0  0  0  0  0  0  0  0  0  0  0
   38.3562   16.1564   -7.7991 C   0  0  0  0  0  0  0  0  0  0  0  0
   38.1051   16.3606   -6.4084 N   0  0  0  0  0  0  0  0  0  0  0  0
   39.3443   16.5126   -5.6953 C   0  0  0  0  0  0  0  0  0  0  0  0
   39.3578   16.6978   -4.4742 O   0  0  0  0  0  0  0  0  0  0  0  0
   40.4040   16.4021   -6.6738 C   0  0  0  0  0  0  0  0  0  0  0  0
   41.7766   16.4625   -6.6039 C   0  0  0  0  0  0  0  0  0  0  0  0
   42.6674   16.6699   -5.5597 C   0  0  0  0  0  0  0  0  0  0  0  0
   42.5280   16.8771   -4.2129 C   0  0  0  0  0  0  0  0  0  0  0  0
   43.6950   17.0514   -3.4625 C   0  0  0  0  0  0  0  0  0  0  0  0
   44.9453   17.0218   -4.0214 C   0  0  0  0  0  0  0  0  0  0  0  0
   45.0686   16.8127   -5.3741 C   0  0  0  0  0  0  0  0  0  0  0  0
   43.9185   16.6365   -6.1423 C   0  0  0  0  0  0  0  0  0  0  0  0
   43.8431   16.4257   -7.4443 N   0  0  0  0  0  0  0  0  0  0  0  0
   42.5486   16.3150   -7.7508 C   0  0  0  0  0  0  0  0  0  0  0  0
   41.9542   16.1070   -8.9645 C   0  0  0  0  0  0  0  0  0  0  0  0
   37.1491   16.3924   -5.9897 H   0  0  0  0  0  0  0  0  0  0  0  0
   48.0856   17.7667  -10.6016 C   0  0  0  0  0  0  0  0  0  0  0  0
   46.8861   16.9850  -10.5394 N   0  0  0  0  0  0  0  0  0  0  0  0
   46.7639   16.5104  -11.4611 H   0  0  0  0  0  0  0  0  0  0  0  0
   45.0927   17.0548  -12.3584 O   0  0  0  0  0  0  0  0  0  0  0  0
   44.5306   18.0259  -13.1809 C   0  0  0  0  0  0  0  0  0  0  0  0
 33 34  1  0  0  0
 34  1  1  0  0  0
  1  2  1  0  0  0
  2  3  1  0  0  0
  3  4  1  0  0  0
  4  5  1  0  0  0
  5  6  1  0  0  0
  5  7  1  0  0  0
  7 36  1  0  0  0
 36 37  1  0  0  0
  5  8  1  0  0  0
  8  9  1  0  0  0
  9 10  2  0  0  0
 10 11  1  0  0  0
 11 12  2  0  0  0
 12 13  1  0  0  0
 13 14  2  0  0  0
 14 15  1  0  0  0
 15 16  2  0  0  0
 16 17  1  0  0  0
 17 18  1  0  0  0
 18 19  1  0  0  0
 19 20  2  0  0  0
 19 21  1  0  0  0
 21 22  2  0  0  0
 22 23  1  0  0  0
 23 24  2  0  0  0
 24 25  1  0  0  0
 25 26  2  0  0  0
 26 27  1  0  0  0
 27 28  2  0  0  0
 28 29  1  0  0  0
 29 30  1  0  0  0
 30 31  2  0  0  0
  7  1  1  0  0  0
 31  8  1  0  0  0
 29  3  1  0  0  0
 14  9  1  0  0  0
 31 15  1  0  0  0
 21 16  1  0  0  0
 30 22  1  0  0  0
 28 23  1  0  0  0
 34 35  1  0  0  0
 18 32  1  0  0  0
M  END
> <minimizedAffinity>
-5.65043

> <CNNscore>
0.0882929713

> <CNNaffinity>
5.0549921989

> <CNN_VS>
0.4463202953

> <CNNaffinity_variance>
0.4362843037

$$$$
[H]c1nc(N([H])c2c([H])c(N([H])C(=O)c3c([H])c([H])c(C([H])([H])N4C([H])([H])C([H])([H])N(C([H])([H])[H])C([H])([H])C4([H])[H])c([H])c3[H])c([H])c([H])c2C([H])([H])[H])nc(-c2c([H])nc([H])c([H])c2[H])c1[H]


 39 43  0  0  0  0  0  0  0  0999 V2000
   42.2447   13.7966  -14.1110 C   0  0  0  0  0  0  0  0  0  0  0  0
   43.6134   13.7196  -14.0186 C   0  0  0  0  0  0  0  0  0  0  0  0
   44.3636   13.1331  -15.0346 C   0  0  0  0  0  0  0  0  0  0  0  0
   43.8006   12.6093  -16.1623 C   0  0  0  0  0  0  0  0  0  0  0  0
   44.6703   11.9952  -17.2119 C   0  0  0  0  0  0  0  0  0  0  0  0
   42.4053   12.6695  -16.2937 C   0  0  0  0  0  0  0  0  0  0  0  0
   41.6821   13.2494  -15.2851 C   0  0  0  0  0  0  0  0  0  0  0  0
   40.1760   14.9984  -13.3557 C   0  0  0  0  0  0  0  0  0  0  0  0
   39.6770   15.1732  -14.4917 O   0  0  0  0  0  0  0  0  0  0  0  0
   41.3966   14.3528  -13.1229 N   0  0  0  0  0  0  0  0  0  0  0  0
   41.7442   14.2543  -12.1176 H   0  0  0  0  0  0  0  0  0  0  0  0
   37.8425   16.5097  -10.1861 C   0  0  0  0  0  0  0  0  0  0  0  0
   39.2024   16.7201  -10.2084 C   0  0  0  0  0  0  0  0  0  0  0  0
   39.9932   16.2319  -11.2373 C   0  0  0  0  0  0  0  0  0  0  0  0
   39.3807   15.5280  -12.2412 C   0  0  0  0  0  0  0  0  0  0  0  0
   38.0132   15.3282  -12.1988 C   0  0  0  0  0  0  0  0  0  0  0  0
   37.2190   15.8058  -11.1865 C   0  0  0  0  0  0  0  0  0  0  0  0
   37.0774   17.0758   -9.0512 C   0  0  0  0  0  0  0  0  0  0  0  0
   36.4705   21.4588   -6.3440 C   0  0  0  0  0  0  0  0  0  0  0  0
   36.4484   20.5946   -7.5083 N   0  0  0  0  0  0  0  0  0  0  0  0
   35.9972   19.2567   -7.1723 C   0  0  0  0  0  0  0  0  0  0  0  0
   37.2378   18.3963   -7.0645 C   0  0  0  0  0  0  0  0  0  0  0  0
   37.8192   18.1461   -8.3943 N   0  0  0  0  0  0  0  0  0  0  0  0
   37.7103   19.3849   -9.1638 C   0  0  0  0  0  0  0  0  0  0  0  0
   37.7088   20.5676   -8.1965 C   0  0  0  0  0  0  0  0  0  0  0  0
   41.8535   12.1259  -17.4556 N   0  0  0  0  0  0  0  0  0  0  0  0
   42.5449   11.9670  -18.2794 H   0  0  0  0  0  0  0  0  0  0  0  0
   40.5332   11.7384  -17.7561 C   0  0  0  0  0  0  0  0  0  0  0  0
   40.2709   11.1453  -18.9688 N   0  0  0  0  0  0  0  0  0  0  0  0
   39.0780   10.7420  -19.3613 C   0  0  0  0  0  0  0  0  0  0  0  0
   37.9849   10.9131  -18.5137 C   0  0  0  0  0  0  0  0  0  0  0  0
   38.2295   11.5060  -17.2942 C   0  0  0  0  0  0  0  0  0  0  0  0
   39.4770   11.8891  -16.9702 N   0  0  0  0  0  0  0  0  0  0  0  0
   37.1135   11.7146  -16.3531 C   0  0  0  0  0  0  0  0  0  0  0  0
   37.3164   12.2483  -15.1009 C   0  0  0  0  0  0  0  0  0  0  0  0
   36.2436   12.4292  -14.2466 C   0  0  0  0  0  0  0  0  0  0  0  0
   34.9723   12.0866  -14.6205 C   0  0  0  0  0  0  0  0  0  0  0  0
   34.7781   11.5723  -15.8276 N   0  0  0  0  0  0  0  0  0  0  0  0
   35.8275   11.3850  -16.6894 C   0  0  0  0  0  0  0  0  0  0  0  0
 19 20  1  0  0  0
 20 21  1  0  0  0
 21 22  1  0  0  0
 22 23  1  0  0  0
 23 18  1  0  0  0
 18 12  1  0  0  0
 12 13  2  0  0  0
 13 14  1  0  0  0
 14 15  2  0  0  0
 15 16  1  0  0  0
 16 17  2  0  0  0
 15  8  1  0  0  0
  8  9  2  0  0  0
  8 10  1  0  0  0
 10  1  1  0  0  0
  1  2  2  0  0  0
  2  3  1  0  0  0
  3  4  2  0  0  0
  4  5  1  0  0  0
  4  6  1  0  0  0
  6 26  1  0  0  0
 26 28  1  0  0  0
 28 29  2  0  0  0
 29 30  1  0  0  0
 30 31  2  0  0  0
 31 32  1  0  0  0
 32 33  2  0  0  0
 32 34  1  0  0  0
 34 35  2  0  0  0
 35 36  1  0  0  0
 36 37  2  0  0  0
 37 38  1  0  0  0
 38 39  2  0  0  0
  6  7  2  0  0  0
 23 24  1  0  0  0
 24 25  1  0  0  0
 25 20  1  0  0  0
 17 12  1  0  0  0
  7  1  1  0  0  0
 33 28  1  0  0  0
 39 34  1  0  0  0
 10 11  1  0  0  0
 26 27  1  0  0  0
M  END
> <minimizedAffinity>
-10.82367

> <CNNscore>
0.9635401368

> <CNNaffinity>
7.7593865395

> <CNN_VS>
7.4764804840

> <CNNaffinity_variance>
0.0343256593

$$$$
[H]c1nc(N([H])c2c([H])c(N([H])C(=O)c3c([H])c([H])c(C([H])([H])N4C([H])([H])C([H])([H])N(C([H])([H])[H])C([H])([H])C4([H])[H])c([H])c3[H])c([H])c([H])c2C([H])([H])[H])nc(-c2c([H])nc([H])c([H])c2[H])c1[H]


 39 43  0  0  0  0  0  0  0  0999 V2000
   42.6991   14.0422  -13.5517 C   0  0  0  0  0  0  0  0  0  0  0  0
   44.0669   13.9271  -13.4914 C   0  0  0  0  0  0  0  0  0  0  0  0
   44.7842   13.3934  -14.5589 C   0  0  0  0  0  0  0  0  0  0  0  0
   44.1885   12.9603  -15.7081 C   0  0  0  0  0  0  0  0  0  0  0  0
   45.0239   12.3985  -16.8134 C   0  0  0  0  0  0  0  0  0  0  0  0
   42.7929   13.0617  -15.8078 C   0  0  0  0  0  0  0  0  0  0  0  0
   42.1024   13.5888  -14.7487 C   0  0  0  0  0  0  0  0  0  0  0  0
   40.7141   15.3032  -12.6778 C   0  0  0  0  0  0  0  0  0  0  0  0
   40.2409   15.6338  -13.7900 O   0  0  0  0  0  0  0  0  0  0  0  0
   41.8827   14.5498  -12.5121 N   0  0  0  0  0  0  0  0  0  0  0  0
   42.2118   14.3198  -11.5221 H   0  0  0  0  0  0  0  0  0  0  0  0
   38.5609   16.6341   -9.3062 C   0  0  0  0  0  0  0  0  0  0  0  0
   37.8937   16.1764  -10.4194 C   0  0  0  0  0  0  0  0  0  0  0  0
   38.5772   15.7356  -11.5422 C   0  0  0  0  0  0  0  0  0  0  0  0
   39.9471   15.7672  -11.5152 C   0  0  0  0  0  0  0  0  0  0  0  0
   40.5972   16.2310  -10.3864 C   0  0  0  0  0  0  0  0  0  0  0  0
   39.9329   16.6701   -9.2687 C   0  0  0  0  0  0  0  0  0  0  0  0
   37.7475   17.0771   -8.1503 C   0  0  0  0  0  0  0  0  0  0  0  0
   36.5675   21.9987   -7.0130 C   0  0  0  0  0  0  0  0  0  0  0  0
   36.6386   20.5635   -6.8183 N   0  0  0  0  0  0  0  0  0  0  0  0
   37.9026   20.0231   -7.2838 C   0  0  0  0  0  0  0  0  0  0  0  0
   37.6379   19.4140   -8.6439 C   0  0  0  0  0  0  0  0  0  0  0  0
   36.8567   18.1718   -8.5187 N   0  0  0  0  0  0  0  0  0  0  0  0
   35.8549   18.3837   -7.4746 C   0  0  0  0  0  0  0  0  0  0  0  0
   35.5236   19.8735   -7.4044 C   0  0  0  0  0  0  0  0  0  0  0  0
   42.2072   12.6110  -16.9927 N   0  0  0  0  0  0  0  0  0  0  0  0
   42.8400   12.6421  -17.8761 H   0  0  0  0  0  0  0  0  0  0  0  0
   40.9157   12.1125  -17.2520 C   0  0  0  0  0  0  0  0  0  0  0  0
   40.6820   11.4446  -18.4312 N   0  0  0  0  0  0  0  0  0  0  0  0
   39.5175   10.9355  -18.7838 C   0  0  0  0  0  0  0  0  0  0  0  0
   38.4265   11.0647  -17.9262 C   0  0  0  0  0  0  0  0  0  0  0  0
   38.6426   11.7313  -16.7399 C   0  0  0  0  0  0  0  0  0  0  0  0
   39.8622   12.2212  -16.4557 N   0  0  0  0  0  0  0  0  0  0  0  0
   37.5273   11.9006  -15.7902 C   0  0  0  0  0  0  0  0  0  0  0  0
   36.2206   11.9675  -16.2172 C   0  0  0  0  0  0  0  0  0  0  0  0
   35.2016   12.1263  -15.2954 C   0  0  0  0  0  0  0  0  0  0  0  0
   35.4641   12.2195  -13.9553 C   0  0  0  0  0  0  0  0  0  0  0  0
   36.7238   12.1548  -13.5452 N   0  0  0  0  0  0  0  0  0  0  0  0
   37.7483   11.9976  -14.4422 C   0  0  0  0  0  0  0  0  0  0  0  0
 19 20  1  0  0  0
 20 21  1  0  0  0
 21 22  1  0  0  0
 22 23  1  0  0  0
 23 18  1  0  0  0
 18 12  1  0  0  0
 12 13  2  0  0  0
 13 14  1  0  0  0
 14 15  2  0  0  0
 15 16  1  0  0  0
 16 17  2  0  0  0
 15  8  1  0  0  0
  8  9  2  0  0  0
  8 10  1  0  0  0
 10  1  1  0  0  0
  1  2  2  0  0  0
  2  3  1  0  0  0
  3  4  2  0  0  0
  4  5  1  0  0  0
  4  6  1  0  0  0
  6 26  1  0  0  0
 26 28  1  0  0  0
 28 29  2  0  0  0
 29 30  1  0  0  0
 30 31  2  0  0  0
 31 32  1  0  0  0
 32 33  2  0  0  0
 32 34  1  0  0  0
 34 35  2  0  0  0
 35 36  1  0  0  0
 36 37  2  0  0  0
 37 38  1  0  0  0
 38 39  2  0  0  0
  6  7  2  0  0  0
 23 24  1  0  0  0
 24 25  1  0  0  0
 25 20  1  0  0  0
 17 12  1  0  0  0
  7  1  1  0  0  0
 33 28  1  0  0  0
 39 34  1  0  0  0
 10 11  1  0  0  0
 26 27  1  0  0  0
M  END
> <minimizedAffinity>
-10.05002

> <CNNscore>
0.9316550493

> <CNNaffinity>
7.6434087753

> <CNN_VS>
7.1210203171

> <CNNaffinity_variance>
0.0507702604

$$$$
[H]c1nc(N([H])c2c([H])c(N([H])C(=O)c3c([H])c([H])c(C([H])([H])N4C([H])([H])C([H])([H])N(C([H])([H])[H])C([H])([H])C4([H])[H])c([H])c3[H])c([H])c([H])c2C([H])([H])[H])nc(-c2c([H])nc([H])c([H])c2[H])c1[H]


 39 43  0  0  0  0  0  0  0  0999 V2000
   42.2169   13.8119  -14.0808 C   0  0  0  0  0  0  0  0  0  0  0  0
   43.5875   13.7958  -13.9859 C   0  0  0  0  0  0  0  0  0  0  0  0
   44.3647   13.2402  -14.9989 C   0  0  0  0  0  0  0  0  0  0  0  0
   43.8276   12.6887  -16.1259 C   0  0  0  0  0  0  0  0  0  0  0  0
   44.7255   12.1106  -17.1723 C   0  0  0  0  0  0  0  0  0  0  0  0
   42.4312   12.6865  -16.2598 C   0  0  0  0  0  0  0  0  0  0  0  0
   41.6812   13.2368  -15.2542 C   0  0  0  0  0  0  0  0  0  0  0  0
   40.1324   14.9935  -13.3372 C   0  0  0  0  0  0  0  0  0  0  0  0
   39.6668   15.2160  -14.4790 O   0  0  0  0  0  0  0  0  0  0  0  0
   41.3432   14.3328  -13.0958 N   0  0  0  0  0  0  0  0  0  0  0  0
   41.6615   14.1926  -12.0857 H   0  0  0  0  0  0  0  0  0  0  0  0
   37.8133   16.4075  -10.1126 C   0  0  0  0  0  0  0  0  0  0  0  0
   37.2179   15.7253  -11.1490 C   0  0  0  0  0  0  0  0  0  0  0  0
   37.9567   15.2520  -12.2225 C   0  0  0  0  0  0  0  0  0  0  0  0
   39.3078   15.4826  -12.2255 C   0  0  0  0  0  0  0  0  0  0  0  0
   39.8853   16.1702  -11.1740 C   0  0  0  0  0  0  0  0  0  0  0  0
   39.1658   16.6441  -10.1058 C   0  0  0  0  0  0  0  0  0  0  0  0
   36.9458   16.8685   -9.0041 C   0  0  0  0  0  0  0  0  0  0  0  0
   35.3073   13.6236   -5.3035 C   0  0  0  0  0  0  0  0  0  0  0  0
   35.3591   14.8482   -6.0784 N   0  0  0  0  0  0  0  0  0  0  0  0
   35.5597   14.5791   -7.4904 C   0  0  0  0  0  0  0  0  0  0  0  0
   37.0270   14.8207   -7.7725 C   0  0  0  0  0  0  0  0  0  0  0  0
   37.3372   16.2601   -7.7376 N   0  0  0  0  0  0  0  0  0  0  0  0
   36.5771   16.8488   -6.6358 C   0  0  0  0  0  0  0  0  0  0  0  0
   36.3338   15.7757   -5.5758 C   0  0  0  0  0  0  0  0  0  0  0  0
   41.9061   12.1156  -17.4210 N   0  0  0  0  0  0  0  0  0  0  0  0
   42.6173   11.9315  -18.2223 H   0  0  0  0  0  0  0  0  0  0  0  0
   40.5916   11.7275  -17.7453 C   0  0  0  0  0  0  0  0  0  0  0  0
   40.3521   11.1311  -18.9610 N   0  0  0  0  0  0  0  0  0  0  0  0
   39.1667   10.7270  -19.3748 C   0  0  0  0  0  0  0  0  0  0  0  0
   38.0579   10.9005  -18.5484 C   0  0  0  0  0  0  0  0  0  0  0  0
   38.2795   11.4966  -17.3261 C   0  0  0  0  0  0  0  0  0  0  0  0
   39.5208   11.8805  -16.9797 N   0  0  0  0  0  0  0  0  0  0  0  0
   37.1461   11.7079  -16.4068 C   0  0  0  0  0  0  0  0  0  0  0  0
   37.3197   12.2819  -15.1680 C   0  0  0  0  0  0  0  0  0  0  0  0
   36.2312   12.4639  -14.3341 C   0  0  0  0  0  0  0  0  0  0  0  0
   34.9730   12.0829  -14.7151 C   0  0  0  0  0  0  0  0  0  0  0  0
   34.8071   11.5299  -15.9091 N   0  0  0  0  0  0  0  0  0  0  0  0
   35.8724   11.3407  -16.7507 C   0  0  0  0  0  0  0  0  0  0  0  0
 19 20  1  0  0  0
 20 21  1  0  0  0
 21 22  1  0  0  0
 22 23  1  0  0  0
 23 18  1  0  0  0
 18 12  1  0  0  0
 12 13  2  0  0  0
 13 14  1  0  0  0
 14 15  2  0  0  0
 15 16  1  0  0  0
 16 17  2  0  0  0
 15  8  1  0  0  0
  8  9  2  0  0  0
  8 10  1  0  0  0
 10  1  1  0  0  0
  1  2  2  0  0  0
  2  3  1  0  0  0
  3  4  2  0  0  0
  4  5  1  0  0  0
  4  6  1  0  0  0
  6 26  1  0  0  0
 26 28  1  0  0  0
 28 29  2  0  0  0
 29 30  1  0  0  0
 30 31  2  0  0  0
 31 32  1  0  0  0
 32 33  2  0  0  0
 32 34  1  0  0  0
 34 35  2  0  0  0
 35 36  1  0  0  0
 36 37  2  0  0  0
 37 38  1  0  0  0
 38 39  2  0  0  0
  6  7  2  0  0  0
 23 24  1  0  0  0
 24 25  1  0  0  0
 25 20  1  0  0  0
 17 12  1  0  0  0
  7  1  1  0  0  0
 33 28  1  0  0  0
 39 34  1  0  0  0
 10 11  1  0  0  0
 26 27  1  0  0  0
M  END
> <minimizedAffinity>
-10.55061

> <CNNscore>
0.9283679724

> <CNNaffinity>
7.6789259911

> <CNN_VS>
7.1288690567

> <CNNaffinity_variance>
0.0073105814

$$$$
[H]c1nc(N([H])c2c([H])c(N([H])C(=O)c3c([H])c([H])c(C([H])([H])N4C([H])([H])C([H])([H])N(C([H])([H])[H])C([H])([H])C4([H])[H])c([H])c3[H])c([H])c([H])c2C([H])([H])[H])nc(-c2c([H])nc([H])c([H])c2[H])c1[H]


 39 43  0  0  0  0  0  0  0  0999 V2000
   42.8726   13.9059  -13.3850 C   0  0  0  0  0  0  0  0  0  0  0  0
   44.2388   13.7679  -13.4309 C   0  0  0  0  0  0  0  0  0  0  0  0
   44.8671   13.2815  -14.5744 C   0  0  0  0  0  0  0  0  0  0  0  0
   44.1821   12.9191  -15.6980 C   0  0  0  0  0  0  0  0  0  0  0  0
   44.9250   12.4050  -16.8892 C   0  0  0  0  0  0  0  0  0  0  0  0
   42.7851   13.0461  -15.6901 C   0  0  0  0  0  0  0  0  0  0  0  0
   42.1827   13.5259  -14.5572 C   0  0  0  0  0  0  0  0  0  0  0  0
   41.3370   15.5136  -12.2224 C   0  0  0  0  0  0  0  0  0  0  0  0
   41.1645   16.2888  -13.1917 O   0  0  0  0  0  0  0  0  0  0  0  0
   42.1429   14.3692  -12.2635 N   0  0  0  0  0  0  0  0  0  0  0  0
   42.2328   13.7702  -11.3835 H   0  0  0  0  0  0  0  0  0  0  0  0
   39.2314   16.5871   -8.7311 C   0  0  0  0  0  0  0  0  0  0  0  0
   40.6072   16.6150   -8.7480 C   0  0  0  0  0  0  0  0  0  0  0  0
   41.3241   16.2645   -9.8818 C   0  0  0  0  0  0  0  0  0  0  0  0
   40.6213   15.8860  -10.9959 C   0  0  0  0  0  0  0  0  0  0  0  0
   39.2394   15.8650  -10.9569 C   0  0  0  0  0  0  0  0  0  0  0  0
   38.5177   16.2093   -9.8415 C   0  0  0  0  0  0  0  0  0  0  0  0
   38.5505   16.9862   -7.4776 C   0  0  0  0  0  0  0  0  0  0  0  0
   41.8649   16.3661   -3.5357 C   0  0  0  0  0  0  0  0  0  0  0  0
   41.4266   16.4102   -4.9173 N   0  0  0  0  0  0  0  0  0  0  0  0
   40.4896   17.4947   -5.1464 C   0  0  0  0  0  0  0  0  0  0  0  0
   39.1076   16.8776   -5.1550 C   0  0  0  0  0  0  0  0  0  0  0  0
   38.8937   16.0888   -6.3802 N   0  0  0  0  0  0  0  0  0  0  0  0
   40.1399   15.3822   -6.6735 C   0  0  0  0  0  0  0  0  0  0  0  0
   40.8963   15.1531   -5.3659 C   0  0  0  0  0  0  0  0  0  0  0  0
   42.1071   12.6678  -16.8508 N   0  0  0  0  0  0  0  0  0  0  0  0
   42.6606   12.7773  -17.7801 H   0  0  0  0  0  0  0  0  0  0  0  0
   40.8070   12.1587  -17.0355 C   0  0  0  0  0  0  0  0  0  0  0  0
   40.5183   11.4665  -18.1882 N   0  0  0  0  0  0  0  0  0  0  0  0
   39.3404   10.9455  -18.4722 C   0  0  0  0  0  0  0  0  0  0  0  0
   38.2928   11.0871  -17.5639 C   0  0  0  0  0  0  0  0  0  0  0  0
   38.5643   11.7781  -16.4031 C   0  0  0  0  0  0  0  0  0  0  0  0
   39.7939   12.2788  -16.1899 N   0  0  0  0  0  0  0  0  0  0  0  0
   37.4967   11.9615  -15.4025 C   0  0  0  0  0  0  0  0  0  0  0  0
   37.7758   12.0456  -14.0575 C   0  0  0  0  0  0  0  0  0  0  0  0
   36.7467   12.2182  -13.1495 C   0  0  0  0  0  0  0  0  0  0  0  0
   35.4443   12.3083  -13.5607 C   0  0  0  0  0  0  0  0  0  0  0  0
   35.1767   12.2272  -14.8572 N   0  0  0  0  0  0  0  0  0  0  0  0
   36.1818   12.0562  -15.7734 C   0  0  0  0  0  0  0  0  0  0  0  0
 19 20  1  0  0  0
 20 21  1  0  0  0
 21 22  1  0  0  0
 22 23  1  0  0  0
 23 18  1  0  0  0
 18 12  1  0  0  0
 12 13  2  0  0  0
 13 14  1  0  0  0
 14 15  2  0  0  0
 15 16  1  0  0  0
 16 17  2  0  0  0
 15  8  1  0  0  0
  8  9  2  0  0  0
  8 10  1  0  0  0
 10  1  1  0  0  0
  1  2  2  0  0  0
  2  3  1  0  0  0
  3  4  2  0  0  0
  4  5  1  0  0  0
  4  6  1  0  0  0
  6 26  1  0  0  0
 26 28  1  0  0  0
 28 29  2  0  0  0
 29 30  1  0  0  0
 30 31  2  0  0  0
 31 32  1  0  0  0
 32 33  2  0  0  0
 32 34  1  0  0  0
 34 35  2  0  0  0
 35 36  1  0  0  0
 36 37  2  0  0  0
 37 38  1  0  0  0
 38 39  2  0  0  0
  6  7  2  0  0  0
 23 24  1  0  0  0
 24 25  1  0  0  0
 25 20  1  0  0  0
 17 12  1  0  0  0
  7  1  1  0  0  0
 33 28  1  0  0  0
 39 34  1  0  0  0
 10 11  1  0  0  0
 26 27  1  0  0  0
M  END
> <minimizedAffinity>
-9.25576

> <CNNscore>
0.8305461407

> <CNNaffinity>
7.3989396095

> <CNN_VS>
6.1451606750

> <CNNaffinity_variance>
0.0572144166

$$$$
[H]c1nc(N([H])c2c([H])c(N([H])C(=O)c3c([H])c([H])c(C([H])([H])N4C([H])([H])C([H])([H])N(C([H])([H])[H])C([H])([H])C4([H])[H])c([H])c3[H])c([H])c([H])c2C([H])([H])[H])nc(-c2c([H])nc([H])c([H])c2[H])c1[H]


 39 43  0  0  0  0  0  0  0  0999 V2000
   42.9708   13.8800  -13.3311 C   0  0  0  0  0  0  0  0  0  0  0  0
   44.3337   13.7280  -13.4167 C   0  0  0  0  0  0  0  0  0  0  0  0
   44.9265   13.2696  -14.5904 C   0  0  0  0  0  0  0  0  0  0  0  0
   44.2085   12.9495  -15.7062 C   0  0  0  0  0  0  0  0  0  0  0  0
   44.9143   12.4635  -16.9313 C   0  0  0  0  0  0  0  0  0  0  0  0
   42.8138   13.0920  -15.6581 C   0  0  0  0  0  0  0  0  0  0  0  0
   42.2465   13.5438  -14.4960 C   0  0  0  0  0  0  0  0  0  0  0  0
   41.7592   15.6013  -11.9661 C   0  0  0  0  0  0  0  0  0  0  0  0
   41.8568   16.5436  -12.7862 O   0  0  0  0  0  0  0  0  0  0  0  0
   42.2758   14.3171  -12.1775 N   0  0  0  0  0  0  0  0  0  0  0  0
   42.1472   13.5780  -11.4169 H   0  0  0  0  0  0  0  0  0  0  0  0
   39.6772   16.5807   -8.4331 C   0  0  0  0  0  0  0  0  0  0  0  0
   40.9288   16.0122   -8.3662 C   0  0  0  0  0  0  0  0  0  0  0  0
   41.6338   15.6781   -9.5123 C   0  0  0  0  0  0  0  0  0  0  0  0
   41.0475   15.9308  -10.7251 C   0  0  0  0  0  0  0  0  0  0  0  0
   39.7893   16.5025  -10.7692 C   0  0  0  0  0  0  0  0  0  0  0  0
   39.0808   16.8378   -9.6428 C   0  0  0  0  0  0  0  0  0  0  0  0
   39.0028   16.9116   -7.1566 C   0  0  0  0  0  0  0  0  0  0  0  0
   36.0073   14.1260   -3.9666 C   0  0  0  0  0  0  0  0  0  0  0  0
   36.7626   15.2762   -4.4243 N   0  0  0  0  0  0  0  0  0  0  0  0
   36.6150   15.4781   -5.8539 C   0  0  0  0  0  0  0  0  0  0  0  0
   37.8620   14.9151   -6.5012 C   0  0  0  0  0  0  0  0  0  0  0  0
   39.0250   15.7794   -6.2374 N   0  0  0  0  0  0  0  0  0  0  0  0
   38.9236   16.2462   -4.8552 C   0  0  0  0  0  0  0  0  0  0  0  0
   38.1455   15.2131   -4.0418 C   0  0  0  0  0  0  0  0  0  0  0  0
   42.1017   12.7571  -16.8117 N   0  0  0  0  0  0  0  0  0  0  0  0
   42.6167   12.9293  -17.7535 H   0  0  0  0  0  0  0  0  0  0  0  0
   40.8082   12.2243  -16.9755 C   0  0  0  0  0  0  0  0  0  0  0  0
   40.5149   11.5233  -18.1216 N   0  0  0  0  0  0  0  0  0  0  0  0
   39.3424   10.9805  -18.3865 C   0  0  0  0  0  0  0  0  0  0  0  0
   38.3061   11.1064  -17.4632 C   0  0  0  0  0  0  0  0  0  0  0  0
   38.5823   11.8059  -16.3086 C   0  0  0  0  0  0  0  0  0  0  0  0
   39.8058   12.3291  -16.1152 N   0  0  0  0  0  0  0  0  0  0  0  0
   37.5266   11.9735  -15.2928 C   0  0  0  0  0  0  0  0  0  0  0  0
   36.2153   12.1968  -15.6457 C   0  0  0  0  0  0  0  0  0  0  0  0
   35.2533   12.3485  -14.6634 C   0  0  0  0  0  0  0  0  0  0  0  0
   35.5776   12.2812  -13.3353 C   0  0  0  0  0  0  0  0  0  0  0  0
   36.8417   12.0660  -12.9966 N   0  0  0  0  0  0  0  0  0  0  0  0
   37.8103   11.9129  -13.9544 C   0  0  0  0  0  0  0  0  0  0  0  0
 19 20  1  0  0  0
 20 21  1  0  0  0
 21 22  1  0  0  0
 22 23  1  0  0  0
 23 18  1  0  0  0
 18 12  1  0  0  0
 12 13  2  0  0  0
 13 14  1  0  0  0
 14 15  2  0  0  0
 15 16  1  0  0  0
 16 17  2  0  0  0
 15  8  1  0  0  0
  8  9  2  0  0  0
  8 10  1  0  0  0
 10  1  1  0  0  0
  1  2  2  0  0  0
  2  3  1  0  0  0
  3  4  2  0  0  0
  4  5  1  0  0  0
  4  6  1  0  0  0
  6 26  1  0  0  0
 26 28  1  0  0  0
 28 29  2  0  0  0
 29 30  1  0  0  0
 30 31  2  0  0  0
 31 32  1  0  0  0
 32 33  2  0  0  0
 32 34  1  0  0  0
 34 35  2  0  0  0
 35 36  1  0  0  0
 36 37  2  0  0  0
 37 38  1  0  0  0
 38 39  2  0  0  0
  6  7  2  0  0  0
 23 24  1  0  0  0
 24 25  1  0  0  0
 25 20  1  0  0  0
 17 12  1  0  0  0
  7  1  1  0  0  0
 33 28  1  0  0  0
 39 34  1  0  0  0
 10 11  1  0  0  0
 26 27  1  0  0  0
M  END
> <minimizedAffinity>
-9.91766

> <CNNscore>
0.6827053428

> <CNNaffinity>
7.2656965256

> <CNN_VS>
4.9603300095

> <CNNaffinity_variance>
0.0701593161

$$$$
[H]c1nc(N([H])c2c([H])c(N([H])C(=O)c3c([H])c([H])c(C([H])([H])N4C([H])([H])C([H])([H])N(C([H])([H])[H])C([H])([H])C4([H])[H])c([H])c3[H])c([H])c([H])c2C([H])([H])[H])nc(-c2c([H])nc([H])c([H])c2[H])c1[H]


 39 43  0  0  0  0  0  0  0  0999 V2000
   37.4448   15.0064  -12.1380 C   0  0  0  0  0  0  0  0  0  0  0  0
   36.7940   15.9269  -11.3526 C   0  0  0  0  0  0  0  0  0  0  0  0
   35.4031   15.9878  -11.3311 C   0  0  0  0  0  0  0  0  0  0  0  0
   34.6143   15.1556  -12.0716 C   0  0  0  0  0  0  0  0  0  0  0  0
   33.1262   15.2793  -11.9972 C   0  0  0  0  0  0  0  0  0  0  0  0
   35.2419   14.2015  -12.8861 C   0  0  0  0  0  0  0  0  0  0  0  0
   36.6109   14.1550  -12.8959 C   0  0  0  0  0  0  0  0  0  0  0  0
   39.5988   14.9762  -13.4239 C   0  0  0  0  0  0  0  0  0  0  0  0
   39.1037   15.1788  -14.5570 O   0  0  0  0  0  0  0  0  0  0  0  0
   38.8514   14.8824  -12.2435 N   0  0  0  0  0  0  0  0  0  0  0  0
   39.3623   14.7032  -11.3227 H   0  0  0  0  0  0  0  0  0  0  0  0
   43.8000   14.6317  -13.3396 C   0  0  0  0  0  0  0  0  0  0  0  0
   43.0425   13.7171  -14.0352 C   0  0  0  0  0  0  0  0  0  0  0  0
   41.6595   13.8058  -14.0769 C   0  0  0  0  0  0  0  0  0  0  0  0
   41.0601   14.8370  -13.4019 C   0  0  0  0  0  0  0  0  0  0  0  0
   41.8403   15.7446  -12.7095 C   0  0  0  0  0  0  0  0  0  0  0  0
   43.2097   15.6683  -12.6599 C   0  0  0  0  0  0  0  0  0  0  0  0
   45.2713   14.4621  -13.3580 C   0  0  0  0  0  0  0  0  0  0  0  0
   48.9655   11.9697  -10.7030 C   0  0  0  0  0  0  0  0  0  0  0  0
   47.7449   12.1213  -11.4711 N   0  0  0  0  0  0  0  0  0  0  0  0
   47.9002   13.0967  -12.5344 C   0  0  0  0  0  0  0  0  0  0  0  0
   47.2652   14.3790  -12.0411 C   0  0  0  0  0  0  0  0  0  0  0  0
   45.7975   14.2598  -12.0128 N   0  0  0  0  0  0  0  0  0  0  0  0
   45.4729   12.9152  -11.5381 C   0  0  0  0  0  0  0  0  0  0  0  0
   46.6090   12.4203  -10.6444 C   0  0  0  0  0  0  0  0  0  0  0  0
   34.4134   13.3628  -13.6347 N   0  0  0  0  0  0  0  0  0  0  0  0
   33.3651   13.3520  -13.3467 H   0  0  0  0  0  0  0  0  0  0  0  0
   34.7002   12.5112  -14.7191 C   0  0  0  0  0  0  0  0  0  0  0  0
   33.6925   11.7371  -15.2450 N   0  0  0  0  0  0  0  0  0  0  0  0
   33.8404   10.9038  -16.2567 C   0  0  0  0  0  0  0  0  0  0  0  0
   35.0907   10.7736  -16.8585 C   0  0  0  0  0  0  0  0  0  0  0  0
   36.1123   11.5419  -16.3442 C   0  0  0  0  0  0  0  0  0  0  0  0
   35.8779   12.3679  -15.3094 N   0  0  0  0  0  0  0  0  0  0  0  0
   37.4588   11.4486  -16.9382 C   0  0  0  0  0  0  0  0  0  0  0  0
   38.5483   12.0531  -16.3536 C   0  0  0  0  0  0  0  0  0  0  0  0
   39.7956   11.9423  -16.9411 C   0  0  0  0  0  0  0  0  0  0  0  0
   39.9742   11.2389  -18.1017 C   0  0  0  0  0  0  0  0  0  0  0  0
   38.9235   10.6569  -18.6640 N   0  0  0  0  0  0  0  0  0  0  0  0
   37.6788   10.7544  -18.0980 C   0  0  0  0  0  0  0  0  0  0  0  0
 19 20  1  0  0  0
 20 21  1  0  0  0
 21 22  1  0  0  0
 22 23  1  0  0  0
 23 18  1  0  0  0
 18 12  1  0  0  0
 12 13  2  0  0  0
 13 14  1  0  0  0
 14 15  2  0  0  0
 15 16  1  0  0  0
 16 17  2  0  0  0
 15  8  1  0  0  0
  8  9  2  0  0  0
  8 10  1  0  0  0
 10  1  1  0  0  0
  1  2  2  0  0  0
  2  3  1  0  0  0
  3  4  2  0  0  0
  4  5  1  0  0  0
  4  6  1  0  0  0
  6 26  1  0  0  0
 26 28  1  0  0  0
 28 29  2  0  0  0
 29 30  1  0  0  0
 30 31  2  0  0  0
 31 32  1  0  0  0
 32 33  2  0  0  0
 32 34  1  0  0  0
 34 35  2  0  0  0
 35 36  1  0  0  0
 36 37  2  0  0  0
 37 38  1  0  0  0
 38 39  2  0  0  0
  6  7  2  0  0  0
 23 24  1  0  0  0
 24 25  1  0  0  0
 25 20  1  0  0  0
 17 12  1  0  0  0
  7  1  1  0  0  0
 33 28  1  0  0  0
 39 34  1  0  0  0
 10 11  1  0  0  0
 26 27  1  0  0  0
M  END
> <minimizedAffinity>
-9.76961

> <CNNscore>
0.4859800637

> <CNNaffinity>
7.3147125244

> <CNN_VS>
3.5548045635

> <CNNaffinity_variance>
0.0848214179

$$$$
[H]c1nc(N([H])c2c([H])c(N([H])C(=O)c3c([H])c([H])c(C([H])([H])N4C([H])([H])C([H])([H])N(C([H])([H])[H])C([H])([H])C4([H])[H])c([H])c3[H])c([H])c([H])c2C([H])([H])[H])nc(-c2c([H])nc([H])c([H])c2[H])c1[H]


 39 43  0  0  0  0  0  0  0  0999 V2000
   37.5580   15.1096  -11.9946 C   0  0  0  0  0  0  0  0  0  0  0  0
   36.8029   16.1263  -11.4616 C   0  0  0  0  0  0  0  0  0  0  0  0
   35.4119   16.0698  -11.4894 C   0  0  0  0  0  0  0  0  0  0  0  0
   34.7243   15.0246  -12.0351 C   0  0  0  0  0  0  0  0  0  0  0  0
   33.2293   15.0328  -12.0286 C   0  0  0  0  0  0  0  0  0  0  0  0
   35.4603   13.9666  -12.5891 C   0  0  0  0  0  0  0  0  0  0  0  0
   36.8278   14.0378  -12.5537 C   0  0  0  0  0  0  0  0  0  0  0  0
   39.7652   15.1387  -13.1869 C   0  0  0  0  0  0  0  0  0  0  0  0
   39.3090   15.2061  -14.3520 O   0  0  0  0  0  0  0  0  0  0  0  0
   38.9733   15.0868  -12.0332 N   0  0  0  0  0  0  0  0  0  0  0  0
   39.4532   15.0260  -11.0808 H   0  0  0  0  0  0  0  0  0  0  0  0
   43.9728   15.0190  -12.9480 C   0  0  0  0  0  0  0  0  0  0  0  0
   43.2645   15.9672  -12.2456 C   0  0  0  0  0  0  0  0  0  0  0  0
   41.8809   16.0303  -12.3086 C   0  0  0  0  0  0  0  0  0  0  0  0
   41.2302   15.1159  -13.0952 C   0  0  0  0  0  0  0  0  0  0  0  0
   41.9615   14.1720  -13.7923 C   0  0  0  0  0  0  0  0  0  0  0  0
   43.3309   14.0985  -13.7390 C   0  0  0  0  0  0  0  0  0  0  0  0
   45.4479   15.0226  -12.8132 C   0  0  0  0  0  0  0  0  0  0  0  0
   49.3656   17.8677  -14.6747 C   0  0  0  0  0  0  0  0  0  0  0  0
   48.0815   17.6083  -14.0529 N   0  0  0  0  0  0  0  0  0  0  0  0
   48.1409   16.4650  -13.1609 C   0  0  0  0  0  0  0  0  0  0  0  0
   47.5508   15.2947  -13.9179 C   0  0  0  0  0  0  0  0  0  0  0  0
   46.0915   15.4406  -14.0536 N   0  0  0  0  0  0  0  0  0  0  0  0
   45.8118   16.8510  -14.3199 C   0  0  0  0  0  0  0  0  0  0  0  0
   47.0232   17.4713  -15.0142 C   0  0  0  0  0  0  0  0  0  0  0  0
   34.7340   12.9098  -13.1420 N   0  0  0  0  0  0  0  0  0  0  0  0
   33.9213   12.5228  -12.5324 H   0  0  0  0  0  0  0  0  0  0  0  0
   34.8696   12.2426  -14.3750 C   0  0  0  0  0  0  0  0  0  0  0  0
   33.7642   11.6495  -14.9384 N   0  0  0  0  0  0  0  0  0  0  0  0
   33.7684   10.9978  -16.0852 C   0  0  0  0  0  0  0  0  0  0  0  0
   34.9580   10.8828  -16.8022 C   0  0  0  0  0  0  0  0  0  0  0  0
   36.0759   11.4712  -16.2523 C   0  0  0  0  0  0  0  0  0  0  0  0
   35.9866   12.1182  -15.0768 N   0  0  0  0  0  0  0  0  0  0  0  0
   37.3648   11.3840  -16.9635 C   0  0  0  0  0  0  0  0  0  0  0  0
   38.5148   11.9310  -16.4416 C   0  0  0  0  0  0  0  0  0  0  0  0
   39.7050   11.8281  -17.1387 C   0  0  0  0  0  0  0  0  0  0  0  0
   39.7671   11.1888  -18.3475 C   0  0  0  0  0  0  0  0  0  0  0  0
   38.6582   10.6622  -18.8493 N   0  0  0  0  0  0  0  0  0  0  0  0
   37.4685   10.7531  -18.1745 C   0  0  0  0  0  0  0  0  0  0  0  0
 19 20  1  0  0  0
 20 21  1  0  0  0
 21 22  1  0  0  0
 22 23  1  0  0  0
 23 18  1  0  0  0
 18 12  1  0  0  0
 12 13  2  0  0  0
 13 14  1  0  0  0
 14 15  2  0  0  0
 15 16  1  0  0  0
 16 17  2  0  0  0
 15  8  1  0  0  0
  8  9  2  0  0  0
  8 10  1  0  0  0
 10  1  1  0  0  0
  1  2  2  0  0  0
  2  3  1  0  0  0
  3  4  2  0  0  0
  4  5  1  0  0  0
  4  6  1  0  0  0
  6 26  1  0  0  0
 26 28  1  0  0  0
 28 29  2  0  0  0
 29 30  1  0  0  0
 30 31  2  0  0  0
 31 32  1  0  0  0
 32 33  2  0  0  0
 32 34  1  0  0  0
 34 35  2  0  0  0
 35 36  1  0  0  0
 36 37  2  0  0  0
 37 38  1  0  0  0
 38 39  2  0  0  0
  6  7  2  0  0  0
 23 24  1  0  0  0
 24 25  1  0  0  0
 25 20  1  0  0  0
 17 12  1  0  0  0
  7  1  1  0  0  0
 33 28  1  0  0  0
 39 34  1  0  0  0
 10 11  1  0  0  0
 26 27  1  0  0  0
M  END
> <minimizedAffinity>
-10.13807

> <CNNscore>
0.4251924753

> <CNNaffinity>
7.1988968849

> <CNN_VS>
3.0609169006

> <CNNaffinity_variance>
0.0306912716

$$$$
[H]c1nc(N([H])c2c([H])c(N([H])C(=O)c3c([H])c([H])c(C([H])([H])N4C([H])([H])C([H])([H])N(C([H])([H])[H])C([H])([H])C4([H])[H])c([H])c3[H])c([H])c([H])c2C([H])([H])[H])nc(-c2c([H])nc([H])c([H])c2[H])c1[H]


 39 43  0  0  0  0  0  0  0  0999 V2000
   37.5829   14.9007  -12.1431 C   0  0  0  0  0  0  0  0  0  0  0  0
   36.9334   15.9239  -11.4958 C   0  0  0  0  0  0  0  0  0  0  0  0
   35.5423   15.9811  -11.4710 C   0  0  0  0  0  0  0  0  0  0  0  0
   34.7522   15.0455  -12.0738 C   0  0  0  0  0  0  0  0  0  0  0  0
   33.2641   15.1721  -12.0050 C   0  0  0  0  0  0  0  0  0  0  0  0
   35.3785   13.9846  -12.7447 C   0  0  0  0  0  0  0  0  0  0  0  0
   36.7477   13.9434  -12.7599 C   0  0  0  0  0  0  0  0  0  0  0  0
   39.7461   14.8895  -13.4138 C   0  0  0  0  0  0  0  0  0  0  0  0
   39.2609   15.1272  -14.5443 O   0  0  0  0  0  0  0  0  0  0  0  0
   38.9892   14.7687  -12.2418 N   0  0  0  0  0  0  0  0  0  0  0  0
   39.4920   14.5601  -11.3226 H   0  0  0  0  0  0  0  0  0  0  0  0
   43.9337   14.4026  -13.3575 C   0  0  0  0  0  0  0  0  0  0  0  0
   43.3387   15.3833  -12.5970 C   0  0  0  0  0  0  0  0  0  0  0  0
   41.9644   15.5665  -12.5991 C   0  0  0  0  0  0  0  0  0  0  0  0
   41.2061   14.7384  -13.3851 C   0  0  0  0  0  0  0  0  0  0  0  0
   41.8245   13.7599  -14.1413 C   0  0  0  0  0  0  0  0  0  0  0  0
   43.1834   13.5679  -14.1484 C   0  0  0  0  0  0  0  0  0  0  0  0
   45.4076   14.2756  -13.2855 C   0  0  0  0  0  0  0  0  0  0  0  0
   48.1492   11.2965  -10.0425 C   0  0  0  0  0  0  0  0  0  0  0  0
   47.9235   12.2786  -11.0853 N   0  0  0  0  0  0  0  0  0  0  0  0
   46.7794   13.1206  -10.7880 C   0  0  0  0  0  0  0  0  0  0  0  0
   45.6246   12.5862  -11.6075 C   0  0  0  0  0  0  0  0  0  0  0  0
   45.8082   12.8956  -13.0357 N   0  0  0  0  0  0  0  0  0  0  0  0
   47.2253   12.7144  -13.3479 C   0  0  0  0  0  0  0  0  0  0  0  0
   47.8137   11.6822  -12.3873 C   0  0  0  0  0  0  0  0  0  0  0  0
   34.5487   13.0412  -13.3542 N   0  0  0  0  0  0  0  0  0  0  0  0
   33.6088   12.8384  -12.8468 H   0  0  0  0  0  0  0  0  0  0  0  0
   34.7160   12.2906  -14.5341 C   0  0  0  0  0  0  0  0  0  0  0  0
   33.6350   11.6224  -15.0595 N   0  0  0  0  0  0  0  0  0  0  0  0
   33.6698   10.8893  -16.1554 C   0  0  0  0  0  0  0  0  0  0  0  0
   34.8684   10.7609  -16.8547 C   0  0  0  0  0  0  0  0  0  0  0  0
   35.9623   11.4239  -16.3424 C   0  0  0  0  0  0  0  0  0  0  0  0
   35.8424   12.1516  -15.2181 N   0  0  0  0  0  0  0  0  0  0  0  0
   37.2593   11.3269  -17.0373 C   0  0  0  0  0  0  0  0  0  0  0  0
   38.4096   11.8519  -16.4939 C   0  0  0  0  0  0  0  0  0  0  0  0
   39.6076   11.7404  -17.1763 C   0  0  0  0  0  0  0  0  0  0  0  0
   39.6772   11.1141  -18.3914 C   0  0  0  0  0  0  0  0  0  0  0  0
   38.5680   10.6086  -18.9139 N   0  0  0  0  0  0  0  0  0  0  0  0
   37.3707   10.7083  -18.2540 C   0  0  0  0  0  0  0  0  0  0  0  0
 19 20  1  0  0  0
 20 21  1  0  0  0
 21 22  1  0  0  0
 22 23  1  0  0  0
 23 18  1  0  0  0
 18 12  1  0  0  0
 12 13  2  0  0  0
 13 14  1  0  0  0
 14 15  2  0  0  0
 15 16  1  0  0  0
 16 17  2  0  0  0
 15  8  1  0  0  0
  8  9  2  0  0  0
  8 10  1  0  0  0
 10  1  1  0  0  0
  1  2  2  0  0  0
  2  3  1  0  0  0
  3  4  2  0  0  0
  4  5  1  0  0  0
  4  6  1  0  0  0
  6 26  1  0  0  0
 26 28  1  0  0  0
 28 29  2  0  0  0
 29 30  1  0  0  0
 30 31  2  0  0  0
 31 32  1  0  0  0
 32 33  2  0  0  0
 32 34  1  0  0  0
 34 35  2  0  0  0
 35 36  1  0  0  0
 36 37  2  0  0  0
 37 38  1  0  0  0
 38 39  2  0  0  0
  6  7  2  0  0  0
 23 24  1  0  0  0
 24 25  1  0  0  0
 25 20  1  0  0  0
 17 12  1  0  0  0
  7  1  1  0  0  0
 33 28  1  0  0  0
 39 34  1  0  0  0
 10 11  1  0  0  0
 26 27  1  0  0  0
M  END
> <minimizedAffinity>
-10.06921

> <CNNscore>
0.3290183246

> <CNNaffinity>
7.1751952171

> <CNN_VS>
2.3607707024

> <CNNaffinity_variance>
0.0751200765

$$$$
[H]c1nc(N([H])c2c([H])c(N([H])C(=O)c3c([H])c([H])c(C([H])([H])N4C([H])([H])C([H])([H])N(C([H])([H])[H])C([H])([H])C4([H])[H])c([H])c3[H])c([H])c([H])c2C([H])([H])[H])nc(-c2c([H])nc([H])c([H])c2[H])c1[H]


 39 43  0  0  0  0  0  0  0  0999 V2000
   37.0427   14.5645  -12.1886 C   0  0  0  0  0  0  0  0  0  0  0  0
   35.7977   14.9593  -11.7619 C   0  0  0  0  0  0  0  0  0  0  0  0
   34.6577   14.6288  -12.4899 C   0  0  0  0  0  0  0  0  0  0  0  0
   34.7022   13.9073  -13.6477 C   0  0  0  0  0  0  0  0  0  0  0  0
   33.4357   13.5896  -14.3758 C   0  0  0  0  0  0  0  0  0  0  0  0
   35.9555   13.4855  -14.1158 C   0  0  0  0  0  0  0  0  0  0  0  0
   37.0669   13.8192  -13.3879 C   0  0  0  0  0  0  0  0  0  0  0  0
   39.3722   15.4924  -12.1079 C   0  0  0  0  0  0  0  0  0  0  0  0
   39.4334   15.8570  -13.3052 O   0  0  0  0  0  0  0  0  0  0  0  0
   38.2586   14.8700  -11.5305 N   0  0  0  0  0  0  0  0  0  0  0  0
   38.3008   14.5904  -10.5004 H   0  0  0  0  0  0  0  0  0  0  0  0
   42.7997   16.2885   -9.7854 C   0  0  0  0  0  0  0  0  0  0  0  0
   42.9109   16.0970  -11.1437 C   0  0  0  0  0  0  0  0  0  0  0  0
   41.8004   15.8313  -11.9301 C   0  0  0  0  0  0  0  0  0  0  0  0
   40.5775   15.7636  -11.3150 C   0  0  0  0  0  0  0  0  0  0  0  0
   40.4887   15.9590   -9.9491 C   0  0  0  0  0  0  0  0  0  0  0  0
   41.5796   16.2227   -9.1592 C   0  0  0  0  0  0  0  0  0  0  0  0
   44.0394   16.5756   -9.0274 C   0  0  0  0  0  0  0  0  0  0  0  0
   47.7589   14.8606   -5.8442 C   0  0  0  0  0  0  0  0  0  0  0  0
   47.1408   15.2140   -7.1075 N   0  0  0  0  0  0  0  0  0  0  0  0
   46.3381   16.4176   -6.9916 C   0  0  0  0  0  0  0  0  0  0  0  0
   44.8974   15.9674   -6.8801 C   0  0  0  0  0  0  0  0  0  0  0  0
   44.4075   15.4540   -8.1706 N   0  0  0  0  0  0  0  0  0  0  0  0
   45.4917   14.6848   -8.7799 C   0  0  0  0  0  0  0  0  0  0  0  0
   46.3859   14.1304   -7.6721 C   0  0  0  0  0  0  0  0  0  0  0  0
   35.9747   12.7500  -15.3027 N   0  0  0  0  0  0  0  0  0  0  0  0
   35.0050   12.5466  -15.7502 H   0  0  0  0  0  0  0  0  0  0  0  0
   37.0493   12.2141  -16.0387 C   0  0  0  0  0  0  0  0  0  0  0  0
   36.7866   11.3141  -17.0448 N   0  0  0  0  0  0  0  0  0  0  0  0
   37.7076   10.7463  -17.7992 C   0  0  0  0  0  0  0  0  0  0  0  0
   39.0501   11.0568  -17.5899 C   0  0  0  0  0  0  0  0  0  0  0  0
   39.3317   11.9571  -16.5856 C   0  0  0  0  0  0  0  0  0  0  0  0
   38.3328   12.4914  -15.8610 N   0  0  0  0  0  0  0  0  0  0  0  0
   40.7336   12.3263  -16.3155 C   0  0  0  0  0  0  0  0  0  0  0  0
   41.0826   13.0772  -15.2162 C   0  0  0  0  0  0  0  0  0  0  0  0
   42.4089   13.4028  -14.9967 C   0  0  0  0  0  0  0  0  0  0  0  0
   43.3926   12.9920  -15.8552 C   0  0  0  0  0  0  0  0  0  0  0  0
   43.0549   12.2684  -16.9142 N   0  0  0  0  0  0  0  0  0  0  0  0
   41.7464   11.9348  -17.1500 C   0  0  0  0  0  0  0  0  0  0  0  0
 19 20  1  0  0  0
 20 21  1  0  0  0
 21 22  1  0  0  0
 22 23  1  0  0  0
 23 18  1  0  0  0
 18 12  1  0  0  0
 12 13  2  0  0  0
 13 14  1  0  0  0
 14 15  2  0  0  0
 15 16  1  0  0  0
 16 17  2  0  0  0
 15  8  1  0  0  0
  8  9  2  0  0  0
  8 10  1  0  0  0
 10  1  1  0  0  0
  1  2  2  0  0  0
  2  3  1  0  0  0
  3  4  2  0  0  0
  4  5  1  0  0  0
  4  6  1  0  0  0
  6 26  1  0  0  0
 26 28  1  0  0  0
 28 29  2  0  0  0
 29 30  1  0  0  0
 30 31  2  0  0  0
 31 32  1  0  0  0
 32 33  2  0  0  0
 32 34  1  0  0  0
 34 35  2  0  0  0
 35 36  1  0  0  0
 36 37  2  0  0  0
 37 38  1  0  0  0
 38 39  2  0  0  0
  6  7  2  0  0  0
 23 24  1  0  0  0
 24 25  1  0  0  0
 25 20  1  0  0  0
 17 12  1  0  0  0
  7  1  1  0  0  0
 33 28  1  0  0  0
 39 34  1  0  0  0
 10 11  1  0  0  0
 26 27  1  0  0  0
M  END
> <minimizedAffinity>
-8.40041

> <CNNscore>
0.3246986568

> <CNNaffinity>
6.9484648705

> <CNN_VS>
2.2561571598

> <CNNaffinity_variance>
0.0202424508

$$$$
[H]OC(=O)C([H])([H])[C@@]([H])(C(=O)N([H])[H])N([H])C(=O)[C@@]([H])(N([H])C(=O)[C@@]([H])(N([H])C(=O)[C@@]([H])(N([H])C(=O)[C@@]([H])(N([H])C(=O)[C@@]([H])(N([H])C(=O)[C@@]([H])(N([H])C(=O)C([H])([H])[H])C([H])(C([H])([H])[H])C([H])([H])[H])C([H])([H])C([H])([H])C(=O)N([H])[H])C([H])([H])C([H])(C([H])([H])[H])C([H])([H])[H])C([H])([H])O[H])C([H])([H])O[H])C([H])(C([H])([H])[H])C([H])([H])[H]


 69 68  0  0  0  0  0  0  0  0999 V2000
   35.7389   16.7900   -8.7459 C   0  0  0  0  0  0  0  0  0  0  0  0
   36.2706   17.7196   -7.7031 C   0  0  0  0  0  0  0  0  0  0  0  0
   36.8638   17.4328   -6.6627 O   0  0  0  0  0  0  0  0  0  0  0  0
   36.0859   19.1339   -7.9513 N   0  0  0  0  0  0  0  0  0  0  0  0
   35.5908   19.4540   -8.7887 H   0  0  0  0  0  0  0  0  0  0  0  0
   36.5946   20.1537   -7.0436 C   0  0  0  0  0  0  0  0  0  0  0  0
   35.6120   20.5354   -6.0323 C   0  0  0  0  0  0  0  0  0  0  0  0
   36.0769   21.0167   -4.9404 O   0  0  0  0  0  0  0  0  0  0  0  0
   34.2311   20.3989   -6.1880 N   0  0  0  0  0  0  0  0  0  0  0  0
   33.7771   20.0214   -7.0223 H   0  0  0  0  0  0  0  0  0  0  0  0
   33.3192   20.8178   -5.0951 C   0  0  0  0  0  0  0  0  0  0  0  0
   32.3900   19.6977   -4.8850 C   0  0  0  0  0  0  0  0  0  0  0  0
   32.4976   19.0352   -3.7529 O   0  0  0  0  0  0  0  0  0  0  0  0
   31.4092   19.2446   -5.7241 N   0  0  0  0  0  0  0  0  0  0  0  0
   31.2924   19.7581   -6.6573 H   0  0  0  0  0  0  0  0  0  0  0  0
   30.4830   18.1154   -5.5320 C   0  0  0  0  0  0  0  0  0  0  0  0
   31.0440   16.9785   -6.2133 C   0  0  0  0  0  0  0  0  0  0  0  0
   30.8702   16.6102   -7.5589 N   0  0  0  0  0  0  0  0  0  0  0  0
   31.8180   16.1585   -5.5454 O   0  0  0  0  0  0  0  0  0  0  0  0
   31.6073   15.9829   -8.0378 H   0  0  0  0  0  0  0  0  0  0  0  0
   30.0716   16.9120   -8.0920 H   0  0  0  0  0  0  0  0  0  0  0  0
   29.1149   18.5520   -6.0775 C   0  0  0  0  0  0  0  0  0  0  0  0
   29.3206   19.7199   -7.0099 C   0  0  0  0  0  0  0  0  0  0  0  0
   29.1693   20.9563   -6.5169 O   0  0  0  0  0  0  0  0  0  0  0  0
   29.6264   19.4591   -8.2212 O   0  0  0  0  0  0  0  0  0  0  0  0
   28.6112   21.1471   -5.6804 H   0  0  0  0  0  0  0  0  0  0  0  0
   32.5961   22.0684   -5.6227 C   0  0  0  0  0  0  0  0  0  0  0  0
   32.7552   22.2104   -7.1153 C   0  0  0  0  0  0  0  0  0  0  0  0
   33.2124   23.2915   -4.9049 C   0  0  0  0  0  0  0  0  0  0  0  0
   37.0717   21.3371   -7.8881 C   0  0  0  0  0  0  0  0  0  0  0  0
   36.1525   21.8015   -8.7776 O   0  0  0  0  0  0  0  0  0  0  0  0
   35.4913   22.4346   -8.4673 H   0  0  0  0  0  0  0  0  0  0  0  0
   37.7439   16.4277  -10.1394 C   0  0  0  0  0  0  0  0  0  0  0  0
   37.5990   17.6417  -10.5450 O   0  0  0  0  0  0  0  0  0  0  0  0
   36.8197   15.9109   -9.1905 N   0  0  0  0  0  0  0  0  0  0  0  0
   36.8844   14.9611   -8.8128 H   0  0  0  0  0  0  0  0  0  0  0  0
   38.8666   15.6145  -10.6698 C   0  0  0  0  0  0  0  0  0  0  0  0
   38.5704   15.0042  -11.9135 N   0  0  0  0  0  0  0  0  0  0  0  0
   37.5189   14.1566  -12.3022 C   0  0  0  0  0  0  0  0  0  0  0  0
   36.6580   13.8628  -11.4423 O   0  0  0  0  0  0  0  0  0  0  0  0
   39.2673   15.2226  -12.7033 H   0  0  0  0  0  0  0  0  0  0  0  0
   37.4173   13.6107  -13.6885 C   0  0  0  0  0  0  0  0  0  0  0  0
   38.6636   12.9597  -14.0768 N   0  0  0  0  0  0  0  0  0  0  0  0
   39.7145   13.6348  -14.6859 C   0  0  0  0  0  0  0  0  0  0  0  0
   39.5824   14.8625  -14.9103 O   0  0  0  0  0  0  0  0  0  0  0  0
   38.7007   11.9303  -13.8683 H   0  0  0  0  0  0  0  0  0  0  0  0
   40.9843   12.9744  -15.0826 C   0  0  0  0  0  0  0  0  0  0  0  0
   41.0123   12.8024  -16.5326 N   0  0  0  0  0  0  0  0  0  0  0  0
   40.1370   11.9514  -17.2147 C   0  0  0  0  0  0  0  0  0  0  0  0
   40.1985   11.8127  -18.6940 C   0  0  0  0  0  0  0  0  0  0  0  0
   39.2837   11.2893  -16.5945 O   0  0  0  0  0  0  0  0  0  0  0  0
   41.7183   13.3355  -17.0660 H   0  0  0  0  0  0  0  0  0  0  0  0
   42.2184   13.7714  -14.6967 C   0  0  0  0  0  0  0  0  0  0  0  0
   42.4540   13.8062  -13.2195 C   0  0  0  0  0  0  0  0  0  0  0  0
   43.4418   13.3801  -15.4658 C   0  0  0  0  0  0  0  0  0  0  0  0
   36.2273   12.7172  -13.9109 C   0  0  0  0  0  0  0  0  0  0  0  0
   35.3680   13.1339  -15.0404 C   0  0  0  0  0  0  0  0  0  0  0  0
   33.9710   12.6523  -14.7877 C   0  0  0  0  0  0  0  0  0  0  0  0
   33.0714   13.5751  -14.1419 N   0  0  0  0  0  0  0  0  0  0  0  0
   33.5400   11.5363  -15.0888 O   0  0  0  0  0  0  0  0  0  0  0  0
   32.1493   13.7887  -14.5617 H   0  0  0  0  0  0  0  0  0  0  0  0
   33.3404   14.0317  -13.2490 H   0  0  0  0  0  0  0  0  0  0  0  0
   40.0843   16.5048  -10.7125 C   0  0  0  0  0  0  0  0  0  0  0  0
   40.5777   15.0676   -8.7277 C   0  0  0  0  0  0  0  0  0  0  0  0
   41.0283   16.2423   -9.5677 C   0  0  0  0  0  0  0  0  0  0  0  0
   42.4332   15.9402  -10.0738 C   0  0  0  0  0  0  0  0  0  0  0  0
   34.5368   16.0501   -8.2910 C   0  0  0  0  0  0  0  0  0  0  0  0
   33.3768   16.4749   -8.9718 O   0  0  0  0  0  0  0  0  0  0  0  0
   32.5915   16.3686   -8.3627 H   0  0  0  0  0  0  0  0  0  0  0  0
 64 65  1  0  0  0
 65 66  1  0  0  0
 65 63  1  0  0  0
 63 37  1  0  0  0
 37 38  1  0  0  0
 38 39  1  0  0  0
 39 40  2  0  0  0
 39 42  1  0  0  0
 42 56  1  0  0  0
 56 57  1  0  0  0
 57 58  1  0  0  0
 58 59  1  0  0  0
 58 60  2  0  0  0
 42 43  1  0  0  0
 43 44  1  0  0  0
 44 45  2  0  0  0
 44 47  1  0  0  0
 47 48  1  0  0  0
 48 49  1  0  0  0
 49 50  1  0  0  0
 49 51  2  0  0  0
 47 53  1  0  0  0
 53 54  1  0  0  0
 53 55  1  0  0  0
 37 33  1  0  0  0
 33 34  2  0  0  0
 33 35  1  0  0  0
 35  1  1  0  0  0
  1 67  1  0  0  0
 67 68  1  0  0  0
  1  2  1  0  0  0
  2  3  2  0  0  0
  2  4  1  0  0  0
  4  6  1  0  0  0
  6 30  1  0  0  0
 30 31  1  0  0  0
  6  7  1  0  0  0
  7  8  2  0  0  0
  7  9  1  0  0  0
  9 11  1  0  0  0
 11 27  1  0  0  0
 27 28  1  0  0  0
 27 29  1  0  0  0
 11 12  1  0  0  0
 12 13  2  0  0  0
 12 14  1  0  0  0
 14 16  1  0  0  0
 16 22  1  0  0  0
 22 23  1  0  0  0
 23 24  1  0  0  0
 23 25  2  0  0  0
 16 17  1  0  0  0
 17 18  1  0  0  0
 17 19  2  0  0  0
 38 41  1  0  0  0
 59 61  1  0  0  0
 59 62  1  0  0  0
 43 46  1  0  0  0
 48 52  1  0  0  0
 35 36  1  0  0  0
 68 69  1  0  0  0
  4  5  1  0  0  0
 31 32  1  0  0  0
  9 10  1  0  0  0
 14 15  1  0  0  0
 24 26  1  0  0  0
 18 20  1  0  0  0
 18 21  1  0  0  0
M  END
> <minimizedAffinity>
-7.97087

> <CNNscore>
0.5223875642

> <CNNaffinity>
7.0830307007

> <CNN_VS>
3.7000870705

> <CNNaffinity_variance>
0.4328068793

$$$$
[H]OC(=O)C([H])([H])[C@@]([H])(C(=O)N([H])[H])N([H])C(=O)[C@@]([H])(N([H])C(=O)[C@@]([H])(N([H])C(=O)[C@@]([H])(N([H])C(=O)[C@@]([H])(N([H])C(=O)[C@@]([H])(N([H])C(=O)[C@@]([H])(N([H])C(=O)C([H])([H])[H])C([H])(C([H])([H])[H])C([H])([H])[H])C([H])([H])C([H])([H])C(=O)N([H])[H])C([H])([H])C([H])(C([H])([H])[H])C([H])([H])[H])C([H])([H])O[H])C([H])([H])O[H])C([H])(C([H])([H])[H])C([H])([H])[H]


 69 68  0  0  0  0  0  0  0  0999 V2000
   38.3322   15.3333  -10.3083 C   0  0  0  0  0  0  0  0  0  0  0  0
   37.0737   16.1205  -10.1329 C   0  0  0  0  0  0  0  0  0  0  0  0
   36.7717   17.1944  -10.6547 O   0  0  0  0  0  0  0  0  0  0  0  0
   36.0743   15.5445   -9.2580 N   0  0  0  0  0  0  0  0  0  0  0  0
   36.2544   14.6591   -8.7758 H   0  0  0  0  0  0  0  0  0  0  0  0
   34.7825   16.1792   -9.0319 C   0  0  0  0  0  0  0  0  0  0  0  0
   34.1222   15.6787   -7.8289 C   0  0  0  0  0  0  0  0  0  0  0  0
   34.4609   14.5066   -7.4397 O   0  0  0  0  0  0  0  0  0  0  0  0
   33.1621   16.3899   -7.1062 N   0  0  0  0  0  0  0  0  0  0  0  0
   32.8316   17.3263   -7.3484 H   0  0  0  0  0  0  0  0  0  0  0  0
   32.5516   15.7869   -5.8958 C   0  0  0  0  0  0  0  0  0  0  0  0
   31.2540   15.2409   -6.3202 C   0  0  0  0  0  0  0  0  0  0  0  0
   30.1842   15.9549   -6.0407 O   0  0  0  0  0  0  0  0  0  0  0  0
   31.0054   14.0689   -6.9802 N   0  0  0  0  0  0  0  0  0  0  0  0
   31.8523   13.4590   -7.2234 H   0  0  0  0  0  0  0  0  0  0  0  0
   29.7103   13.5042   -7.3970 C   0  0  0  0  0  0  0  0  0  0  0  0
   29.6887   12.1262   -6.9820 C   0  0  0  0  0  0  0  0  0  0  0  0
   28.7267   11.1493   -7.2930 N   0  0  0  0  0  0  0  0  0  0  0  0
   30.6597   11.6776   -6.2248 O   0  0  0  0  0  0  0  0  0  0  0  0
   28.9959   10.1045   -7.2469 H   0  0  0  0  0  0  0  0  0  0  0  0
   27.7865   11.3957   -7.5548 H   0  0  0  0  0  0  0  0  0  0  0  0
   29.5991   13.6957   -8.9171 C   0  0  0  0  0  0  0  0  0  0  0  0
   28.6343   14.8230   -9.1894 C   0  0  0  0  0  0  0  0  0  0  0  0
   28.3685   15.6811   -8.1956 O   0  0  0  0  0  0  0  0  0  0  0  0
   28.1237   14.8916  -10.3570 O   0  0  0  0  0  0  0  0  0  0  0  0
   28.4995   15.4349   -7.2107 H   0  0  0  0  0  0  0  0  0  0  0  0
   32.3849   16.9475   -4.9005 C   0  0  0  0  0  0  0  0  0  0  0  0
   32.9188   18.2401   -5.4643 C   0  0  0  0  0  0  0  0  0  0  0  0
   33.1615   16.5673   -3.6185 C   0  0  0  0  0  0  0  0  0  0  0  0
   33.9408   15.9921  -10.2959 C   0  0  0  0  0  0  0  0  0  0  0  0
   32.7891   15.2922  -10.1075 O   0  0  0  0  0  0  0  0  0  0  0  0
   32.0082   15.7674   -9.7936 H   0  0  0  0  0  0  0  0  0  0  0  0
   37.4537   13.9851  -12.1802 C   0  0  0  0  0  0  0  0  0  0  0  0
   36.5266   13.5946  -11.3756 O   0  0  0  0  0  0  0  0  0  0  0  0
   38.4294   14.9025  -11.7024 N   0  0  0  0  0  0  0  0  0  0  0  0
   39.1840   15.2670  -12.2912 H   0  0  0  0  0  0  0  0  0  0  0  0
   37.4706   13.4705  -13.5723 C   0  0  0  0  0  0  0  0  0  0  0  0
   38.7801   13.2559  -14.0686 N   0  0  0  0  0  0  0  0  0  0  0  0
   39.7645   14.1589  -14.5054 C   0  0  0  0  0  0  0  0  0  0  0  0
   39.4961   15.3807  -14.4620 O   0  0  0  0  0  0  0  0  0  0  0  0
   39.0808   12.2245  -14.1240 H   0  0  0  0  0  0  0  0  0  0  0  0
   41.0906   13.6953  -15.0123 C   0  0  0  0  0  0  0  0  0  0  0  0
   41.9816   13.3759  -13.9023 N   0  0  0  0  0  0  0  0  0  0  0  0
   43.3598   13.5435  -13.9632 C   0  0  0  0  0  0  0  0  0  0  0  0
   43.8582   13.9918  -15.0241 O   0  0  0  0  0  0  0  0  0  0  0  0
   41.4973   12.9959  -13.0505 H   0  0  0  0  0  0  0  0  0  0  0  0
   44.2692   13.2186  -12.8349 C   0  0  0  0  0  0  0  0  0  0  0  0
   45.6153   13.6955  -13.1403 N   0  0  0  0  0  0  0  0  0  0  0  0
   46.7108   12.8386  -13.2869 C   0  0  0  0  0  0  0  0  0  0  0  0
   48.0631   13.3694  -13.6044 C   0  0  0  0  0  0  0  0  0  0  0  0
   46.5757   11.6077  -13.1542 O   0  0  0  0  0  0  0  0  0  0  0  0
   45.7517   14.7140  -13.2458 H   0  0  0  0  0  0  0  0  0  0  0  0
   43.8477   13.8597  -11.5239 C   0  0  0  0  0  0  0  0  0  0  0  0
   43.9297   12.9217  -10.3610 C   0  0  0  0  0  0  0  0  0  0  0  0
   44.5261   15.1674  -11.2579 C   0  0  0  0  0  0  0  0  0  0  0  0
   41.0084   12.5679  -16.0052 C   0  0  0  0  0  0  0  0  0  0  0  0
   40.6106   12.9944  -17.3645 C   0  0  0  0  0  0  0  0  0  0  0  0
   40.0162   11.8213  -18.0842 C   0  0  0  0  0  0  0  0  0  0  0  0
   39.2219   10.9103  -17.2986 N   0  0  0  0  0  0  0  0  0  0  0  0
   40.1558   11.5814  -19.2862 O   0  0  0  0  0  0  0  0  0  0  0  0
   38.2627   10.6596  -17.5974 H   0  0  0  0  0  0  0  0  0  0  0  0
   39.6063   10.4965  -16.4274 H   0  0  0  0  0  0  0  0  0  0  0  0
   36.6062   12.2339  -13.6039 C   0  0  0  0  0  0  0  0  0  0  0  0
   34.6583   13.5286  -14.4857 C   0  0  0  0  0  0  0  0  0  0  0  0
   35.5353   12.3086  -14.6613 C   0  0  0  0  0  0  0  0  0  0  0  0
   36.1454   12.3715  -16.0560 C   0  0  0  0  0  0  0  0  0  0  0  0
   39.5335   16.0666   -9.8408 C   0  0  0  0  0  0  0  0  0  0  0  0
   39.1892   17.2859   -9.2208 O   0  0  0  0  0  0  0  0  0  0  0  0
   39.9296   17.9406   -9.3699 H   0  0  0  0  0  0  0  0  0  0  0  0
 64 65  1  0  0  0
 65 66  1  0  0  0
 65 63  1  0  0  0
 63 37  1  0  0  0
 37 38  1  0  0  0
 38 39  1  0  0  0
 39 40  2  0  0  0
 39 42  1  0  0  0
 42 56  1  0  0  0
 56 57  1  0  0  0
 57 58  1  0  0  0
 58 59  1  0  0  0
 58 60  2  0  0  0
 42 43  1  0  0  0
 43 44  1  0  0  0
 44 45  2  0  0  0
 44 47  1  0  0  0
 47 48  1  0  0  0
 48 49  1  0  0  0
 49 50  1  0  0  0
 49 51  2  0  0  0
 47 53  1  0  0  0
 53 54  1  0  0  0
 53 55  1  0  0  0
 37 33  1  0  0  0
 33 34  2  0  0  0
 33 35  1  0  0  0
 35  1  1  0  0  0
  1 67  1  0  0  0
 67 68  1  0  0  0
  1  2  1  0  0  0
  2  3  2  0  0  0
  2  4  1  0  0  0
  4  6  1  0  0  0
  6 30  1  0  0  0
 30 31  1  0  0  0
  6  7  1  0  0  0
  7  8  2  0  0  0
  7  9  1  0  0  0
  9 11  1  0  0  0
 11 27  1  0  0  0
 27 28  1  0  0  0
 27 29  1  0  0  0
 11 12  1  0  0  0
 12 13  2  0  0  0
 12 14  1  0  0  0
 14 16  1  0  0  0
 16 22  1  0  0  0
 22 23  1  0  0  0
 23 24  1  0  0  0
 23 25  2  0  0  0
 16 17  1  0  0  0
 17 18  1  0  0  0
 17 19  2  0  0  0
 38 41  1  0  0  0
 59 61  1  0  0  0
 59 62  1  0  0  0
 43 46  1  0  0  0
 48 52  1  0  0  0
 35 36  1  0  0  0
 68 69  1  0  0  0
  4  5  1  0  0  0
 31 32  1  0  0  0
  9 10  1  0  0  0
 14 15  1  0  0  0
 24 26  1  0  0  0
 18 20  1  0  0  0
 18 21  1  0  0  0
M  END
> <minimizedAffinity>
-8.21122

> <CNNscore>
0.4474760890

> <CNNaffinity>
6.9299821854

> <CNN_VS>
3.1010012627

> <CNNaffinity_variance>
0.4169841707

$$$$
[H]OC(=O)C([H])([H])[C@@]([H])(C(=O)N([H])[H])N([H])C(=O)[C@@]([H])(N([H])C(=O)[C@@]([H])(N([H])C(=O)[C@@]([H])(N([H])C(=O)[C@@]([H])(N([H])C(=O)[C@@]([H])(N([H])C(=O)[C@@]([H])(N([H])C(=O)C([H])([H])[H])C([H])(C([H])([H])[H])C([H])([H])[H])C([H])([H])C([H])([H])C(=O)N([H])[H])C([H])([H])C([H])(C([H])([H])[H])C([H])([H])[H])C([H])([H])O[H])C([H])([H])O[H])C([H])(C([H])([H])[H])C([H])([H])[H]


 69 68  0  0  0  0  0  0  0  0999 V2000
   31.2704   14.5204  -11.2539 C   0  0  0  0  0  0  0  0  0  0  0  0
   32.5165   14.5058  -12.0794 C   0  0  0  0  0  0  0  0  0  0  0  0
   32.6691   14.0532  -13.2145 O   0  0  0  0  0  0  0  0  0  0  0  0
   33.6867   15.1155  -11.4837 N   0  0  0  0  0  0  0  0  0  0  0  0
   33.6451   15.5038  -10.5370 H   0  0  0  0  0  0  0  0  0  0  0  0
   34.9559   15.2138  -12.1924 C   0  0  0  0  0  0  0  0  0  0  0  0
   35.4044   13.9226  -12.7075 C   0  0  0  0  0  0  0  0  0  0  0  0
   35.6894   13.0298  -11.8348 O   0  0  0  0  0  0  0  0  0  0  0  0
   35.5417   13.6229  -14.0644 N   0  0  0  0  0  0  0  0  0  0  0  0
   35.3408   14.2759  -14.8247 H   0  0  0  0  0  0  0  0  0  0  0  0
   36.0071   12.2770  -14.4807 C   0  0  0  0  0  0  0  0  0  0  0  0
   37.4764   12.3356  -14.4874 C   0  0  0  0  0  0  0  0  0  0  0  0
   38.1101   11.5577  -13.6357 O   0  0  0  0  0  0  0  0  0  0  0  0
   38.2879   13.1039  -15.2763 N   0  0  0  0  0  0  0  0  0  0  0  0
   37.8077   13.7523  -15.9816 H   0  0  0  0  0  0  0  0  0  0  0  0
   39.7588   13.1828  -15.2822 C   0  0  0  0  0  0  0  0  0  0  0  0
   40.1393   14.1865  -14.3234 C   0  0  0  0  0  0  0  0  0  0  0  0
   41.1985   14.1364  -13.4003 N   0  0  0  0  0  0  0  0  0  0  0  0
   39.4501   15.2996  -14.2646 O   0  0  0  0  0  0  0  0  0  0  0  0
   41.6079   15.0566  -13.0105 H   0  0  0  0  0  0  0  0  0  0  0  0
   41.5866   13.2625  -13.0858 H   0  0  0  0  0  0  0  0  0  0  0  0
   40.1908   13.5043  -16.7210 C   0  0  0  0  0  0  0  0  0  0  0  0
   40.1377   12.2341  -17.5331 C   0  0  0  0  0  0  0  0  0  0  0  0
   40.6096   12.2654  -18.7865 O   0  0  0  0  0  0  0  0  0  0  0  0
   39.6413   11.1992  -16.9752 O   0  0  0  0  0  0  0  0  0  0  0  0
   40.6805   13.1344  -19.3227 H   0  0  0  0  0  0  0  0  0  0  0  0
   35.4376   12.0663  -15.8936 C   0  0  0  0  0  0  0  0  0  0  0  0
   34.0070   11.5920  -15.8478 C   0  0  0  0  0  0  0  0  0  0  0  0
   36.3244   11.0099  -16.5927 C   0  0  0  0  0  0  0  0  0  0  0  0
   35.9700   15.8647  -11.2495 C   0  0  0  0  0  0  0  0  0  0  0  0
   36.2672   17.1587  -11.5480 O   0  0  0  0  0  0  0  0  0  0  0  0
   35.6825   17.8531  -11.2163 H   0  0  0  0  0  0  0  0  0  0  0  0
   31.0118   14.7168   -8.8069 C   0  0  0  0  0  0  0  0  0  0  0  0
   30.3565   13.6087   -8.8548 O   0  0  0  0  0  0  0  0  0  0  0  0
   31.5321   15.2540  -10.0163 N   0  0  0  0  0  0  0  0  0  0  0  0
   32.0759   16.1212  -10.0498 H   0  0  0  0  0  0  0  0  0  0  0  0
   31.2042   15.3901   -7.4983 C   0  0  0  0  0  0  0  0  0  0  0  0
   32.2928   14.8652   -6.7591 N   0  0  0  0  0  0  0  0  0  0  0  0
   33.6618   14.7752   -7.0640 C   0  0  0  0  0  0  0  0  0  0  0  0
   34.0457   15.2314   -8.1646 O   0  0  0  0  0  0  0  0  0  0  0  0
   32.0347   14.4634   -5.7951 H   0  0  0  0  0  0  0  0  0  0  0  0
   34.6406   14.1554   -6.1216 C   0  0  0  0  0  0  0  0  0  0  0  0
   35.9978   14.5920   -6.4301 N   0  0  0  0  0  0  0  0  0  0  0  0
   37.0623   13.7115   -6.5805 C   0  0  0  0  0  0  0  0  0  0  0  0
   36.8423   12.4835   -6.4450 O   0  0  0  0  0  0  0  0  0  0  0  0
   36.1108   15.6330   -6.5195 H   0  0  0  0  0  0  0  0  0  0  0  0
   38.4452   14.1534   -6.8941 C   0  0  0  0  0  0  0  0  0  0  0  0
   38.4281   15.5545   -7.3058 N   0  0  0  0  0  0  0  0  0  0  0  0
   38.6585   15.9631   -8.6232 C   0  0  0  0  0  0  0  0  0  0  0  0
   38.6250   17.4019   -8.9974 C   0  0  0  0  0  0  0  0  0  0  0  0
   38.8973   15.1265   -9.5144 O   0  0  0  0  0  0  0  0  0  0  0  0
   38.2407   16.2660   -6.5806 H   0  0  0  0  0  0  0  0  0  0  0  0
   39.3915   14.0398   -5.7114 C   0  0  0  0  0  0  0  0  0  0  0  0
   40.4099   12.9565   -5.8789 C   0  0  0  0  0  0  0  0  0  0  0  0
   40.0020   15.3473   -5.3124 C   0  0  0  0  0  0  0  0  0  0  0  0
   34.3056   14.3564   -4.6685 C   0  0  0  0  0  0  0  0  0  0  0  0
   34.4063   15.7620   -4.2193 C   0  0  0  0  0  0  0  0  0  0  0  0
   33.7232   15.8948   -2.8916 C   0  0  0  0  0  0  0  0  0  0  0  0
   33.9509   14.8413   -1.9344 N   0  0  0  0  0  0  0  0  0  0  0  0
   32.9886   16.8295   -2.5620 O   0  0  0  0  0  0  0  0  0  0  0  0
   34.2756   15.0643   -0.9769 H   0  0  0  0  0  0  0  0  0  0  0  0
   33.7890   13.8499   -2.1972 H   0  0  0  0  0  0  0  0  0  0  0  0
   31.3195   16.8704   -7.7682 C   0  0  0  0  0  0  0  0  0  0  0  0
   30.0321   18.9742   -7.3625 C   0  0  0  0  0  0  0  0  0  0  0  0
   30.5731   17.6989   -6.7548 C   0  0  0  0  0  0  0  0  0  0  0  0
   29.3962   16.9251   -6.1739 C   0  0  0  0  0  0  0  0  0  0  0  0
   30.0979   15.0380  -12.0003 C   0  0  0  0  0  0  0  0  0  0  0  0
   28.8900   14.7622  -11.3262 O   0  0  0  0  0  0  0  0  0  0  0  0
   28.1637   14.6512  -12.0039 H   0  0  0  0  0  0  0  0  0  0  0  0
 64 65  1  0  0  0
 65 66  1  0  0  0
 65 63  1  0  0  0
 63 37  1  0  0  0
 37 38  1  0  0  0
 38 39  1  0  0  0
 39 40  2  0  0  0
 39 42  1  0  0  0
 42 56  1  0  0  0
 56 57  1  0  0  0
 57 58  1  0  0  0
 58 59  1  0  0  0
 58 60  2  0  0  0
 42 43  1  0  0  0
 43 44  1  0  0  0
 44 45  2  0  0  0
 44 47  1  0  0  0
 47 48  1  0  0  0
 48 49  1  0  0  0
 49 50  1  0  0  0
 49 51  2  0  0  0
 47 53  1  0  0  0
 53 54  1  0  0  0
 53 55  1  0  0  0
 37 33  1  0  0  0
 33 34  2  0  0  0
 33 35  1  0  0  0
 35  1  1  0  0  0
  1 67  1  0  0  0
 67 68  1  0  0  0
  1  2  1  0  0  0
  2  3  2  0  0  0
  2  4  1  0  0  0
  4  6  1  0  0  0
  6 30  1  0  0  0
 30 31  1  0  0  0
  6  7  1  0  0  0
  7  8  2  0  0  0
  7  9  1  0  0  0
  9 11  1  0  0  0
 11 27  1  0  0  0
 27 28  1  0  0  0
 27 29  1  0  0  0
 11 12  1  0  0  0
 12 13  2  0  0  0
 12 14  1  0  0  0
 14 16  1  0  0  0
 16 22  1  0  0  0
 22 23  1  0  0  0
 23 24  1  0  0  0
 23 25  2  0  0  0
 16 17  1  0  0  0
 17 18  1  0  0  0
 17 19  2  0  0  0
 38 41  1  0  0  0
 59 61  1  0  0  0
 59 62  1  0  0  0
 43 46  1  0  0  0
 48 52  1  0  0  0
 35 36  1  0  0  0
 68 69  1  0  0  0
  4  5  1  0  0  0
 31 32  1  0  0  0
  9 10  1  0  0  0
 14 15  1  0  0  0
 24 26  1  0  0  0
 18 20  1  0  0  0
 18 21  1  0  0  0
M  END
> <minimizedAffinity>
-8.27887

> <CNNscore>
0.3675687015

> <CNNaffinity>
6.8374428749

> <CNN_VS>
2.5132300854

> <CNNaffinity_variance>
0.8639310598

$$$$
[H]OC(=O)C([H])([H])[C@@]([H])(C(=O)N([H])[H])N([H])C(=O)[C@@]([H])(N([H])C(=O)[C@@]([H])(N([H])C(=O)[C@@]([H])(N([H])C(=O)[C@@]([H])(N([H])C(=O)[C@@]([H])(N([H])C(=O)[C@@]([H])(N([H])C(=O)C([H])([H])[H])C([H])(C([H])([H])[H])C([H])([H])[H])C([H])([H])C([H])([H])C(=O)N([H])[H])C([H])([H])C([H])(C([H])([H])[H])C([H])([H])[H])C([H])([H])O[H])C([H])([H])O[H])C([H])(C([H])([H])[H])C([H])([H])[H]


 69 68  0  0  0  0  0  0  0  0999 V2000
   40.9727   15.7448   -8.5584 C   0  0  0  0  0  0  0  0  0  0  0  0
   42.2893   15.6519   -9.2601 C   0  0  0  0  0  0  0  0  0  0  0  0
   43.1350   16.5352   -9.4059 O   0  0  0  0  0  0  0  0  0  0  0  0
   42.6259   14.3610   -9.8224 N   0  0  0  0  0  0  0  0  0  0  0  0
   41.9697   13.5777   -9.7543 H   0  0  0  0  0  0  0  0  0  0  0  0
   43.8959   14.1140  -10.4923 C   0  0  0  0  0  0  0  0  0  0  0  0
   43.9671   14.7600  -11.8006 C   0  0  0  0  0  0  0  0  0  0  0  0
   43.1864   14.2999  -12.7055 O   0  0  0  0  0  0  0  0  0  0  0  0
   44.8241   15.8186  -12.1083 N   0  0  0  0  0  0  0  0  0  0  0  0
   45.4805   16.2423  -11.4494 H   0  0  0  0  0  0  0  0  0  0  0  0
   44.8170   16.4026  -13.4722 C   0  0  0  0  0  0  0  0  0  0  0  0
   45.5944   15.4827  -14.3158 C   0  0  0  0  0  0  0  0  0  0  0  0
   44.9556   14.8921  -15.3034 O   0  0  0  0  0  0  0  0  0  0  0  0
   46.9180   15.1538  -14.2103 N   0  0  0  0  0  0  0  0  0  0  0  0
   47.4714   15.6137  -13.4163 H   0  0  0  0  0  0  0  0  0  0  0  0
   47.7038   14.2232  -15.0388 C   0  0  0  0  0  0  0  0  0  0  0  0
   47.9781   13.0601  -14.2365 C   0  0  0  0  0  0  0  0  0  0  0  0
   47.7039   12.8735  -12.8703 N   0  0  0  0  0  0  0  0  0  0  0  0
   48.5488   12.0231  -14.7990 O   0  0  0  0  0  0  0  0  0  0  0  0
   47.6086   11.8713  -12.4794 H   0  0  0  0  0  0  0  0  0  0  0  0
   47.5973   13.6510  -12.2401 H   0  0  0  0  0  0  0  0  0  0  0  0
   48.9645   14.9737  -15.4940 C   0  0  0  0  0  0  0  0  0  0  0  0
   48.7619   16.4476  -15.2444 C   0  0  0  0  0  0  0  0  0  0  0  0
   48.0983   17.1591  -16.1653 O   0  0  0  0  0  0  0  0  0  0  0  0
   49.2395   16.9328  -14.1648 O   0  0  0  0  0  0  0  0  0  0  0  0
   48.0260   16.8585  -17.1410 H   0  0  0  0  0  0  0  0  0  0  0  0
   45.5054   17.7710  -13.3346 C   0  0  0  0  0  0  0  0  0  0  0  0
   46.2652   17.8794  -12.0368 C   0  0  0  0  0  0  0  0  0  0  0  0
   44.3984   18.8492  -13.3927 C   0  0  0  0  0  0  0  0  0  0  0  0
   44.1019   12.5995  -10.5630 C   0  0  0  0  0  0  0  0  0  0  0  0
   45.0623   12.2018  -11.4411 O   0  0  0  0  0  0  0  0  0  0  0  0
   45.9827   12.1998  -11.1463 H   0  0  0  0  0  0  0  0  0  0  0  0
   39.0557   15.9966  -10.0930 C   0  0  0  0  0  0  0  0  0  0  0  0
   39.2074   17.2695   -9.9658 O   0  0  0  0  0  0  0  0  0  0  0  0
   39.9452   15.1312   -9.3988 N   0  0  0  0  0  0  0  0  0  0  0  0
   39.8930   14.1107   -9.4669 H   0  0  0  0  0  0  0  0  0  0  0  0
   37.9666   15.4783  -10.9579 C   0  0  0  0  0  0  0  0  0  0  0  0
   38.4348   14.6294  -11.9908 N   0  0  0  0  0  0  0  0  0  0  0  0
   39.3248   14.8663  -13.0524 C   0  0  0  0  0  0  0  0  0  0  0  0
   39.8309   16.0072  -13.1459 O   0  0  0  0  0  0  0  0  0  0  0  0
   38.0456   13.6268  -11.9653 H   0  0  0  0  0  0  0  0  0  0  0  0
   39.6643   13.8065  -14.0484 C   0  0  0  0  0  0  0  0  0  0  0  0
   38.4744   13.3929  -14.7840 N   0  0  0  0  0  0  0  0  0  0  0  0
   37.7197   12.2777  -14.4407 C   0  0  0  0  0  0  0  0  0  0  0  0
   38.0807   11.5970  -13.4502 O   0  0  0  0  0  0  0  0  0  0  0  0
   38.2370   14.0024  -15.6065 H   0  0  0  0  0  0  0  0  0  0  0  0
   36.5082   11.8542  -15.1882 C   0  0  0  0  0  0  0  0  0  0  0  0
   35.4482   12.8408  -14.9986 N   0  0  0  0  0  0  0  0  0  0  0  0
   34.5864   12.8293  -13.8973 C   0  0  0  0  0  0  0  0  0  0  0  0
   33.5246   13.8588  -13.7430 C   0  0  0  0  0  0  0  0  0  0  0  0
   34.6912   11.9527  -13.0188 O   0  0  0  0  0  0  0  0  0  0  0  0
   35.3378   13.5718  -15.7201 H   0  0  0  0  0  0  0  0  0  0  0  0
   36.7436   11.7232  -16.6830 C   0  0  0  0  0  0  0  0  0  0  0  0
   38.0011   10.9832  -17.0146 C   0  0  0  0  0  0  0  0  0  0  0  0
   35.5546   11.2004  -17.4273 C   0  0  0  0  0  0  0  0  0  0  0  0
   40.7939   14.1719  -14.9727 C   0  0  0  0  0  0  0  0  0  0  0  0
   41.5118   13.0056  -15.5316 C   0  0  0  0  0  0  0  0  0  0  0  0
   41.1500   12.8643  -16.9796 C   0  0  0  0  0  0  0  0  0  0  0  0
   41.9223   11.9257  -17.7546 N   0  0  0  0  0  0  0  0  0  0  0  0
   40.2497   13.4857  -17.5497 O   0  0  0  0  0  0  0  0  0  0  0  0
   41.4498   11.1908  -18.3101 H   0  0  0  0  0  0  0  0  0  0  0  0
   42.9590   11.9806  -17.7634 H   0  0  0  0  0  0  0  0  0  0  0  0
   36.9508   14.8221  -10.0552 C   0  0  0  0  0  0  0  0  0  0  0  0
   35.4860   16.6051   -9.0942 C   0  0  0  0  0  0  0  0  0  0  0  0
   35.6053   15.4976  -10.1178 C   0  0  0  0  0  0  0  0  0  0  0  0
   35.3613   16.1071  -11.4926 C   0  0  0  0  0  0  0  0  0  0  0  0
   41.0162   15.1810   -7.1873 C   0  0  0  0  0  0  0  0  0  0  0  0
   39.8536   14.4379   -6.8941 O   0  0  0  0  0  0  0  0  0  0  0  0
   39.6713   14.5031   -5.9135 H   0  0  0  0  0  0  0  0  0  0  0  0
 64 65  1  0  0  0
 65 66  1  0  0  0
 65 63  1  0  0  0
 63 37  1  0  0  0
 37 38  1  0  0  0
 38 39  1  0  0  0
 39 40  2  0  0  0
 39 42  1  0  0  0
 42 56  1  0  0  0
 56 57  1  0  0  0
 57 58  1  0  0  0
 58 59  1  0  0  0
 58 60  2  0  0  0
 42 43  1  0  0  0
 43 44  1  0  0  0
 44 45  2  0  0  0
 44 47  1  0  0  0
 47 48  1  0  0  0
 48 49  1  0  0  0
 49 50  1  0  0  0
 49 51  2  0  0  0
 47 53  1  0  0  0
 53 54  1  0  0  0
 53 55  1  0  0  0
 37 33  1  0  0  0
 33 34  2  0  0  0
 33 35  1  0  0  0
 35  1  1  0  0  0
  1 67  1  0  0  0
 67 68  1  0  0  0
  1  2  1  0  0  0
  2  3  2  0  0  0
  2  4  1  0  0  0
  4  6  1  0  0  0
  6 30  1  0  0  0
 30 31  1  0  0  0
  6  7  1  0  0  0
  7  8  2  0  0  0
  7  9  1  0  0  0
  9 11  1  0  0  0
 11 27  1  0  0  0
 27 28  1  0  0  0
 27 29  1  0  0  0
 11 12  1  0  0  0
 12 13  2  0  0  0
 12 14  1  0  0  0
 14 16  1  0  0  0
 16 22  1  0  0  0
 22 23  1  0  0  0
 23 24  1  0  0  0
 23 25  2  0  0  0
 16 17  1  0  0  0
 17 18  1  0  0  0
 17 19  2  0  0  0
 38 41  1  0  0  0
 59 61  1  0  0  0
 59 62  1  0  0  0
 43 46  1  0  0  0
 48 52  1  0  0  0
 35 36  1  0  0  0
 68 69  1  0  0  0
  4  5  1  0  0  0
 31 32  1  0  0  0
  9 10  1  0  0  0
 14 15  1  0  0  0
 24 26  1  0  0  0
 18 20  1  0  0  0
 18 21  1  0  0  0
M  END
> <minimizedAffinity>
-7.27810

> <CNNscore>
0.3042664528

> <CNNaffinity>
6.8909692764

> <CNN_VS>
2.0966908932

> <CNNaffinity_variance>
0.7876500487

$$$$
[H]OC(=O)C([H])([H])[C@@]([H])(C(=O)N([H])[H])N([H])C(=O)[C@@]([H])(N([H])C(=O)[C@@]([H])(N([H])C(=O)[C@@]([H])(N([H])C(=O)[C@@]([H])(N([H])C(=O)[C@@]([H])(N([H])C(=O)[C@@]([H])(N([H])C(=O)C([H])([H])[H])C([H])(C([H])([H])[H])C([H])([H])[H])C([H])([H])C([H])([H])C(=O)N([H])[H])C([H])([H])C([H])(C([H])([H])[H])C([H])([H])[H])C([H])([H])O[H])C([H])([H])O[H])C([H])(C([H])([H])[H])C([H])([H])[H]


 69 68  0  0  0  0  0  0  0  0999 V2000
   35.8558   14.1183  -11.8678 C   0  0  0  0  0  0  0  0  0  0  0  0
   34.5123   14.7472  -12.0520 C   0  0  0  0  0  0  0  0  0  0  0  0
   33.9045   14.9431  -13.1050 O   0  0  0  0  0  0  0  0  0  0  0  0
   33.8277   15.1609  -10.8453 N   0  0  0  0  0  0  0  0  0  0  0  0
   34.2719   15.0437   -9.9300 H   0  0  0  0  0  0  0  0  0  0  0  0
   32.4931   15.7447  -10.8719 C   0  0  0  0  0  0  0  0  0  0  0  0
   32.0416   16.1558   -9.5449 C   0  0  0  0  0  0  0  0  0  0  0  0
   30.7873   16.3789   -9.4145 O   0  0  0  0  0  0  0  0  0  0  0  0
   32.8850   16.3207   -8.4443 N   0  0  0  0  0  0  0  0  0  0  0  0
   33.8956   16.1687   -8.4616 H   0  0  0  0  0  0  0  0  0  0  0  0
   32.3218   16.7436   -7.1385 C   0  0  0  0  0  0  0  0  0  0  0  0
   33.0022   17.9986   -6.7861 C   0  0  0  0  0  0  0  0  0  0  0  0
   34.2747   18.0998   -7.1065 O   0  0  0  0  0  0  0  0  0  0  0  0
   32.4791   19.0962   -6.1593 N   0  0  0  0  0  0  0  0  0  0  0  0
   31.4453   19.0504   -5.8809 H   0  0  0  0  0  0  0  0  0  0  0  0
   33.1532   20.3521   -5.7875 C   0  0  0  0  0  0  0  0  0  0  0  0
   33.0067   20.5138   -4.3649 C   0  0  0  0  0  0  0  0  0  0  0  0
   32.2428   19.7282   -3.4841 N   0  0  0  0  0  0  0  0  0  0  0  0
   33.6420   21.4937   -3.7702 O   0  0  0  0  0  0  0  0  0  0  0  0
   32.4956   19.7080   -2.4343 H   0  0  0  0  0  0  0  0  0  0  0  0
   31.4589   19.1837   -3.8037 H   0  0  0  0  0  0  0  0  0  0  0  0
   32.5049   21.4764   -6.6093 C   0  0  0  0  0  0  0  0  0  0  0  0
   33.4490   21.8647   -7.7200 C   0  0  0  0  0  0  0  0  0  0  0  0
   34.5289   21.0996   -7.9277 O   0  0  0  0  0  0  0  0  0  0  0  0
   33.1623   22.9066   -8.3989 O   0  0  0  0  0  0  0  0  0  0  0  0
   34.9224   20.4993   -7.1979 H   0  0  0  0  0  0  0  0  0  0  0  0
   32.6688   15.6110   -6.1575 C   0  0  0  0  0  0  0  0  0  0  0  0
   31.7429   14.4327   -6.3241 C   0  0  0  0  0  0  0  0  0  0  0  0
   32.5418   16.1874   -4.7282 C   0  0  0  0  0  0  0  0  0  0  0  0
   31.5534   14.7360  -11.5357 C   0  0  0  0  0  0  0  0  0  0  0  0
   30.8434   13.9691  -10.6642 O   0  0  0  0  0  0  0  0  0  0  0  0
   30.0216   14.3259  -10.3016 H   0  0  0  0  0  0  0  0  0  0  0  0
   37.2613   13.0248  -13.5772 C   0  0  0  0  0  0  0  0  0  0  0  0
   37.1748   11.9539  -12.8666 O   0  0  0  0  0  0  0  0  0  0  0  0
   36.5908   14.1961  -13.1297 N   0  0  0  0  0  0  0  0  0  0  0  0
   36.6033   15.0768  -13.6522 H   0  0  0  0  0  0  0  0  0  0  0  0
   38.0501   12.9999  -14.8343 C   0  0  0  0  0  0  0  0  0  0  0  0
   39.4357   13.2075  -14.6240 N   0  0  0  0  0  0  0  0  0  0  0  0
   40.1460   14.3352  -14.1781 C   0  0  0  0  0  0  0  0  0  0  0  0
   39.4904   15.3626  -13.8929 O   0  0  0  0  0  0  0  0  0  0  0  0
   40.0596   12.3586  -14.8415 H   0  0  0  0  0  0  0  0  0  0  0  0
   41.6337   14.3290  -14.0468 C   0  0  0  0  0  0  0  0  0  0  0  0
   42.0251   14.2657  -12.6430 N   0  0  0  0  0  0  0  0  0  0  0  0
   42.5924   15.3375  -11.9645 C   0  0  0  0  0  0  0  0  0  0  0  0
   42.7743   16.4094  -12.5913 O   0  0  0  0  0  0  0  0  0  0  0  0
   41.8535   13.3357  -12.1845 H   0  0  0  0  0  0  0  0  0  0  0  0
   42.9924   15.2756  -10.5355 C   0  0  0  0  0  0  0  0  0  0  0  0
   41.9454   14.6109   -9.7642 N   0  0  0  0  0  0  0  0  0  0  0  0
   41.4009   15.1531   -8.5957 C   0  0  0  0  0  0  0  0  0  0  0  0
   40.3310   14.4426   -7.8461 C   0  0  0  0  0  0  0  0  0  0  0  0
   41.8025   16.2473   -8.1570 O   0  0  0  0  0  0  0  0  0  0  0  0
   41.6037   13.6976  -10.1054 H   0  0  0  0  0  0  0  0  0  0  0  0
   44.2813   14.5046  -10.3085 C   0  0  0  0  0  0  0  0  0  0  0  0
   44.0606   13.0358  -10.1284 C   0  0  0  0  0  0  0  0  0  0  0  0
   45.3403   14.8077  -11.3224 C   0  0  0  0  0  0  0  0  0  0  0  0
   42.3179   13.2687  -14.8662 C   0  0  0  0  0  0  0  0  0  0  0  0
   43.7472   13.5440  -15.1291 C   0  0  0  0  0  0  0  0  0  0  0  0
   44.2827   12.4846  -16.0446 C   0  0  0  0  0  0  0  0  0  0  0  0
   43.4421   12.0927  -17.1482 N   0  0  0  0  0  0  0  0  0  0  0  0
   45.3780   11.9299  -15.9238 O   0  0  0  0  0  0  0  0  0  0  0  0
   43.8114   12.0966  -18.1155 H   0  0  0  0  0  0  0  0  0  0  0  0
   42.4596   11.8013  -16.9814 H   0  0  0  0  0  0  0  0  0  0  0  0
   37.7370   11.7003  -15.5346 C   0  0  0  0  0  0  0  0  0  0  0  0
   36.8570   10.8542  -17.7159 C   0  0  0  0  0  0  0  0  0  0  0  0
   36.6842   11.8614  -16.6005 C   0  0  0  0  0  0  0  0  0  0  0  0
   35.2864   11.6795  -16.0224 C   0  0  0  0  0  0  0  0  0  0  0  0
   36.6027   14.6935  -10.7229 C   0  0  0  0  0  0  0  0  0  0  0  0
   36.1159   14.2111   -9.4901 O   0  0  0  0  0  0  0  0  0  0  0  0
   36.2474   14.9179   -8.7957 H   0  0  0  0  0  0  0  0  0  0  0  0
 64 65  1  0  0  0
 65 66  1  0  0  0
 65 63  1  0  0  0
 63 37  1  0  0  0
 37 38  1  0  0  0
 38 39  1  0  0  0
 39 40  2  0  0  0
 39 42  1  0  0  0
 42 56  1  0  0  0
 56 57  1  0  0  0
 57 58  1  0  0  0
 58 59  1  0  0  0
 58 60  2  0  0  0
 42 43  1  0  0  0
 43 44  1  0  0  0
 44 45  2  0  0  0
 44 47  1  0  0  0
 47 48  1  0  0  0
 48 49  1  0  0  0
 49 50  1  0  0  0
 49 51  2  0  0  0
 47 53  1  0  0  0
 53 54  1  0  0  0
 53 55  1  0  0  0
 37 33  1  0  0  0
 33 34  2  0  0  0
 33 35  1  0  0  0
 35  1  1  0  0  0
  1 67  1  0  0  0
 67 68  1  0  0  0
  1  2  1  0  0  0
  2  3  2  0  0  0
  2  4  1  0  0  0
  4  6  1  0  0  0
  6 30  1  0  0  0
 30 31  1  0  0  0
  6  7  1  0  0  0
  7  8  2  0  0  0
  7  9  1  0  0  0
  9 11  1  0  0  0
 11 27  1  0  0  0
 27 28  1  0  0  0
 27 29  1  0  0  0
 11 12  1  0  0  0
 12 13  2  0  0  0
 12 14  1  0  0  0
 14 16  1  0  0  0
 16 22  1  0  0  0
 22 23  1  0  0  0
 23 24  1  0  0  0
 23 25  2  0  0  0
 16 17  1  0  0  0
 17 18  1  0  0  0
 17 19  2  0  0  0
 38 41  1  0  0  0
 59 61  1  0  0  0
 59 62  1  0  0  0
 43 46  1  0  0  0
 48 52  1  0  0  0
 35 36  1  0  0  0
 68 69  1  0  0  0
  4  5  1  0  0  0
 31 32  1  0  0  0
  9 10  1  0  0  0
 14 15  1  0  0  0
 24 26  1  0  0  0
 18 20  1  0  0  0
 18 21  1  0  0  0
M  END
> <minimizedAffinity>
-8.08499

> <CNNscore>
0.3008810878

> <CNNaffinity>
6.5817704201

> <CNN_VS>
1.9803302288

> <CNNaffinity_variance>
0.8728535771

$$$$
[H]OC(=O)C([H])([H])[C@@]([H])(C(=O)N([H])[H])N([H])C(=O)[C@@]([H])(N([H])C(=O)[C@@]([H])(N([H])C(=O)[C@@]([H])(N([H])C(=O)[C@@]([H])(N([H])C(=O)[C@@]([H])(N([H])C(=O)[C@@]([H])(N([H])C(=O)C([H])([H])[H])C([H])(C([H])([H])[H])C([H])([H])[H])C([H])([H])C([H])([H])C(=O)N([H])[H])C([H])([H])C([H])(C([H])([H])[H])C([H])([H])[H])C([H])([H])O[H])C([H])([H])O[H])C([H])(C([H])([H])[H])C([H])([H])[H]


 69 68  0  0  0  0  0  0  0  0999 V2000
   36.1432   15.5310  -12.3441 C   0  0  0  0  0  0  0  0  0  0  0  0
   36.7796   15.6011  -10.9934 C   0  0  0  0  0  0  0  0  0  0  0  0
   37.8424   15.0972  -10.6286 O   0  0  0  0  0  0  0  0  0  0  0  0
   36.0735   16.3719   -9.9918 N   0  0  0  0  0  0  0  0  0  0  0  0
   35.1758   16.8123  -10.2128 H   0  0  0  0  0  0  0  0  0  0  0  0
   36.6003   16.5640   -8.6471 C   0  0  0  0  0  0  0  0  0  0  0  0
   35.7049   16.0365   -7.6206 C   0  0  0  0  0  0  0  0  0  0  0  0
   36.2570   15.3988   -6.6569 O   0  0  0  0  0  0  0  0  0  0  0  0
   34.3162   16.1814   -7.6397 N   0  0  0  0  0  0  0  0  0  0  0  0
   33.7951   16.6701   -8.3708 H   0  0  0  0  0  0  0  0  0  0  0  0
   33.4977   15.6044   -6.5449 C   0  0  0  0  0  0  0  0  0  0  0  0
   32.4041   14.8677   -7.1956 C   0  0  0  0  0  0  0  0  0  0  0  0
   32.0648   13.7108   -6.6677 O   0  0  0  0  0  0  0  0  0  0  0  0
   31.6776   15.2314   -8.2960 N   0  0  0  0  0  0  0  0  0  0  0  0
   31.9263   16.1672   -8.7552 H   0  0  0  0  0  0  0  0  0  0  0  0
   30.5911   14.4960   -8.9658 C   0  0  0  0  0  0  0  0  0  0  0  0
   30.6464   14.8276  -10.3652 C   0  0  0  0  0  0  0  0  0  0  0  0
   31.4954   15.7533  -10.9969 N   0  0  0  0  0  0  0  0  0  0  0  0
   29.8307   14.2212  -11.1925 O   0  0  0  0  0  0  0  0  0  0  0  0
   31.7039   15.6498  -12.0515 H   0  0  0  0  0  0  0  0  0  0  0  0
   31.9143   16.5176  -10.4935 H   0  0  0  0  0  0  0  0  0  0  0  0
   29.2771   14.9054   -8.2832 C   0  0  0  0  0  0  0  0  0  0  0  0
   28.6437   13.6742   -7.6842 C   0  0  0  0  0  0  0  0  0  0  0  0
   29.2227   13.1260   -6.6076 O   0  0  0  0  0  0  0  0  0  0  0  0
   27.5885   13.2239   -8.2432 O   0  0  0  0  0  0  0  0  0  0  0  0
   30.2106   13.2726   -6.3837 H   0  0  0  0  0  0  0  0  0  0  0  0
   32.9771   16.8101   -5.7446 C   0  0  0  0  0  0  0  0  0  0  0  0
   32.9686   18.0656   -6.5795 C   0  0  0  0  0  0  0  0  0  0  0  0
   33.9120   16.9898   -4.5260 C   0  0  0  0  0  0  0  0  0  0  0  0
   36.8993   18.0541   -8.4693 C   0  0  0  0  0  0  0  0  0  0  0  0
   36.3620   18.6067   -7.3478 O   0  0  0  0  0  0  0  0  0  0  0  0
   36.8483   18.5251   -6.5166 H   0  0  0  0  0  0  0  0  0  0  0  0
   37.5408   13.8732  -13.5239 C   0  0  0  0  0  0  0  0  0  0  0  0
   36.9385   12.9708  -12.8292 O   0  0  0  0  0  0  0  0  0  0  0  0
   37.1747   15.2344  -13.3375 N   0  0  0  0  0  0  0  0  0  0  0  0
   37.5999   16.0011  -13.8668 H   0  0  0  0  0  0  0  0  0  0  0  0
   38.5880   13.4642  -14.4929 C   0  0  0  0  0  0  0  0  0  0  0  0
   39.9023   13.6142  -13.9856 N   0  0  0  0  0  0  0  0  0  0  0  0
   40.6105   14.7551  -13.5710 C   0  0  0  0  0  0  0  0  0  0  0  0
   40.0238   15.8592  -13.6292 O   0  0  0  0  0  0  0  0  0  0  0  0
   40.4625   12.6997  -13.9000 H   0  0  0  0  0  0  0  0  0  0  0  0
   42.0181   14.6739  -13.0788 C   0  0  0  0  0  0  0  0  0  0  0  0
   42.0680   14.8584  -11.6326 N   0  0  0  0  0  0  0  0  0  0  0  0
   42.7358   15.9149  -11.0252 C   0  0  0  0  0  0  0  0  0  0  0  0
   43.3217   16.7484  -11.7579 O   0  0  0  0  0  0  0  0  0  0  0  0
   41.5651   14.1183  -11.0815 H   0  0  0  0  0  0  0  0  0  0  0  0
   42.7886   16.1047   -9.5531 C   0  0  0  0  0  0  0  0  0  0  0  0
   42.0432   15.0344   -8.8961 N   0  0  0  0  0  0  0  0  0  0  0  0
   40.7416   15.1999   -8.4123 C   0  0  0  0  0  0  0  0  0  0  0  0
   40.0188   14.0788   -7.7551 C   0  0  0  0  0  0  0  0  0  0  0  0
   40.1582   16.2947   -8.5226 O   0  0  0  0  0  0  0  0  0  0  0  0
   42.5117   14.1203   -8.7860 H   0  0  0  0  0  0  0  0  0  0  0  0
   44.2022   16.0799   -8.9976 C   0  0  0  0  0  0  0  0  0  0  0  0
   44.5474   17.3116   -8.2213 C   0  0  0  0  0  0  0  0  0  0  0  0
   44.5255   14.8212   -8.2543 C   0  0  0  0  0  0  0  0  0  0  0  0
   42.7483   13.4307  -13.5091 C   0  0  0  0  0  0  0  0  0  0  0  0
   43.7144   13.6529  -14.6069 C   0  0  0  0  0  0  0  0  0  0  0  0
   43.1919   12.9978  -15.8500 C   0  0  0  0  0  0  0  0  0  0  0  0
   44.1236   12.8276  -16.9367 N   0  0  0  0  0  0  0  0  0  0  0  0
   42.0357   12.5981  -16.0089 O   0  0  0  0  0  0  0  0  0  0  0  0
   44.2580   11.8974  -17.3711 H   0  0  0  0  0  0  0  0  0  0  0  0
   44.6663   13.6376  -17.2939 H   0  0  0  0  0  0  0  0  0  0  0  0
   38.2698   12.0551  -14.9292 C   0  0  0  0  0  0  0  0  0  0  0  0
   39.0192   11.1125  -17.1197 C   0  0  0  0  0  0  0  0  0  0  0  0
   37.9893   11.9608  -16.4067 C   0  0  0  0  0  0  0  0  0  0  0  0
   36.6199   11.3457  -16.6666 C   0  0  0  0  0  0  0  0  0  0  0  0
   35.0028   14.5839  -12.3889 C   0  0  0  0  0  0  0  0  0  0  0  0
   34.1465   14.7492  -11.2803 O   0  0  0  0  0  0  0  0  0  0  0  0
   33.7312   13.8664  -11.0626 H   0  0  0  0  0  0  0  0  0  0  0  0
 64 65  1  0  0  0
 65 66  1  0  0  0
 65 63  1  0  0  0
 63 37  1  0  0  0
 37 38  1  0  0  0
 38 39  1  0  0  0
 39 40  2  0  0  0
 39 42  1  0  0  0
 42 56  1  0  0  0
 56 57  1  0  0  0
 57 58  1  0  0  0
 58 59  1  0  0  0
 58 60  2  0  0  0
 42 43  1  0  0  0
 43 44  1  0  0  0
 44 45  2  0  0  0
 44 47  1  0  0  0
 47 48  1  0  0  0
 48 49  1  0  0  0
 49 50  1  0  0  0
 49 51  2  0  0  0
 47 53  1  0  0  0
 53 54  1  0  0  0
 53 55  1  0  0  0
 37 33  1  0  0  0
 33 34  2  0  0  0
 33 35  1  0  0  0
 35  1  1  0  0  0
  1 67  1  0  0  0
 67 68  1  0  0  0
  1  2  1  0  0  0
  2  3  2  0  0  0
  2  4  1  0  0  0
  4  6  1  0  0  0
  6 30  1  0  0  0
 30 31  1  0  0  0
  6  7  1  0  0  0
  7  8  2  0  0  0
  7  9  1  0  0  0
  9 11  1  0  0  0
 11 27  1  0  0  0
 27 28  1  0  0  0
 27 29  1  0  0  0
 11 12  1  0  0  0
 12 13  2  0  0  0
 12 14  1  0  0  0
 14 16  1  0  0  0
 16 22  1  0  0  0
 22 23  1  0  0  0
 23 24  1  0  0  0
 23 25  2  0  0  0
 16 17  1  0  0  0
 17 18  1  0  0  0
 17 19  2  0  0  0
 38 41  1  0  0  0
 59 61  1  0  0  0
 59 62  1  0  0  0
 43 46  1  0  0  0
 48 52  1  0  0  0
 35 36  1  0  0  0
 68 69  1  0  0  0
  4  5  1  0  0  0
 31 32  1  0  0  0
  9 10  1  0  0  0
 14 15  1  0  0  0
 24 26  1  0  0  0
 18 20  1  0  0  0
 18 21  1  0  0  0
M  END
> <minimizedAffinity>
-7.34470

> <CNNscore>
0.2917976081

> <CNNaffinity>
6.7928748131

> <CNN_VS>
1.9821445942

> <CNNaffinity_variance>
0.6633350849

$$$$
[H]OC(=O)C([H])([H])[C@@]([H])(C(=O)N([H])[H])N([H])C(=O)[C@@]([H])(N([H])C(=O)[C@@]([H])(N([H])C(=O)[C@@]([H])(N([H])C(=O)[C@@]([H])(N([H])C(=O)[C@@]([H])(N([H])C(=O)[C@@]([H])(N([H])C(=O)C([H])([H])[H])C([H])(C([H])([H])[H])C([H])([H])[H])C([H])([H])C([H])([H])C(=O)N([H])[H])C([H])([H])C([H])(C([H])([H])[H])C([H])([H])[H])C([H])([H])O[H])C([H])([H])O[H])C([H])(C([H])([H])[H])C([H])([H])[H]


 69 68  0  0  0  0  0  0  0  0999 V2000
   37.9615   15.2148   -9.8316 C   0  0  0  0  0  0  0  0  0  0  0  0
   36.7539   16.0875   -9.7116 C   0  0  0  0  0  0  0  0  0  0  0  0
   36.6609   17.2913   -9.9545 O   0  0  0  0  0  0  0  0  0  0  0  0
   35.5353   15.4388   -9.2756 N   0  0  0  0  0  0  0  0  0  0  0  0
   35.5327   14.4418   -9.0417 H   0  0  0  0  0  0  0  0  0  0  0  0
   34.2730   16.1570   -9.1594 C   0  0  0  0  0  0  0  0  0  0  0  0
   33.6450   15.9663   -7.8544 C   0  0  0  0  0  0  0  0  0  0  0  0
   34.2246   15.1474   -7.0583 O   0  0  0  0  0  0  0  0  0  0  0  0
   32.4740   16.6073   -7.4449 N   0  0  0  0  0  0  0  0  0  0  0  0
   31.9466   17.2702   -8.0169 H   0  0  0  0  0  0  0  0  0  0  0  0
   31.9188   16.3407   -6.0951 C   0  0  0  0  0  0  0  0  0  0  0  0
   30.6772   15.5816   -6.3054 C   0  0  0  0  0  0  0  0  0  0  0  0
   29.5518   16.1653   -5.9519 O   0  0  0  0  0  0  0  0  0  0  0  0
   30.5325   14.3269   -6.8307 N   0  0  0  0  0  0  0  0  0  0  0  0
   31.4276   13.8185   -7.1287 H   0  0  0  0  0  0  0  0  0  0  0  0
   29.2971   13.5504   -7.0323 C   0  0  0  0  0  0  0  0  0  0  0  0
   29.6306   12.1605   -6.8639 C   0  0  0  0  0  0  0  0  0  0  0  0
   29.0117   11.0489   -7.4621 N   0  0  0  0  0  0  0  0  0  0  0  0
   30.6231   11.8390   -6.0708 O   0  0  0  0  0  0  0  0  0  0  0  0
   29.5597   10.1233   -7.5584 H   0  0  0  0  0  0  0  0  0  0  0  0
   28.0650   11.0884   -7.8017 H   0  0  0  0  0  0  0  0  0  0  0  0
   28.7668   13.8956   -8.4322 C   0  0  0  0  0  0  0  0  0  0  0  0
   29.9180   14.3882   -9.2734 C   0  0  0  0  0  0  0  0  0  0  0  0
   30.7713   13.4822   -9.7692 O   0  0  0  0  0  0  0  0  0  0  0  0
   30.0126   15.6468   -9.4624 O   0  0  0  0  0  0  0  0  0  0  0  0
   30.8901   12.5560   -9.3500 H   0  0  0  0  0  0  0  0  0  0  0  0
   31.6450   17.7256   -5.4848 C   0  0  0  0  0  0  0  0  0  0  0  0
   32.3355   18.8181   -6.2615 C   0  0  0  0  0  0  0  0  0  0  0  0
   32.1683   17.6972   -4.0299 C   0  0  0  0  0  0  0  0  0  0  0  0
   33.3776   15.7220  -10.3214 C   0  0  0  0  0  0  0  0  0  0  0  0
   34.0364   15.1060  -11.3404 O   0  0  0  0  0  0  0  0  0  0  0  0
   34.2116   14.1582  -11.2684 H   0  0  0  0  0  0  0  0  0  0  0  0
   37.3587   14.0350  -11.9145 C   0  0  0  0  0  0  0  0  0  0  0  0
   36.3944   13.4969  -11.2512 O   0  0  0  0  0  0  0  0  0  0  0  0
   38.2161   14.9527  -11.2476 N   0  0  0  0  0  0  0  0  0  0  0  0
   38.9915   15.4294  -11.7169 H   0  0  0  0  0  0  0  0  0  0  0  0
   37.5397   13.6846  -13.3453 C   0  0  0  0  0  0  0  0  0  0  0  0
   38.9003   13.5471  -13.7151 N   0  0  0  0  0  0  0  0  0  0  0  0
   39.9124   14.5055  -13.8957 C   0  0  0  0  0  0  0  0  0  0  0  0
   39.6201   15.7067  -13.7002 O   0  0  0  0  0  0  0  0  0  0  0  0
   39.2229   12.5359  -13.8901 H   0  0  0  0  0  0  0  0  0  0  0  0
   41.2950   14.1236  -14.3113 C   0  0  0  0  0  0  0  0  0  0  0  0
   42.1248   13.8485  -13.1435 N   0  0  0  0  0  0  0  0  0  0  0  0
   42.9353   14.8062  -12.5461 C   0  0  0  0  0  0  0  0  0  0  0  0
   42.9512   15.9615  -13.0360 O   0  0  0  0  0  0  0  0  0  0  0  0
   42.0698   12.8591  -12.7934 H   0  0  0  0  0  0  0  0  0  0  0  0
   43.7815   14.5287  -11.3575 C   0  0  0  0  0  0  0  0  0  0  0  0
   43.0566   14.8999  -10.1452 N   0  0  0  0  0  0  0  0  0  0  0  0
   43.3599   16.0419   -9.3972 C   0  0  0  0  0  0  0  0  0  0  0  0
   42.5899   16.3835   -8.1718 C   0  0  0  0  0  0  0  0  0  0  0  0
   44.2853   16.8000   -9.7436 O   0  0  0  0  0  0  0  0  0  0  0  0
   42.2907   14.2801   -9.8347 H   0  0  0  0  0  0  0  0  0  0  0  0
   44.1655   13.0650  -11.2259 C   0  0  0  0  0  0  0  0  0  0  0  0
   45.4491   12.7323  -11.9191 C   0  0  0  0  0  0  0  0  0  0  0  0
   44.1271   12.5662   -9.8149 C   0  0  0  0  0  0  0  0  0  0  0  0
   41.3474   13.0004  -15.3112 C   0  0  0  0  0  0  0  0  0  0  0  0
   41.1655   13.4369  -16.7127 C   0  0  0  0  0  0  0  0  0  0  0  0
   40.3300   12.4201  -17.4306 C   0  0  0  0  0  0  0  0  0  0  0  0
   39.3521   11.7096  -16.6452 N   0  0  0  0  0  0  0  0  0  0  0  0
   40.4174   12.1501  -18.6312 O   0  0  0  0  0  0  0  0  0  0  0  0
   38.3624   11.6748  -16.9471 H   0  0  0  0  0  0  0  0  0  0  0  0
   39.6333   11.2253  -15.7709 H   0  0  0  0  0  0  0  0  0  0  0  0
   36.7171   12.4477  -13.6117 C   0  0  0  0  0  0  0  0  0  0  0  0
   34.3015   12.1873  -14.1995 C   0  0  0  0  0  0  0  0  0  0  0  0
   35.6573   12.6771  -14.6581 C   0  0  0  0  0  0  0  0  0  0  0  0
   35.5280   14.1579  -14.9921 C   0  0  0  0  0  0  0  0  0  0  0  0
   39.1392   15.7699   -9.1216 C   0  0  0  0  0  0  0  0  0  0  0  0
   39.4425   17.0757   -9.5605 O   0  0  0  0  0  0  0  0  0  0  0  0
   40.4280   17.2201   -9.4776 H   0  0  0  0  0  0  0  0  0  0  0  0
 64 65  1  0  0  0
 65 66  1  0  0  0
 65 63  1  0  0  0
 63 37  1  0  0  0
 37 38  1  0  0  0
 38 39  1  0  0  0
 39 40  2  0  0  0
 39 42  1  0  0  0
 42 56  1  0  0  0
 56 57  1  0  0  0
 57 58  1  0  0  0
 58 59  1  0  0  0
 58 60  2  0  0  0
 42 43  1  0  0  0
 43 44  1  0  0  0
 44 45  2  0  0  0
 44 47  1  0  0  0
 47 48  1  0  0  0
 48 49  1  0  0  0
 49 50  1  0  0  0
 49 51  2  0  0  0
 47 53  1  0  0  0
 53 54  1  0  0  0
 53 55  1  0  0  0
 37 33  1  0  0  0
 33 34  2  0  0  0
 33 35  1  0  0  0
 35  1  1  0  0  0
  1 67  1  0  0  0
 67 68  1  0  0  0
  1  2  1  0  0  0
  2  3  2  0  0  0
  2  4  1  0  0  0
  4  6  1  0  0  0
  6 30  1  0  0  0
 30 31  1  0  0  0
  6  7  1  0  0  0
  7  8  2  0  0  0
  7  9  1  0  0  0
  9 11  1  0  0  0
 11 27  1  0  0  0
 27 28  1  0  0  0
 27 29  1  0  0  0
 11 12  1  0  0  0
 12 13  2  0  0  0
 12 14  1  0  0  0
 14 16  1  0  0  0
 16 22  1  0  0  0
 22 23  1  0  0  0
 23 24  1  0  0  0
 23 25  2  0  0  0
 16 17  1  0  0  0
 17 18  1  0  0  0
 17 19  2  0  0  0
 38 41  1  0  0  0
 59 61  1  0  0  0
 59 62  1  0  0  0
 43 46  1  0  0  0
 48 52  1  0  0  0
 35 36  1  0  0  0
 68 69  1  0  0  0
  4  5  1  0  0  0
 31 32  1  0  0  0
  9 10  1  0  0  0
 14 15  1  0  0  0
 24 26  1  0  0  0
 18 20  1  0  0  0
 18 21  1  0  0  0
M  END
> <minimizedAffinity>
-7.88362

> <CNNscore>
0.2749835849

> <CNNaffinity>
6.5705080032

> <CNN_VS>
1.8067818880

> <CNNaffinity_variance>
0.5744172931

$$$$
[H]OC(=O)C([H])([H])[C@@]([H])(C(=O)N([H])[H])N([H])C(=O)[C@@]([H])(N([H])C(=O)[C@@]([H])(N([H])C(=O)[C@@]([H])(N([H])C(=O)[C@@]([H])(N([H])C(=O)[C@@]([H])(N([H])C(=O)[C@@]([H])(N([H])C(=O)C([H])([H])[H])C([H])(C([H])([H])[H])C([H])([H])[H])C([H])([H])C([H])([H])C(=O)N([H])[H])C([H])([H])C([H])(C([H])([H])[H])C([H])([H])[H])C([H])([H])O[H])C([H])([H])O[H])C([H])(C([H])([H])[H])C([H])([H])[H]


 69 68  0  0  0  0  0  0  0  0999 V2000
   39.9950   14.4659   -7.5057 C   0  0  0  0  0  0  0  0  0  0  0  0
   39.3223   15.1213   -6.3428 C   0  0  0  0  0  0  0  0  0  0  0  0
   39.3359   16.3127   -6.0313 O   0  0  0  0  0  0  0  0  0  0  0  0
   38.5402   14.2566   -5.4844 N   0  0  0  0  0  0  0  0  0  0  0  0
   38.4888   13.2505   -5.6687 H   0  0  0  0  0  0  0  0  0  0  0  0
   37.7933   14.7670   -4.3423 C   0  0  0  0  0  0  0  0  0  0  0  0
   36.5491   15.4202   -4.7412 C   0  0  0  0  0  0  0  0  0  0  0  0
   35.7750   15.7969   -3.7931 O   0  0  0  0  0  0  0  0  0  0  0  0
   36.1679   15.6418   -6.0661 N   0  0  0  0  0  0  0  0  0  0  0  0
   36.7219   15.3702   -6.8810 H   0  0  0  0  0  0  0  0  0  0  0  0
   34.8792   16.3150   -6.3616 C   0  0  0  0  0  0  0  0  0  0  0  0
   33.9967   15.2818   -6.9236 C   0  0  0  0  0  0  0  0  0  0  0  0
   34.5379   14.1116   -7.1877 O   0  0  0  0  0  0  0  0  0  0  0  0
   32.6629   15.3756   -7.2125 N   0  0  0  0  0  0  0  0  0  0  0  0
   32.1871   16.3147   -7.0126 H   0  0  0  0  0  0  0  0  0  0  0  0
   31.7722   14.3539   -7.7891 C   0  0  0  0  0  0  0  0  0  0  0  0
   31.0631   14.9682   -8.8806 C   0  0  0  0  0  0  0  0  0  0  0  0
   31.1611   14.6641  -10.2497 N   0  0  0  0  0  0  0  0  0  0  0  0
   30.2110   15.9295   -8.6209 O   0  0  0  0  0  0  0  0  0  0  0  0
   30.3431   14.9132  -10.9094 H   0  0  0  0  0  0  0  0  0  0  0  0
   31.9781   14.2221  -10.6372 H   0  0  0  0  0  0  0  0  0  0  0  0
   30.8591   13.8565   -6.6582 C   0  0  0  0  0  0  0  0  0  0  0  0
   30.1203   12.6331   -7.1410 C   0  0  0  0  0  0  0  0  0  0  0  0
   30.6329   11.4299   -6.8506 O   0  0  0  0  0  0  0  0  0  0  0  0
   29.0451   12.8179   -7.8032 O   0  0  0  0  0  0  0  0  0  0  0  0
   31.6244   11.2954   -6.6350 H   0  0  0  0  0  0  0  0  0  0  0  0
   35.2142   17.4037   -7.3950 C   0  0  0  0  0  0  0  0  0  0  0  0
   36.6957   17.4703   -7.6672 C   0  0  0  0  0  0  0  0  0  0  0  0
   34.7197   18.7508   -6.8188 C   0  0  0  0  0  0  0  0  0  0  0  0
   38.7224   15.6877   -3.5483 C   0  0  0  0  0  0  0  0  0  0  0  0
   38.2890   16.9736   -3.4464 O   0  0  0  0  0  0  0  0  0  0  0  0
   37.6590   17.1926   -2.7470 H   0  0  0  0  0  0  0  0  0  0  0  0
   39.1037   15.3508   -9.6307 C   0  0  0  0  0  0  0  0  0  0  0  0
   40.0044   16.2681   -9.5487 O   0  0  0  0  0  0  0  0  0  0  0  0
   39.0398   14.3646   -8.6084 N   0  0  0  0  0  0  0  0  0  0  0  0
   38.3608   13.5981   -8.6181 H   0  0  0  0  0  0  0  0  0  0  0  0
   38.1703   15.3514  -10.7847 C   0  0  0  0  0  0  0  0  0  0  0  0
   38.6145   14.5403  -11.8579 N   0  0  0  0  0  0  0  0  0  0  0  0
   39.4188   14.8367  -12.9717 C   0  0  0  0  0  0  0  0  0  0  0  0
   39.8556   16.0045  -13.0817 O   0  0  0  0  0  0  0  0  0  0  0  0
   38.2824   13.5177  -11.8213 H   0  0  0  0  0  0  0  0  0  0  0  0
   39.7486   13.8078  -14.0026 C   0  0  0  0  0  0  0  0  0  0  0  0
   38.5532   13.4232  -14.7450 N   0  0  0  0  0  0  0  0  0  0  0  0
   37.7539   12.3435  -14.3894 C   0  0  0  0  0  0  0  0  0  0  0  0
   38.0776   11.6702  -13.3810 O   0  0  0  0  0  0  0  0  0  0  0  0
   38.3484   14.0241  -15.5825 H   0  0  0  0  0  0  0  0  0  0  0  0
   36.5367   11.9494  -15.1438 C   0  0  0  0  0  0  0  0  0  0  0  0
   35.4837   12.9366  -14.9209 N   0  0  0  0  0  0  0  0  0  0  0  0
   34.6359   12.9065  -13.8091 C   0  0  0  0  0  0  0  0  0  0  0  0
   33.5808   13.9373  -13.6206 C   0  0  0  0  0  0  0  0  0  0  0  0
   34.7478   12.0119  -12.9499 O   0  0  0  0  0  0  0  0  0  0  0  0
   35.3675   13.6825  -15.6261 H   0  0  0  0  0  0  0  0  0  0  0  0
   36.7652   11.8609  -16.6429 C   0  0  0  0  0  0  0  0  0  0  0  0
   38.0671   11.2150  -16.9991 C   0  0  0  0  0  0  0  0  0  0  0  0
   35.6072   11.2705  -17.3857 C   0  0  0  0  0  0  0  0  0  0  0  0
   40.8753   14.1974  -14.9205 C   0  0  0  0  0  0  0  0  0  0  0  0
   42.0923   13.3722  -14.7590 C   0  0  0  0  0  0  0  0  0  0  0  0
   42.4363   12.7551  -16.0812 C   0  0  0  0  0  0  0  0  0  0  0  0
   41.4362   12.8348  -17.1164 N   0  0  0  0  0  0  0  0  0  0  0  0
   43.5009   12.1905  -16.3450 O   0  0  0  0  0  0  0  0  0  0  0  0
   41.6760   13.2167  -18.0484 H   0  0  0  0  0  0  0  0  0  0  0  0
   40.4675   12.5078  -16.9359 H   0  0  0  0  0  0  0  0  0  0  0  0
   36.8095   14.9623  -10.2611 C   0  0  0  0  0  0  0  0  0  0  0  0
   34.4073   15.6454  -10.3670 C   0  0  0  0  0  0  0  0  0  0  0  0
   35.6920   15.4562  -11.1430 C   0  0  0  0  0  0  0  0  0  0  0  0
   36.0488   16.7915  -11.7841 C   0  0  0  0  0  0  0  0  0  0  0  0
   41.2575   15.1427   -7.8897 C   0  0  0  0  0  0  0  0  0  0  0  0
   41.7977   15.8823   -6.8169 O   0  0  0  0  0  0  0  0  0  0  0  0
   42.2940   16.6669   -7.1873 H   0  0  0  0  0  0  0  0  0  0  0  0
 64 65  1  0  0  0
 65 66  1  0  0  0
 65 63  1  0  0  0
 63 37  1  0  0  0
 37 38  1  0  0  0
 38 39  1  0  0  0
 39 40  2  0  0  0
 39 42  1  0  0  0
 42 56  1  0  0  0
 56 57  1  0  0  0
 57 58  1  0  0  0
 58 59  1  0  0  0
 58 60  2  0  0  0
 42 43  1  0  0  0
 43 44  1  0  0  0
 44 45  2  0  0  0
 44 47  1  0  0  0
 47 48  1  0  0  0
 48 49  1  0  0  0
 49 50  1  0  0  0
 49 51  2  0  0  0
 47 53  1  0  0  0
 53 54  1  0  0  0
 53 55  1  0  0  0
 37 33  1  0  0  0
 33 34  2  0  0  0
 33 35  1  0  0  0
 35  1  1  0  0  0
  1 67  1  0  0  0
 67 68  1  0  0  0
  1  2  1  0  0  0
  2  3  2  0  0  0
  2  4  1  0  0  0
  4  6  1  0  0  0
  6 30  1  0  0  0
 30 31  1  0  0  0
  6  7  1  0  0  0
  7  8  2  0  0  0
  7  9  1  0  0  0
  9 11  1  0  0  0
 11 27  1  0  0  0
 27 28  1  0  0  0
 27 29  1  0  0  0
 11 12  1  0  0  0
 12 13  2  0  0  0
 12 14  1  0  0  0
 14 16  1  0  0  0
 16 22  1  0  0  0
 22 23  1  0  0  0
 23 24  1  0  0  0
 23 25  2  0  0  0
 16 17  1  0  0  0
 17 18  1  0  0  0
 17 19  2  0  0  0
 38 41  1  0  0  0
 59 61  1  0  0  0
 59 62  1  0  0  0
 43 46  1  0  0  0
 48 52  1  0  0  0
 35 36  1  0  0  0
 68 69  1  0  0  0
  4  5  1  0  0  0
 31 32  1  0  0  0
  9 10  1  0  0  0
 14 15  1  0  0  0
 24 26  1  0  0  0
 18 20  1  0  0  0
 18 21  1  0  0  0
M  END
> <minimizedAffinity>
-7.47555

> <CNNscore>
0.2660555243

> <CNNaffinity>
6.8692955971

> <CNN_VS>
1.8276140690

> <CNNaffinity_variance>
0.8302787542

$$$$
[H]OC(=O)C([H])([H])[C@@]([H])(C(=O)N([H])[H])N([H])C(=O)[C@@]([H])(N([H])C(=O)[C@@]([H])(N([H])C(=O)[C@@]([H])(N([H])C(=O)[C@@]([H])(N([H])C(=O)[C@@]([H])(N([H])C(=O)[C@@]([H])(N([H])C(=O)C([H])([H])[H])C([H])(C([H])([H])[H])C([H])([H])[H])C([H])([H])C([H])([H])C(=O)N([H])[H])C([H])([H])C([H])(C([H])([H])[H])C([H])([H])[H])C([H])([H])O[H])C([H])([H])O[H])C([H])(C([H])([H])[H])C([H])([H])[H]


 69 68  0  0  0  0  0  0  0  0999 V2000
   31.1303   14.3986  -11.3390 C   0  0  0  0  0  0  0  0  0  0  0  0
   32.3412   14.4333  -12.2147 C   0  0  0  0  0  0  0  0  0  0  0  0
   32.4253   14.1295  -13.4052 O   0  0  0  0  0  0  0  0  0  0  0  0
   33.5649   14.8998  -11.5976 N   0  0  0  0  0  0  0  0  0  0  0  0
   33.5808   15.1597  -10.6071 H   0  0  0  0  0  0  0  0  0  0  0  0
   34.8095   15.0297  -12.3438 C   0  0  0  0  0  0  0  0  0  0  0  0
   35.2761   13.7495  -12.8703 C   0  0  0  0  0  0  0  0  0  0  0  0
   35.4605   12.8153  -12.0139 O   0  0  0  0  0  0  0  0  0  0  0  0
   35.5312   13.5015  -14.2206 N   0  0  0  0  0  0  0  0  0  0  0  0
   35.4151   14.1894  -14.9675 H   0  0  0  0  0  0  0  0  0  0  0  0
   36.0044   12.1622  -14.6494 C   0  0  0  0  0  0  0  0  0  0  0  0
   37.4734   12.2264  -14.6464 C   0  0  0  0  0  0  0  0  0  0  0  0
   38.1031   11.4799  -13.7641 O   0  0  0  0  0  0  0  0  0  0  0  0
   38.2884   12.9710  -15.4541 N   0  0  0  0  0  0  0  0  0  0  0  0
   37.8116   13.5935  -16.1845 H   0  0  0  0  0  0  0  0  0  0  0  0
   39.7590   13.0555  -15.4509 C   0  0  0  0  0  0  0  0  0  0  0  0
   40.1299   14.0586  -14.4877 C   0  0  0  0  0  0  0  0  0  0  0  0
   41.1596   13.9948  -13.5327 N   0  0  0  0  0  0  0  0  0  0  0  0
   39.4610   15.1851  -14.4571 O   0  0  0  0  0  0  0  0  0  0  0  0
   41.5749   14.9098  -13.1368 H   0  0  0  0  0  0  0  0  0  0  0  0
   41.5211   13.1160  -13.2009 H   0  0  0  0  0  0  0  0  0  0  0  0
   40.1986   13.3817  -16.8863 C   0  0  0  0  0  0  0  0  0  0  0  0
   40.1245   12.1197  -17.7094 C   0  0  0  0  0  0  0  0  0  0  0  0
   40.5449   12.1686  -18.9804 O   0  0  0  0  0  0  0  0  0  0  0  0
   39.6610   11.0740  -17.1431 O   0  0  0  0  0  0  0  0  0  0  0  0
   40.5858   13.0439  -19.5096 H   0  0  0  0  0  0  0  0  0  0  0  0
   35.4443   11.9658  -16.0682 C   0  0  0  0  0  0  0  0  0  0  0  0
   33.9754   11.6264  -16.0405 C   0  0  0  0  0  0  0  0  0  0  0  0
   36.2426   10.8134  -16.7209 C   0  0  0  0  0  0  0  0  0  0  0  0
   35.8339   15.7087  -11.4323 C   0  0  0  0  0  0  0  0  0  0  0  0
   36.9718   14.9903  -11.2301 O   0  0  0  0  0  0  0  0  0  0  0  0
   37.6793   15.0553  -11.8853 H   0  0  0  0  0  0  0  0  0  0  0  0
   30.9322   14.5676   -8.8843 C   0  0  0  0  0  0  0  0  0  0  0  0
   30.2762   13.4598   -8.9284 O   0  0  0  0  0  0  0  0  0  0  0  0
   31.4224   15.1185  -10.1001 N   0  0  0  0  0  0  0  0  0  0  0  0
   31.9650   15.9863  -10.1373 H   0  0  0  0  0  0  0  0  0  0  0  0
   31.1568   15.2264   -7.5734 C   0  0  0  0  0  0  0  0  0  0  0  0
   32.4382   14.9603   -7.0311 N   0  0  0  0  0  0  0  0  0  0  0  0
   33.7265   15.2365   -7.5203 C   0  0  0  0  0  0  0  0  0  0  0  0
   33.8189   15.8283   -8.6193 O   0  0  0  0  0  0  0  0  0  0  0  0
   32.4328   14.4596   -6.0790 H   0  0  0  0  0  0  0  0  0  0  0  0
   34.9562   14.8409   -6.7708 C   0  0  0  0  0  0  0  0  0  0  0  0
   35.9897   15.8617   -6.9043 N   0  0  0  0  0  0  0  0  0  0  0  0
   37.1277   15.6918   -7.6835 C   0  0  0  0  0  0  0  0  0  0  0  0
   37.2697   14.6085   -8.3009 O   0  0  0  0  0  0  0  0  0  0  0  0
   35.8104   16.7378   -6.3523 H   0  0  0  0  0  0  0  0  0  0  0  0
   38.1817   16.7292   -7.8207 C   0  0  0  0  0  0  0  0  0  0  0  0
   39.4773   16.1590   -7.4611 N   0  0  0  0  0  0  0  0  0  0  0  0
   40.0766   16.3594   -6.2135 C   0  0  0  0  0  0  0  0  0  0  0  0
   41.3952   15.7533   -5.8895 C   0  0  0  0  0  0  0  0  0  0  0  0
   39.5155   17.0525   -5.3441 O   0  0  0  0  0  0  0  0  0  0  0  0
   39.9644   15.5878   -8.1707 H   0  0  0  0  0  0  0  0  0  0  0  0
   38.3029   17.2749   -9.2331 C   0  0  0  0  0  0  0  0  0  0  0  0
   37.9740   18.7315   -9.3277 C   0  0  0  0  0  0  0  0  0  0  0  0
   39.6038   16.9343   -9.8911 C   0  0  0  0  0  0  0  0  0  0  0  0
   34.7086   14.4812   -5.3309 C   0  0  0  0  0  0  0  0  0  0  0  0
   35.6081   13.4272   -4.8135 C   0  0  0  0  0  0  0  0  0  0  0  0
   35.5970   13.4756   -3.3152 C   0  0  0  0  0  0  0  0  0  0  0  0
   35.1682   14.7103   -2.7072 N   0  0  0  0  0  0  0  0  0  0  0  0
   35.9243   12.5462   -2.5729 O   0  0  0  0  0  0  0  0  0  0  0  0
   34.4191   14.7101   -1.9925 H   0  0  0  0  0  0  0  0  0  0  0  0
   35.6090   15.6099   -2.9800 H   0  0  0  0  0  0  0  0  0  0  0  0
   30.8759   16.6977   -7.7569 C   0  0  0  0  0  0  0  0  0  0  0  0
   29.3024   18.5292   -7.1100 C   0  0  0  0  0  0  0  0  0  0  0  0
   29.9861   17.2519   -6.6744 C   0  0  0  0  0  0  0  0  0  0  0  0
   28.9024   16.2523   -6.2903 C   0  0  0  0  0  0  0  0  0  0  0  0
   29.9142   14.8950  -12.0276 C   0  0  0  0  0  0  0  0  0  0  0  0
   28.7931   14.8880  -11.1715 O   0  0  0  0  0  0  0  0  0  0  0  0
   27.9723   14.7339  -11.7207 H   0  0  0  0  0  0  0  0  0  0  0  0
 64 65  1  0  0  0
 65 66  1  0  0  0
 65 63  1  0  0  0
 63 37  1  0  0  0
 37 38  1  0  0  0
 38 39  1  0  0  0
 39 40  2  0  0  0
 39 42  1  0  0  0
 42 56  1  0  0  0
 56 57  1  0  0  0
 57 58  1  0  0  0
 58 59  1  0  0  0
 58 60  2  0  0  0
 42 43  1  0  0  0
 43 44  1  0  0  0
 44 45  2  0  0  0
 44 47  1  0  0  0
 47 48  1  0  0  0
 48 49  1  0  0  0
 49 50  1  0  0  0
 49 51  2  0  0  0
 47 53  1  0  0  0
 53 54  1  0  0  0
 53 55  1  0  0  0
 37 33  1  0  0  0
 33 34  2  0  0  0
 33 35  1  0  0  0
 35  1  1  0  0  0
  1 67  1  0  0  0
 67 68  1  0  0  0
  1  2  1  0  0  0
  2  3  2  0  0  0
  2  4  1  0  0  0
  4  6  1  0  0  0
  6 30  1  0  0  0
 30 31  1  0  0  0
  6  7  1  0  0  0
  7  8  2  0  0  0
  7  9  1  0  0  0
  9 11  1  0  0  0
 11 27  1  0  0  0
 27 28  1  0  0  0
 27 29  1  0  0  0
 11 12  1  0  0  0
 12 13  2  0  0  0
 12 14  1  0  0  0
 14 16  1  0  0  0
 16 22  1  0  0  0
 22 23  1  0  0  0
 23 24  1  0  0  0
 23 25  2  0  0  0
 16 17  1  0  0  0
 17 18  1  0  0  0
 17 19  2  0  0  0
 38 41  1  0  0  0
 59 61  1  0  0  0
 59 62  1  0  0  0
 43 46  1  0  0  0
 48 52  1  0  0  0
 35 36  1  0  0  0
 68 69  1  0  0  0
  4  5  1  0  0  0
 31 32  1  0  0  0
  9 10  1  0  0  0
 14 15  1  0  0  0
 24 26  1  0  0  0
 18 20  1  0  0  0
 18 21  1  0  0  0
M  END
> <minimizedAffinity>
-7.75067

> <CNNscore>
0.2413077503

> <CNNaffinity>
6.6160516739

> <CNN_VS>
1.5965045691

> <CNNaffinity_variance>
1.1418199539

$$$$
[H]c1nc(N([H])c2c([H])c([H])c(N3C([H])([H])C([H])([H])N(C([H])([H])[H])C([H])([H])C3([H])[H])c([H])c2OC([H])([H])[H])nc(N([H])c2c([H])c([H])c([H])c([H])c2S(=O)(=O)C([H])(C([H])([H])[H])C([H])([H])[H])c1Cl


 38 41  0  0  0  0  0  0  0  0999 V2000
   42.9570   12.6021  -16.2845 C   0  0  0  0  0  0  0  0  0  0  0  0
   44.0328   12.0096  -16.8022 N   0  0  0  0  0  0  0  0  0  0  0  0
   45.2656   12.0889  -16.3209 C   0  0  0  0  0  0  0  0  0  0  0  0
   45.4788   12.8429  -15.1887 C   0  0  0  0  0  0  0  0  0  0  0  0
   47.0833   12.9911  -14.4996 Cl  0  0  0  0  0  0  0  0  0  0  0  0
   44.3880   13.5083  -14.5722 C   0  0  0  0  0  0  0  0  0  0  0  0
   43.2192   13.3385  -15.1624 N   0  0  0  0  0  0  0  0  0  0  0  0
   41.6328   12.5359  -16.7744 N   0  0  0  0  0  0  0  0  0  0  0  0
   41.5597   12.1410  -17.7781 H   0  0  0  0  0  0  0  0  0  0  0  0
   39.2844   12.1961  -16.3648 C   0  0  0  0  0  0  0  0  0  0  0  0
   38.1197   12.5458  -15.7296 C   0  0  0  0  0  0  0  0  0  0  0  0
   38.0190   13.5764  -14.8404 C   0  0  0  0  0  0  0  0  0  0  0  0
   39.1785   14.2856  -14.5912 C   0  0  0  0  0  0  0  0  0  0  0  0
   40.3749   13.9367  -15.2354 C   0  0  0  0  0  0  0  0  0  0  0  0
   40.4687   12.9141  -16.1156 C   0  0  0  0  0  0  0  0  0  0  0  0
   36.8013   13.8928  -14.1998 N   0  0  0  0  0  0  0  0  0  0  0  0
   35.5030   13.3933  -14.6322 C   0  0  0  0  0  0  0  0  0  0  0  0
   34.6926   12.8914  -13.4536 C   0  0  0  0  0  0  0  0  0  0  0  0
   34.8259   13.6754  -12.2678 N   0  0  0  0  0  0  0  0  0  0  0  0
   34.0543   14.8834  -12.2720 C   0  0  0  0  0  0  0  0  0  0  0  0
   36.2258   13.9040  -11.9067 C   0  0  0  0  0  0  0  0  0  0  0  0
   36.7748   14.7694  -13.0531 C   0  0  0  0  0  0  0  0  0  0  0  0
   38.1147   10.7096  -17.8683 C   0  0  0  0  0  0  0  0  0  0  0  0
   39.3158   11.1307  -17.2622 O   0  0  0  0  0  0  0  0  0  0  0  0
   44.6495   14.2538  -13.3993 N   0  0  0  0  0  0  0  0  0  0  0  0
   44.5952   13.6980  -12.4941 H   0  0  0  0  0  0  0  0  0  0  0  0
   44.9875   15.6154  -13.3739 C   0  0  0  0  0  0  0  0  0  0  0  0
   45.6790   16.2843  -14.3587 C   0  0  0  0  0  0  0  0  0  0  0  0
   46.0475   17.6369  -14.2522 C   0  0  0  0  0  0  0  0  0  0  0  0
   45.6881   18.3003  -13.0977 C   0  0  0  0  0  0  0  0  0  0  0  0
   44.9985   17.6571  -12.1009 C   0  0  0  0  0  0  0  0  0  0  0  0
   44.6376   16.3282  -12.2105 C   0  0  0  0  0  0  0  0  0  0  0  0
   43.7202   15.5253  -10.9704 S   0  0  0  0  0  0  0  0  0  0  0  0
   44.2840   14.1918  -10.5746 O   0  0  0  0  0  0  0  0  0  0  0  0
   43.9026   16.3904   -9.7072 O   0  0  0  0  0  0  0  0  0  0  0  0
   41.9918   15.5117  -11.2695 C   0  0  0  0  0  0  0  0  0  0  0  0
   41.6729   16.3221  -12.5342 C   0  0  0  0  0  0  0  0  0  0  0  0
   41.2254   16.2371  -10.1570 C   0  0  0  0  0  0  0  0  0  0  0  0
 23 24  1  0  0  0
 24 10  1  0  0  0
 10 11  2  0  0  0
 11 12  1  0  0  0
 12 13  2  0  0  0
 13 14  1  0  0  0
 14 15  2  0  0  0
 15  8  1  0  0  0
  8  1  1  0  0  0
  1  2  2  0  0  0
  2  3  1  0  0  0
  3  4  2  0  0  0
  4  5  1  0  0  0
  4  6  1  0  0  0
  6 25  1  0  0  0
 25 27  1  0  0  0
 27 28  2  0  0  0
 28 29  1  0  0  0
 29 30  2  0  0  0
 30 31  1  0  0  0
 31 32  2  0  0  0
 32 33  1  0  0  0
 33 34  2  0  0  0
 33 35  2  0  0  0
 33 36  1  0  0  0
 36 37  1  0  0  0
 36 38  1  0  0  0
  6  7  2  0  0  0
 12 16  1  0  0  0
 16 17  1  0  0  0
 17 18  1  0  0  0
 18 19  1  0  0  0
 19 20  1  0  0  0
 19 21  1  0  0  0
 21 22  1  0  0  0
 15 10  1  0  0  0
  7  1  1  0  0  0
 22 16  1  0  0  0
 32 27  1  0  0  0
  8  9  1  0  0  0
 25 26  1  0  0  0
M  END
> <minimizedAffinity>
-8.06996

> <CNNscore>
0.3908042610

> <CNNaffinity>
7.3668794632

> <CNN_VS>
2.8790078163

> <CNNaffinity_variance>
0.0703974590

$$$$
[H]c1nc(N([H])c2c([H])c([H])c(N3C([H])([H])C([H])([H])N(C([H])([H])[H])C([H])([H])C3([H])[H])c([H])c2OC([H])([H])[H])nc(N([H])c2c([H])c([H])c([H])c([H])c2S(=O)(=O)C([H])(C([H])([H])[H])C([H])([H])[H])c1Cl


 38 41  0  0  0  0  0  0  0  0999 V2000
   44.0187   13.2556  -16.0487 C   0  0  0  0  0  0  0  0  0  0  0  0
   45.2268   12.7467  -16.2889 N   0  0  0  0  0  0  0  0  0  0  0  0
   46.3332   13.0314  -15.6160 C   0  0  0  0  0  0  0  0  0  0  0  0
   46.2528   13.9279  -14.5740 C   0  0  0  0  0  0  0  0  0  0  0  0
   47.6764   14.3498  -13.6430 Cl  0  0  0  0  0  0  0  0  0  0  0  0
   45.0041   14.5180  -14.2496 C   0  0  0  0  0  0  0  0  0  0  0  0
   43.9900   14.1398  -15.0057 N   0  0  0  0  0  0  0  0  0  0  0  0
   42.8234   12.9716  -16.7475 N   0  0  0  0  0  0  0  0  0  0  0  0
   42.9672   12.8074  -17.8064 H   0  0  0  0  0  0  0  0  0  0  0  0
   40.5327   12.2701  -16.9902 C   0  0  0  0  0  0  0  0  0  0  0  0
   39.2550   12.1722  -16.5001 C   0  0  0  0  0  0  0  0  0  0  0  0
   38.8711   12.6462  -15.2792 C   0  0  0  0  0  0  0  0  0  0  0  0
   39.8541   13.2539  -14.5215 C   0  0  0  0  0  0  0  0  0  0  0  0
   41.1637   13.3595  -15.0131 C   0  0  0  0  0  0  0  0  0  0  0  0
   41.5385   12.8876  -16.2239 C   0  0  0  0  0  0  0  0  0  0  0  0
   37.5464   12.5119  -14.8094 N   0  0  0  0  0  0  0  0  0  0  0  0
   37.2009   11.9941  -13.4924 C   0  0  0  0  0  0  0  0  0  0  0  0
   36.1551   12.8634  -12.8228 C   0  0  0  0  0  0  0  0  0  0  0  0
   35.1527   13.3681  -13.7053 N   0  0  0  0  0  0  0  0  0  0  0  0
   34.1338   12.4180  -14.0424 C   0  0  0  0  0  0  0  0  0  0  0  0
   35.7264   14.0189  -14.8843 C   0  0  0  0  0  0  0  0  0  0  0  0
   36.4256   12.8783  -15.6422 C   0  0  0  0  0  0  0  0  0  0  0  0
   39.8409   11.1783  -19.0318 C   0  0  0  0  0  0  0  0  0  0  0  0
   40.8557   11.7632  -18.2473 O   0  0  0  0  0  0  0  0  0  0  0  0
   44.9643   15.4166  -13.1585 N   0  0  0  0  0  0  0  0  0  0  0  0
   45.8477   15.9926  -13.0204 H   0  0  0  0  0  0  0  0  0  0  0  0
   43.8623   15.5973  -12.3089 C   0  0  0  0  0  0  0  0  0  0  0  0
   42.6237   16.0576  -12.6956 C   0  0  0  0  0  0  0  0  0  0  0  0
   41.5723   16.2810  -11.7894 C   0  0  0  0  0  0  0  0  0  0  0  0
   41.8199   16.0198  -10.4580 C   0  0  0  0  0  0  0  0  0  0  0  0
   43.0454   15.5601  -10.0460 C   0  0  0  0  0  0  0  0  0  0  0  0
   44.0752   15.3411  -10.9404 C   0  0  0  0  0  0  0  0  0  0  0  0
   45.6127   14.7111  -10.4270 S   0  0  0  0  0  0  0  0  0  0  0  0
   46.7631   15.6340  -10.7054 O   0  0  0  0  0  0  0  0  0  0  0  0
   45.5399   14.6696   -8.8874 O   0  0  0  0  0  0  0  0  0  0  0  0
   45.8926   13.0500  -10.9162 C   0  0  0  0  0  0  0  0  0  0  0  0
   44.5609   12.2869  -10.9644 C   0  0  0  0  0  0  0  0  0  0  0  0
   46.7212   12.2911   -9.8729 C   0  0  0  0  0  0  0  0  0  0  0  0
 23 24  1  0  0  0
 24 10  1  0  0  0
 10 11  2  0  0  0
 11 12  1  0  0  0
 12 13  2  0  0  0
 13 14  1  0  0  0
 14 15  2  0  0  0
 15  8  1  0  0  0
  8  1  1  0  0  0
  1  2  2  0  0  0
  2  3  1  0  0  0
  3  4  2  0  0  0
  4  5  1  0  0  0
  4  6  1  0  0  0
  6 25  1  0  0  0
 25 27  1  0  0  0
 27 28  2  0  0  0
 28 29  1  0  0  0
 29 30  2  0  0  0
 30 31  1  0  0  0
 31 32  2  0  0  0
 32 33  1  0  0  0
 33 34  2  0  0  0
 33 35  2  0  0  0
 33 36  1  0  0  0
 36 37  1  0  0  0
 36 38  1  0  0  0
  6  7  2  0  0  0
 12 16  1  0  0  0
 16 17  1  0  0  0
 17 18  1  0  0  0
 18 19  1  0  0  0
 19 20  1  0  0  0
 19 21  1  0  0  0
 21 22  1  0  0  0
 15 10  1  0  0  0
  7  1  1  0  0  0
 22 16  1  0  0  0
 32 27  1  0  0  0
  8  9  1  0  0  0
 25 26  1  0  0  0
M  END
> <minimizedAffinity>
-8.08753

> <CNNscore>
0.2805541754

> <CNNaffinity>
7.3075180054

> <CNN_VS>
2.0501546860

> <CNNaffinity_variance>
0.0922369882

$$$$
[H]c1nc(N([H])c2c([H])c([H])c(N3C([H])([H])C([H])([H])N(C([H])([H])[H])C([H])([H])C3([H])[H])c([H])c2OC([H])([H])[H])nc(N([H])c2c([H])c([H])c([H])c([H])c2S(=O)(=O)C([H])(C([H])([H])[H])C([H])([H])[H])c1Cl


 38 41  0  0  0  0  0  0  0  0999 V2000
   44.0161   13.2363  -15.9584 C   0  0  0  0  0  0  0  0  0  0  0  0
   44.9242   12.2809  -15.7614 N   0  0  0  0  0  0  0  0  0  0  0  0
   46.0565   12.4183  -15.0854 C   0  0  0  0  0  0  0  0  0  0  0  0
   46.3416   13.6452  -14.5291 C   0  0  0  0  0  0  0  0  0  0  0  0
   47.8207   13.8965  -13.6234 Cl  0  0  0  0  0  0  0  0  0  0  0  0
   45.4286   14.7190  -14.6905 C   0  0  0  0  0  0  0  0  0  0  0  0
   44.3437   14.4350  -15.3873 N   0  0  0  0  0  0  0  0  0  0  0  0
   42.8022   13.1196  -16.6730 N   0  0  0  0  0  0  0  0  0  0  0  0
   42.9282   13.1177  -17.7468 H   0  0  0  0  0  0  0  0  0  0  0  0
   40.5482   12.2961  -16.8711 C   0  0  0  0  0  0  0  0  0  0  0  0
   39.2738   12.1727  -16.3782 C   0  0  0  0  0  0  0  0  0  0  0  0
   38.8615   12.7121  -15.1942 C   0  0  0  0  0  0  0  0  0  0  0  0
   39.8109   13.4166  -14.4787 C   0  0  0  0  0  0  0  0  0  0  0  0
   41.1168   13.5491  -14.9736 C   0  0  0  0  0  0  0  0  0  0  0  0
   41.5198   13.0121  -16.1476 C   0  0  0  0  0  0  0  0  0  0  0  0
   37.5420   12.5487  -14.7191 N   0  0  0  0  0  0  0  0  0  0  0  0
   37.2132   12.0201  -13.4021 C   0  0  0  0  0  0  0  0  0  0  0  0
   36.1524   12.8655  -12.7254 C   0  0  0  0  0  0  0  0  0  0  0  0
   35.1358   13.3516  -13.6021 N   0  0  0  0  0  0  0  0  0  0  0  0
   34.1355   12.3813  -13.9375 C   0  0  0  0  0  0  0  0  0  0  0  0
   35.6905   14.0176  -14.7817 C   0  0  0  0  0  0  0  0  0  0  0  0
   36.4101   12.8940  -15.5460 C   0  0  0  0  0  0  0  0  0  0  0  0
   39.8881   11.2024  -18.9222 C   0  0  0  0  0  0  0  0  0  0  0  0
   40.9013   11.7185  -18.0889 O   0  0  0  0  0  0  0  0  0  0  0  0
   45.7520   15.9548  -14.0840 N   0  0  0  0  0  0  0  0  0  0  0  0
   46.2531   16.6468  -14.7175 H   0  0  0  0  0  0  0  0  0  0  0  0
   45.4356   16.3064  -12.7630 C   0  0  0  0  0  0  0  0  0  0  0  0
   44.5770   15.6160  -11.9374 C   0  0  0  0  0  0  0  0  0  0  0  0
   44.2459   16.0494  -10.6417 C   0  0  0  0  0  0  0  0  0  0  0  0
   44.8209   17.2235  -10.2024 C   0  0  0  0  0  0  0  0  0  0  0  0
   45.6802   17.9309  -11.0050 C   0  0  0  0  0  0  0  0  0  0  0  0
   46.0034   17.5003  -12.2772 C   0  0  0  0  0  0  0  0  0  0  0  0
   47.1308   18.3687  -13.2768 S   0  0  0  0  0  0  0  0  0  0  0  0
   46.7402   18.4112  -14.7253 O   0  0  0  0  0  0  0  0  0  0  0  0
   47.0241   19.8390  -12.8247 O   0  0  0  0  0  0  0  0  0  0  0  0
   48.8052   17.9256  -12.9994 C   0  0  0  0  0  0  0  0  0  0  0  0
   49.3589   17.1796  -14.2220 C   0  0  0  0  0  0  0  0  0  0  0  0
   48.9344   16.9145  -11.8539 C   0  0  0  0  0  0  0  0  0  0  0  0
 23 24  1  0  0  0
 24 10  1  0  0  0
 10 11  2  0  0  0
 11 12  1  0  0  0
 12 13  2  0  0  0
 13 14  1  0  0  0
 14 15  2  0  0  0
 15  8  1  0  0  0
  8  1  1  0  0  0
  1  2  2  0  0  0
  2  3  1  0  0  0
  3  4  2  0  0  0
  4  5  1  0  0  0
  4  6  1  0  0  0
  6 25  1  0  0  0
 25 27  1  0  0  0
 27 28  2  0  0  0
 28 29  1  0  0  0
 29 30  2  0  0  0
 30 31  1  0  0  0
 31 32  2  0  0  0
 32 33  1  0  0  0
 33 34  2  0  0  0
 33 35  2  0  0  0
 33 36  1  0  0  0
 36 37  1  0  0  0
 36 38  1  0  0  0
  6  7  2  0  0  0
 12 16  1  0  0  0
 16 17  1  0  0  0
 17 18  1  0  0  0
 18 19  1  0  0  0
 19 20  1  0  0  0
 19 21  1  0  0  0
 21 22  1  0  0  0
 15 10  1  0  0  0
  7  1  1  0  0  0
 22 16  1  0  0  0
 32 27  1  0  0  0
  8  9  1  0  0  0
 25 26  1  0  0  0
M  END
> <minimizedAffinity>
-8.15668

> <CNNscore>
0.2238167822

> <CNNaffinity>
6.9580216408

> <CNN_VS>
1.5573220253

> <CNNaffinity_variance>
0.1428154409

$$$$
[H]c1nc(N([H])c2c([H])c([H])c(N3C([H])([H])C([H])([H])N(C([H])([H])[H])C([H])([H])C3([H])[H])c([H])c2OC([H])([H])[H])nc(N([H])c2c([H])c([H])c([H])c([H])c2S(=O)(=O)C([H])(C([H])([H])[H])C([H])([H])[H])c1Cl


 38 41  0  0  0  0  0  0  0  0999 V2000
   43.5167   12.8383  -16.1206 C   0  0  0  0  0  0  0  0  0  0  0  0
   44.7254   12.6040  -16.6308 N   0  0  0  0  0  0  0  0  0  0  0  0
   45.8802   12.8628  -16.0330 C   0  0  0  0  0  0  0  0  0  0  0  0
   45.8548   13.4225  -14.7752 C   0  0  0  0  0  0  0  0  0  0  0  0
   47.3440   13.7909  -13.9280 Cl  0  0  0  0  0  0  0  0  0  0  0  0
   44.6095   13.7052  -14.1571 C   0  0  0  0  0  0  0  0  0  0  0  0
   43.5436   13.3939  -14.8713 N   0  0  0  0  0  0  0  0  0  0  0  0
   42.2707   12.5735  -16.7330 N   0  0  0  0  0  0  0  0  0  0  0  0
   42.3490   12.2888  -17.7730 H   0  0  0  0  0  0  0  0  0  0  0  0
   39.9817   11.8294  -16.6593 C   0  0  0  0  0  0  0  0  0  0  0  0
   38.7281   11.8749  -16.1037 C   0  0  0  0  0  0  0  0  0  0  0  0
   38.3911   12.6789  -15.0535 C   0  0  0  0  0  0  0  0  0  0  0  0
   39.3975   13.4794  -14.5476 C   0  0  0  0  0  0  0  0  0  0  0  0
   40.6828   13.4410  -15.1083 C   0  0  0  0  0  0  0  0  0  0  0  0
   41.0111   12.6419  -16.1490 C   0  0  0  0  0  0  0  0  0  0  0  0
   37.0902   12.6835  -14.5048 N   0  0  0  0  0  0  0  0  0  0  0  0
   36.7540   12.1100  -13.2087 C   0  0  0  0  0  0  0  0  0  0  0  0
   35.8787   13.0526  -12.4067 C   0  0  0  0  0  0  0  0  0  0  0  0
   34.9057   13.7566  -13.1788 N   0  0  0  0  0  0  0  0  0  0  0  0
   33.7477   12.9810  -13.5137 C   0  0  0  0  0  0  0  0  0  0  0  0
   35.4938   14.4200  -14.3436 C   0  0  0  0  0  0  0  0  0  0  0  0
   35.9839   13.2626  -15.2294 C   0  0  0  0  0  0  0  0  0  0  0  0
   39.9407   11.4082  -19.0383 C   0  0  0  0  0  0  0  0  0  0  0  0
   40.2568   10.9835  -17.7317 O   0  0  0  0  0  0  0  0  0  0  0  0
   44.6310   14.2598  -12.8565 N   0  0  0  0  0  0  0  0  0  0  0  0
   44.5014   15.3148  -12.8175 H   0  0  0  0  0  0  0  0  0  0  0  0
   44.7793   13.5214  -11.6726 C   0  0  0  0  0  0  0  0  0  0  0  0
   45.4018   12.2979  -11.5682 C   0  0  0  0  0  0  0  0  0  0  0  0
   45.4657   11.5709  -10.3665 C   0  0  0  0  0  0  0  0  0  0  0  0
   44.8688   12.1316   -9.2568 C   0  0  0  0  0  0  0  0  0  0  0  0
   44.2420   13.3499   -9.3336 C   0  0  0  0  0  0  0  0  0  0  0  0
   44.1827   14.0610  -10.5164 C   0  0  0  0  0  0  0  0  0  0  0  0
   43.4327   15.6275  -10.6041 S   0  0  0  0  0  0  0  0  0  0  0  0
   43.3236   16.3163   -9.2751 O   0  0  0  0  0  0  0  0  0  0  0  0
   44.4231   16.5073  -11.3932 O   0  0  0  0  0  0  0  0  0  0  0  0
   41.9526   15.6486  -11.5452 C   0  0  0  0  0  0  0  0  0  0  0  0
   42.1021   16.6080  -12.7348 C   0  0  0  0  0  0  0  0  0  0  0  0
   40.7851   16.2307  -10.7395 C   0  0  0  0  0  0  0  0  0  0  0  0
 23 24  1  0  0  0
 24 10  1  0  0  0
 10 11  2  0  0  0
 11 12  1  0  0  0
 12 13  2  0  0  0
 13 14  1  0  0  0
 14 15  2  0  0  0
 15  8  1  0  0  0
  8  1  1  0  0  0
  1  2  2  0  0  0
  2  3  1  0  0  0
  3  4  2  0  0  0
  4  5  1  0  0  0
  4  6  1  0  0  0
  6 25  1  0  0  0
 25 27  1  0  0  0
 27 28  2  0  0  0
 28 29  1  0  0  0
 29 30  2  0  0  0
 30 31  1  0  0  0
 31 32  2  0  0  0
 32 33  1  0  0  0
 33 34  2  0  0  0
 33 35  2  0  0  0
 33 36  1  0  0  0
 36 37  1  0  0  0
 36 38  1  0  0  0
  6  7  2  0  0  0
 12 16  1  0  0  0
 16 17  1  0  0  0
 17 18  1  0  0  0
 18 19  1  0  0  0
 19 20  1  0  0  0
 19 21  1  0  0  0
 21 22  1  0  0  0
 15 10  1  0  0  0
  7  1  1  0  0  0
 22 16  1  0  0  0
 32 27  1  0  0  0
  8  9  1  0  0  0
 25 26  1  0  0  0
M  END
> <minimizedAffinity>
-7.66951

> <CNNscore>
0.1692913175

> <CNNaffinity>
7.0672645569

> <CNN_VS>
1.1964265108

> <CNNaffinity_variance>
0.1400325298

$$$$
[H]c1nc(N([H])c2c([H])c([H])c(N3C([H])([H])C([H])([H])N(C([H])([H])[H])C([H])([H])C3([H])[H])c([H])c2OC([H])([H])[H])nc(N([H])c2c([H])c([H])c([H])c([H])c2S(=O)(=O)C([H])(C([H])([H])[H])C([H])([H])[H])c1Cl


 38 41  0  0  0  0  0  0  0  0999 V2000
   43.8747   13.1587  -15.8559 C   0  0  0  0  0  0  0  0  0  0  0  0
   45.0973   12.8326  -16.2746 N   0  0  0  0  0  0  0  0  0  0  0  0
   46.2119   12.9413  -15.5648 C   0  0  0  0  0  0  0  0  0  0  0  0
   46.1248   13.4311  -14.2809 C   0  0  0  0  0  0  0  0  0  0  0  0
   47.5586   13.6013  -13.2876 Cl  0  0  0  0  0  0  0  0  0  0  0  0
   44.8607   13.8029  -13.7550 C   0  0  0  0  0  0  0  0  0  0  0  0
   43.8399   13.6396  -14.5762 N   0  0  0  0  0  0  0  0  0  0  0  0
   42.6704   13.0541  -16.5883 N   0  0  0  0  0  0  0  0  0  0  0  0
   42.8128   13.0405  -17.6599 H   0  0  0  0  0  0  0  0  0  0  0  0
   40.4316   12.1853  -16.7650 C   0  0  0  0  0  0  0  0  0  0  0  0
   39.1486   12.0837  -16.2896 C   0  0  0  0  0  0  0  0  0  0  0  0
   38.7045   12.7105  -15.1614 C   0  0  0  0  0  0  0  0  0  0  0  0
   39.6295   13.4835  -14.4860 C   0  0  0  0  0  0  0  0  0  0  0  0
   40.9439   13.5945  -14.9634 C   0  0  0  0  0  0  0  0  0  0  0  0
   41.3785   12.9708  -16.0820 C   0  0  0  0  0  0  0  0  0  0  0  0
   37.3773   12.5670  -14.7015 N   0  0  0  0  0  0  0  0  0  0  0  0
   37.0254   12.0394  -13.3901 C   0  0  0  0  0  0  0  0  0  0  0  0
   35.9710   12.8996  -12.7222 C   0  0  0  0  0  0  0  0  0  0  0  0
   34.9722   13.4051  -13.6084 N   0  0  0  0  0  0  0  0  0  0  0  0
   33.9601   12.4523  -13.9582 C   0  0  0  0  0  0  0  0  0  0  0  0
   35.5507   14.0659  -14.7794 C   0  0  0  0  0  0  0  0  0  0  0  0
   36.2604   12.9333  -15.5396 C   0  0  0  0  0  0  0  0  0  0  0  0
   39.8405   11.1962  -18.8889 C   0  0  0  0  0  0  0  0  0  0  0  0
   40.8179   11.5169  -17.9249 O   0  0  0  0  0  0  0  0  0  0  0  0
   44.8159   14.2806  -12.4248 N   0  0  0  0  0  0  0  0  0  0  0  0
   45.7276   14.1883  -11.8849 H   0  0  0  0  0  0  0  0  0  0  0  0
   43.6929   14.8665  -11.8212 C   0  0  0  0  0  0  0  0  0  0  0  0
   42.7664   15.6596  -12.4600 C   0  0  0  0  0  0  0  0  0  0  0  0
   41.6934   16.2746  -11.7914 C   0  0  0  0  0  0  0  0  0  0  0  0
   41.5878   16.0577  -10.4334 C   0  0  0  0  0  0  0  0  0  0  0  0
   42.4977   15.2714   -9.7725 C   0  0  0  0  0  0  0  0  0  0  0  0
   43.5498   14.6682  -10.4340 C   0  0  0  0  0  0  0  0  0  0  0  0
   44.6745   13.6310   -9.6074 S   0  0  0  0  0  0  0  0  0  0  0  0
   44.9027   12.3193  -10.3003 O   0  0  0  0  0  0  0  0  0  0  0  0
   46.0373   14.3443   -9.7143 O   0  0  0  0  0  0  0  0  0  0  0  0
   44.3673   13.4878   -7.8864 C   0  0  0  0  0  0  0  0  0  0  0  0
   45.3954   14.3144   -7.1004 C   0  0  0  0  0  0  0  0  0  0  0  0
   44.5879   12.0519   -7.3958 C   0  0  0  0  0  0  0  0  0  0  0  0
 23 24  1  0  0  0
 24 10  1  0  0  0
 10 11  2  0  0  0
 11 12  1  0  0  0
 12 13  2  0  0  0
 13 14  1  0  0  0
 14 15  2  0  0  0
 15  8  1  0  0  0
  8  1  1  0  0  0
  1  2  2  0  0  0
  2  3  1  0  0  0
  3  4  2  0  0  0
  4  5  1  0  0  0
  4  6  1  0  0  0
  6 25  1  0  0  0
 25 27  1  0  0  0
 27 28  2  0  0  0
 28 29  1  0  0  0
 29 30  2  0  0  0
 30 31  1  0  0  0
 31 32  2  0  0  0
 32 33  1  0  0  0
 33 34  2  0  0  0
 33 35  2  0  0  0
 33 36  1  0  0  0
 36 37  1  0  0  0
 36 38  1  0  0  0
  6  7  2  0  0  0
 12 16  1  0  0  0
 16 17  1  0  0  0
 17 18  1  0  0  0
 18 19  1  0  0  0
 19 20  1  0  0  0
 19 21  1  0  0  0
 21 22  1  0  0  0
 15 10  1  0  0  0
  7  1  1  0  0  0
 22 16  1  0  0  0
 32 27  1  0  0  0
  8  9  1  0  0  0
 25 26  1  0  0  0
M  END
> <minimizedAffinity>
-7.93476

> <CNNscore>
0.1631556749

> <CNNaffinity>
7.0565290451

> <CNN_VS>
1.1513127089

> <CNNaffinity_variance>
0.0930159539

$$$$
[H]c1nc(N([H])c2c([H])c([H])c(N3C([H])([H])C([H])([H])N(C([H])([H])[H])C([H])([H])C3([H])[H])c([H])c2OC([H])([H])[H])nc(N([H])c2c([H])c([H])c([H])c([H])c2S(=O)(=O)C([H])(C([H])([H])[H])C([H])([H])[H])c1Cl


 38 41  0  0  0  0  0  0  0  0999 V2000
   43.8198   13.5588  -15.0852 C   0  0  0  0  0  0  0  0  0  0  0  0
   44.5538   14.6539  -15.2808 N   0  0  0  0  0  0  0  0  0  0  0  0
   45.5649   15.0525  -14.5214 C   0  0  0  0  0  0  0  0  0  0  0  0
   45.9054   14.2855  -13.4298 C   0  0  0  0  0  0  0  0  0  0  0  0
   47.2308   14.7543  -12.3835 Cl  0  0  0  0  0  0  0  0  0  0  0  0
   45.1756   13.1020  -13.1476 C   0  0  0  0  0  0  0  0  0  0  0  0
   44.1961   12.8309  -13.9902 N   0  0  0  0  0  0  0  0  0  0  0  0
   42.7382   13.1091  -15.8762 N   0  0  0  0  0  0  0  0  0  0  0  0
   43.0396   12.6818  -16.8224 H   0  0  0  0  0  0  0  0  0  0  0  0
   40.4651   12.5357  -16.4259 C   0  0  0  0  0  0  0  0  0  0  0  0
   39.1226   12.5715  -16.1450 C   0  0  0  0  0  0  0  0  0  0  0  0
   38.5914   13.1927  -15.0519 C   0  0  0  0  0  0  0  0  0  0  0  0
   39.4890   13.8104  -14.2021 C   0  0  0  0  0  0  0  0  0  0  0  0
   40.8637   13.7800  -14.4800 C   0  0  0  0  0  0  0  0  0  0  0  0
   41.3846   13.1626  -15.5648 C   0  0  0  0  0  0  0  0  0  0  0  0
   37.2030   13.1933  -14.7954 N   0  0  0  0  0  0  0  0  0  0  0  0
   36.2030   12.7125  -15.7393 C   0  0  0  0  0  0  0  0  0  0  0  0
   35.1896   11.8196  -15.0511 C   0  0  0  0  0  0  0  0  0  0  0  0
   34.8235   12.2437  -13.7379 N   0  0  0  0  0  0  0  0  0  0  0  0
   33.8790   13.3216  -13.7102 C   0  0  0  0  0  0  0  0  0  0  0  0
   35.9895   12.4964  -12.8898 C   0  0  0  0  0  0  0  0  0  0  0  0
   36.6814   13.7011  -13.5487 C   0  0  0  0  0  0  0  0  0  0  0  0
   40.0257   11.5023  -18.5655 C   0  0  0  0  0  0  0  0  0  0  0  0
   40.9394   11.8821  -17.5614 O   0  0  0  0  0  0  0  0  0  0  0  0
   45.5739   12.3340  -12.0290 N   0  0  0  0  0  0  0  0  0  0  0  0
   46.3389   11.6215  -12.2246 H   0  0  0  0  0  0  0  0  0  0  0  0
   45.0559   12.4775  -10.7329 C   0  0  0  0  0  0  0  0  0  0  0  0
   43.9867   13.2718  -10.3844 C   0  0  0  0  0  0  0  0  0  0  0  0
   43.5491   13.4284   -9.0576 C   0  0  0  0  0  0  0  0  0  0  0  0
   44.2405   12.7445   -8.0797 C   0  0  0  0  0  0  0  0  0  0  0  0
   45.3096   11.9461   -8.4000 C   0  0  0  0  0  0  0  0  0  0  0  0
   45.7352   11.7944   -9.7054 C   0  0  0  0  0  0  0  0  0  0  0  0
   47.0580   10.7439  -10.1189 S   0  0  0  0  0  0  0  0  0  0  0  0
   46.7419    9.7909  -11.2344 O   0  0  0  0  0  0  0  0  0  0  0  0
   48.1364   11.6677  -10.7199 O   0  0  0  0  0  0  0  0  0  0  0  0
   47.8221    9.9927   -8.7301 C   0  0  0  0  0  0  0  0  0  0  0  0
   48.8285   10.9643   -8.0969 C   0  0  0  0  0  0  0  0  0  0  0  0
   48.6750    8.7876   -9.1440 C   0  0  0  0  0  0  0  0  0  0  0  0
 23 24  1  0  0  0
 24 10  1  0  0  0
 10 11  2  0  0  0
 11 12  1  0  0  0
 12 13  2  0  0  0
 13 14  1  0  0  0
 14 15  2  0  0  0
 15  8  1  0  0  0
  8  1  1  0  0  0
  1  2  2  0  0  0
  2  3  1  0  0  0
  3  4  2  0  0  0
  4  5  1  0  0  0
  4  6  1  0  0  0
  6 25  1  0  0  0
 25 27  1  0  0  0
 27 28  2  0  0  0
 28 29  1  0  0  0
 29 30  2  0  0  0
 30 31  1  0  0  0
 31 32  2  0  0  0
 32 33  1  0  0  0
 33 34  2  0  0  0
 33 35  2  0  0  0
 33 36  1  0  0  0
 36 37  1  0  0  0
 36 38  1  0  0  0
  6  7  2  0  0  0
 12 16  1  0  0  0
 16 17  1  0  0  0
 17 18  1  0  0  0
 18 19  1  0  0  0
 19 20  1  0  0  0
 19 21  1  0  0  0
 21 22  1  0  0  0
 15 10  1  0  0  0
  7  1  1  0  0  0
 22 16  1  0  0  0
 32 27  1  0  0  0
  8  9  1  0  0  0
 25 26  1  0  0  0
M  END
> <minimizedAffinity>
-7.51622

> <CNNscore>
0.0545873195

> <CNNaffinity>
6.6654481888

> <CNN_VS>
0.3638489544

> <CNNaffinity_variance>
0.0610242672

$$$$
[H]c1nc(N([H])c2c([H])c([H])c(N3C([H])([H])C([H])([H])N(C([H])([H])[H])C([H])([H])C3([H])[H])c([H])c2OC([H])([H])[H])nc(N([H])c2c([H])c([H])c([H])c([H])c2S(=O)(=O)C([H])(C([H])([H])[H])C([H])([H])[H])c1Cl


 38 41  0  0  0  0  0  0  0  0999 V2000
   39.6482   13.2253  -15.0622 C   0  0  0  0  0  0  0  0  0  0  0  0
   39.9925   12.5790  -16.1758 N   0  0  0  0  0  0  0  0  0  0  0  0
   41.2316   12.3889  -16.6074 C   0  0  0  0  0  0  0  0  0  0  0  0
   42.2703   12.8935  -15.8575 C   0  0  0  0  0  0  0  0  0  0  0  0
   43.9324   12.6789  -16.3699 Cl  0  0  0  0  0  0  0  0  0  0  0  0
   41.9932   13.5959  -14.6564 C   0  0  0  0  0  0  0  0  0  0  0  0
   40.7132   13.7073  -14.3525 N   0  0  0  0  0  0  0  0  0  0  0  0
   38.3386   13.4433  -14.5773 N   0  0  0  0  0  0  0  0  0  0  0  0
   37.5635   13.1109  -15.2538 H   0  0  0  0  0  0  0  0  0  0  0  0
   36.9380   13.4248  -12.6187 C   0  0  0  0  0  0  0  0  0  0  0  0
   36.5532   13.9703  -11.4201 C   0  0  0  0  0  0  0  0  0  0  0  0
   37.1182   15.0882  -10.8777 C   0  0  0  0  0  0  0  0  0  0  0  0
   38.1333   15.6768  -11.6074 C   0  0  0  0  0  0  0  0  0  0  0  0
   38.5345   15.1275  -12.8342 C   0  0  0  0  0  0  0  0  0  0  0  0
   37.9711   14.0192  -13.3668 C   0  0  0  0  0  0  0  0  0  0  0  0
   36.6987   15.6076   -9.6336 N   0  0  0  0  0  0  0  0  0  0  0  0
   37.3661   16.7043   -8.9453 C   0  0  0  0  0  0  0  0  0  0  0  0
   36.3617   17.7184   -8.4349 C   0  0  0  0  0  0  0  0  0  0  0  0
   35.1551   17.1504   -7.9250 N   0  0  0  0  0  0  0  0  0  0  0  0
   35.2718   16.6134   -6.6012 C   0  0  0  0  0  0  0  0  0  0  0  0
   34.5453   16.2062   -8.8627 C   0  0  0  0  0  0  0  0  0  0  0  0
   35.5570   15.0514   -8.9470 C   0  0  0  0  0  0  0  0  0  0  0  0
   34.9618   12.3460  -13.4958 C   0  0  0  0  0  0  0  0  0  0  0  0
   36.3172   12.2799  -13.1138 O   0  0  0  0  0  0  0  0  0  0  0  0
   43.0915   14.0779  -13.9074 N   0  0  0  0  0  0  0  0  0  0  0  0
   44.0440   13.9067  -14.3486 H   0  0  0  0  0  0  0  0  0  0  0  0
   42.9906   14.7614  -12.6862 C   0  0  0  0  0  0  0  0  0  0  0  0
   41.8724   15.4248  -12.2332 C   0  0  0  0  0  0  0  0  0  0  0  0
   41.8467   16.1487  -11.0283 C   0  0  0  0  0  0  0  0  0  0  0  0
   43.0085   16.1801  -10.2856 C   0  0  0  0  0  0  0  0  0  0  0  0
   44.1368   15.5273  -10.7141 C   0  0  0  0  0  0  0  0  0  0  0  0
   44.1569   14.8163  -11.8984 C   0  0  0  0  0  0  0  0  0  0  0  0
   45.5704   13.9470  -12.4183 S   0  0  0  0  0  0  0  0  0  0  0  0
   46.5961   13.7671  -11.3374 O   0  0  0  0  0  0  0  0  0  0  0  0
   45.0820   12.5125  -12.7030 O   0  0  0  0  0  0  0  0  0  0  0  0
   46.2277   14.5168  -13.9415 C   0  0  0  0  0  0  0  0  0  0  0  0
   47.0767   13.4142  -14.5905 C   0  0  0  0  0  0  0  0  0  0  0  0
   47.2135   15.6718  -13.7288 C   0  0  0  0  0  0  0  0  0  0  0  0
 23 24  1  0  0  0
 24 10  1  0  0  0
 10 11  2  0  0  0
 11 12  1  0  0  0
 12 13  2  0  0  0
 13 14  1  0  0  0
 14 15  2  0  0  0
 15  8  1  0  0  0
  8  1  1  0  0  0
  1  2  2  0  0  0
  2  3  1  0  0  0
  3  4  2  0  0  0
  4  5  1  0  0  0
  4  6  1  0  0  0
  6 25  1  0  0  0
 25 27  1  0  0  0
 27 28  2  0  0  0
 28 29  1  0  0  0
 29 30  2  0  0  0
 30 31  1  0  0  0
 31 32  2  0  0  0
 32 33  1  0  0  0
 33 34  2  0  0  0
 33 35  2  0  0  0
 33 36  1  0  0  0
 36 37  1  0  0  0
 36 38  1  0  0  0
  6  7  2  0  0  0
 12 16  1  0  0  0
 16 17  1  0  0  0
 17 18  1  0  0  0
 18 19  1  0  0  0
 19 20  1  0  0  0
 19 21  1  0  0  0
 21 22  1  0  0  0
 15 10  1  0  0  0
  7  1  1  0  0  0
 22 16  1  0  0  0
 32 27  1  0  0  0
  8  9  1  0  0  0
 25 26  1  0  0  0
M  END
> <minimizedAffinity>
-6.97841

> <CNNscore>
0.0374544337

> <CNNaffinity>
6.4498763084

> <CNN_VS>
0.2415764630

> <CNNaffinity_variance>
0.1905019134

$$$$
[H]c1nc(N([H])c2c([H])c([H])c(N3C([H])([H])C([H])([H])N(C([H])([H])[H])C([H])([H])C3([H])[H])c([H])c2OC([H])([H])[H])nc(N([H])c2c([H])c([H])c([H])c([H])c2S(=O)(=O)C([H])(C([H])([H])[H])C([H])([H])[H])c1Cl


 38 41  0  0  0  0  0  0  0  0999 V2000
   37.0476   13.5998  -14.3707 C   0  0  0  0  0  0  0  0  0  0  0  0
   35.7319   13.3876  -14.3838 N   0  0  0  0  0  0  0  0  0  0  0  0
   34.8526   13.9338  -13.5553 C   0  0  0  0  0  0  0  0  0  0  0  0
   35.3142   14.7987  -12.5886 C   0  0  0  0  0  0  0  0  0  0  0  0
   34.2069   15.5555  -11.4605 Cl  0  0  0  0  0  0  0  0  0  0  0  0
   36.7019   15.0812  -12.5033 C   0  0  0  0  0  0  0  0  0  0  0  0
   37.4570   14.4650  -13.3940 N   0  0  0  0  0  0  0  0  0  0  0  0
   38.0078   13.0330  -15.2394 N   0  0  0  0  0  0  0  0  0  0  0  0
   37.5774   12.4588  -16.0480 H   0  0  0  0  0  0  0  0  0  0  0  0
   40.1778   12.6056  -16.1915 C   0  0  0  0  0  0  0  0  0  0  0  0
   41.5456   12.6961  -16.1358 C   0  0  0  0  0  0  0  0  0  0  0  0
   42.2269   13.2883  -15.1121 C   0  0  0  0  0  0  0  0  0  0  0  0
   41.4602   13.8155  -14.0904 C   0  0  0  0  0  0  0  0  0  0  0  0
   40.0609   13.7282  -14.1371 C   0  0  0  0  0  0  0  0  0  0  0  0
   39.3911   13.1403  -15.1545 C   0  0  0  0  0  0  0  0  0  0  0  0
   43.6364   13.3703  -15.1027 N   0  0  0  0  0  0  0  0  0  0  0  0
   44.4324   13.5236  -13.8924 C   0  0  0  0  0  0  0  0  0  0  0  0
   45.6110   12.5703  -13.8915 C   0  0  0  0  0  0  0  0  0  0  0  0
   46.2296   12.3940  -15.1662 N   0  0  0  0  0  0  0  0  0  0  0  0
   47.1059   13.4624  -15.5472 C   0  0  0  0  0  0  0  0  0  0  0  0
   45.2619   12.0605  -16.2126 C   0  0  0  0  0  0  0  0  0  0  0  0
   44.3884   13.3202  -16.3340 C   0  0  0  0  0  0  0  0  0  0  0  0
   40.3261   11.5401  -18.3551 C   0  0  0  0  0  0  0  0  0  0  0  0
   39.5468   11.9866  -17.2686 O   0  0  0  0  0  0  0  0  0  0  0  0
   37.1285   15.9917  -11.5090 N   0  0  0  0  0  0  0  0  0  0  0  0
   36.3910   16.6917  -11.1969 H   0  0  0  0  0  0  0  0  0  0  0  0
   38.4034   15.9992  -10.9231 C   0  0  0  0  0  0  0  0  0  0  0  0
   39.5887   16.1992  -11.5942 C   0  0  0  0  0  0  0  0  0  0  0  0
   40.8451   16.1326  -10.9668 C   0  0  0  0  0  0  0  0  0  0  0  0
   40.8625   15.8517   -9.6166 C   0  0  0  0  0  0  0  0  0  0  0  0
   39.6956   15.6485   -8.9239 C   0  0  0  0  0  0  0  0  0  0  0  0
   38.4633   15.7160   -9.5446 C   0  0  0  0  0  0  0  0  0  0  0  0
   36.9813   15.5084   -8.6586 S   0  0  0  0  0  0  0  0  0  0  0  0
   35.9707   16.5874   -8.9175 O   0  0  0  0  0  0  0  0  0  0  0  0
   36.3283   14.2440   -9.2521 O   0  0  0  0  0  0  0  0  0  0  0  0
   37.2211   15.1445   -6.9595 C   0  0  0  0  0  0  0  0  0  0  0  0
   37.3482   13.6270   -6.7619 C   0  0  0  0  0  0  0  0  0  0  0  0
   35.9929   15.5288   -6.1259 C   0  0  0  0  0  0  0  0  0  0  0  0
 23 24  1  0  0  0
 24 10  1  0  0  0
 10 11  2  0  0  0
 11 12  1  0  0  0
 12 13  2  0  0  0
 13 14  1  0  0  0
 14 15  2  0  0  0
 15  8  1  0  0  0
  8  1  1  0  0  0
  1  2  2  0  0  0
  2  3  1  0  0  0
  3  4  2  0  0  0
  4  5  1  0  0  0
  4  6  1  0  0  0
  6 25  1  0  0  0
 25 27  1  0  0  0
 27 28  2  0  0  0
 28 29  1  0  0  0
 29 30  2  0  0  0
 30 31  1  0  0  0
 31 32  2  0  0  0
 32 33  1  0  0  0
 33 34  2  0  0  0
 33 35  2  0  0  0
 33 36  1  0  0  0
 36 37  1  0  0  0
 36 38  1  0  0  0
  6  7  2  0  0  0
 12 16  1  0  0  0
 16 17  1  0  0  0
 17 18  1  0  0  0
 18 19  1  0  0  0
 19 20  1  0  0  0
 19 21  1  0  0  0
 21 22  1  0  0  0
 15 10  1  0  0  0
  7  1  1  0  0  0
 22 16  1  0  0  0
 32 27  1  0  0  0
  8  9  1  0  0  0
 25 26  1  0  0  0
M  END
> <minimizedAffinity>
-8.35213

> <CNNscore>
0.0318777114

> <CNNaffinity>
6.1570158005

> <CNN_VS>
0.1962715685

> <CNNaffinity_variance>
0.7402557731

$$$$
[H]c1nc(N([H])c2c([H])c([H])c(N3C([H])([H])C([H])([H])N(C([H])([H])[H])C([H])([H])C3([H])[H])c([H])c2OC([H])([H])[H])nc(N([H])c2c([H])c([H])c([H])c([H])c2S(=O)(=O)C([H])(C([H])([H])[H])C([H])([H])[H])c1Cl


 38 41  0  0  0  0  0  0  0  0999 V2000
   43.9263   13.8455  -14.9309 C   0  0  0  0  0  0  0  0  0  0  0  0
   44.8401   14.7567  -15.2639 N   0  0  0  0  0  0  0  0  0  0  0  0
   45.8104   15.2017  -14.4775 C   0  0  0  0  0  0  0  0  0  0  0  0
   45.9028   14.6936  -13.2011 C   0  0  0  0  0  0  0  0  0  0  0  0
   47.1606   15.2379  -12.1088 Cl  0  0  0  0  0  0  0  0  0  0  0  0
   44.9697   13.7185  -12.7637 C   0  0  0  0  0  0  0  0  0  0  0  0
   44.0596   13.3714  -13.6550 N   0  0  0  0  0  0  0  0  0  0  0  0
   42.8824   13.3524  -15.7462 N   0  0  0  0  0  0  0  0  0  0  0  0
   43.2048   13.0594  -16.7357 H   0  0  0  0  0  0  0  0  0  0  0  0
   40.6956   12.4918  -16.2712 C   0  0  0  0  0  0  0  0  0  0  0  0
   39.3668   12.3396  -15.9658 C   0  0  0  0  0  0  0  0  0  0  0  0
   38.7802   12.8564  -14.8469 C   0  0  0  0  0  0  0  0  0  0  0  0
   39.6046   13.5684  -13.9966 C   0  0  0  0  0  0  0  0  0  0  0  0
   40.9648   13.7303  -14.2994 C   0  0  0  0  0  0  0  0  0  0  0  0
   41.5407   13.2155  -15.4097 C   0  0  0  0  0  0  0  0  0  0  0  0
   37.4101   12.6637  -14.5660 N   0  0  0  0  0  0  0  0  0  0  0  0
   36.9092   12.0855  -13.3263 C   0  0  0  0  0  0  0  0  0  0  0  0
   35.7528   12.8961  -12.7756 C   0  0  0  0  0  0  0  0  0  0  0  0
   34.8608   13.4034  -13.7683 N   0  0  0  0  0  0  0  0  0  0  0  0
   33.9308   12.4362  -14.2724 C   0  0  0  0  0  0  0  0  0  0  0  0
   35.5643   14.1162  -14.8359 C   0  0  0  0  0  0  0  0  0  0  0  0
   36.3991   13.0274  -15.5302 C   0  0  0  0  0  0  0  0  0  0  0  0
   40.3662   11.2968  -18.3454 C   0  0  0  0  0  0  0  0  0  0  0  0
   41.2292   11.9362  -17.4322 O   0  0  0  0  0  0  0  0  0  0  0  0
   45.1157   13.2090  -11.4527 N   0  0  0  0  0  0  0  0  0  0  0  0
   44.6678   13.8000  -10.6903 H   0  0  0  0  0  0  0  0  0  0  0  0
   45.7651   12.0086  -11.1271 C   0  0  0  0  0  0  0  0  0  0  0  0
   46.4066   11.1807  -12.0208 C   0  0  0  0  0  0  0  0  0  0  0  0
   46.9865    9.9551  -11.6492 C   0  0  0  0  0  0  0  0  0  0  0  0
   46.8939    9.5890  -10.3228 C   0  0  0  0  0  0  0  0  0  0  0  0
   46.2603   10.3959   -9.4115 C   0  0  0  0  0  0  0  0  0  0  0  0
   45.6928   11.5999   -9.7812 C   0  0  0  0  0  0  0  0  0  0  0  0
   44.9335   12.6471   -8.6189 S   0  0  0  0  0  0  0  0  0  0  0  0
   45.5525   14.0125   -8.5462 O   0  0  0  0  0  0  0  0  0  0  0  0
   43.5207   12.9140   -9.1760 O   0  0  0  0  0  0  0  0  0  0  0  0
   44.6738   11.8945   -7.0559 C   0  0  0  0  0  0  0  0  0  0  0  0
   43.2646   12.2251   -6.5432 C   0  0  0  0  0  0  0  0  0  0  0  0
   45.6070   12.4811   -5.9900 C   0  0  0  0  0  0  0  0  0  0  0  0
 23 24  1  0  0  0
 24 10  1  0  0  0
 10 11  2  0  0  0
 11 12  1  0  0  0
 12 13  2  0  0  0
 13 14  1  0  0  0
 14 15  2  0  0  0
 15  8  1  0  0  0
  8  1  1  0  0  0
  1  2  2  0  0  0
  2  3  1  0  0  0
  3  4  2  0  0  0
  4  5  1  0  0  0
  4  6  1  0  0  0
  6 25  1  0  0  0
 25 27  1  0  0  0
 27 28  2  0  0  0
 28 29  1  0  0  0
 29 30  2  0  0  0
 30 31  1  0  0  0
 31 32  2  0  0  0
 32 33  1  0  0  0
 33 34  2  0  0  0
 33 35  2  0  0  0
 33 36  1  0  0  0
 36 37  1  0  0  0
 36 38  1  0  0  0
  6  7  2  0  0  0
 12 16  1  0  0  0
 16 17  1  0  0  0
 17 18  1  0  0  0
 18 19  1  0  0  0
 19 20  1  0  0  0
 19 21  1  0  0  0
 21 22  1  0  0  0
 15 10  1  0  0  0
  7  1  1  0  0  0
 22 16  1  0  0  0
 32 27  1  0  0  0
  8  9  1  0  0  0
 25 26  1  0  0  0
M  END
> <minimizedAffinity>
-7.61339

> <CNNscore>
0.0297846496

> <CNNaffinity>
6.5274162292

> <CNN_VS>
0.1944168061

> <CNNaffinity_variance>
0.0936978906

$$$$
[H]c1nc2c(c([H])c1Oc1c([H])c(N3C([H])([H])C([H])([H])N(C([H])([H])C4=C(c5c([H])c([H])c(Cl)c([H])c5[H])C([H])([H])C(C([H])([H])[H])(C([H])([H])[H])C([H])([H])C4([H])[H])C([H])([H])C3([H])[H])c([H])c([H])c1C(=O)N([H])S(=O)(=O)c1c([H])c([H])c(N([H])C([H])([H])C3([H])C([H])([H])C([H])([H])OC([H])([H])C3([H])[H])c([N+](=O)[O-])c1[H])c([H])c([H])n2[H]


 64 71  0  0  0  0  0  0  0  0999 V2000
   38.1411   14.9383  -12.5717 C   0  0  0  0  0  0  0  0  0  0  0  0
   38.4657   15.4894  -11.2975 C   0  0  0  0  0  0  0  0  0  0  0  0
   39.7163   15.9382  -10.9776 C   0  0  0  0  0  0  0  0  0  0  0  0
   40.7495   15.8850  -11.8745 C   0  0  0  0  0  0  0  0  0  0  0  0
   40.4625   15.3585  -13.1198 C   0  0  0  0  0  0  0  0  0  0  0  0
   39.1857   14.9010  -13.4569 C   0  0  0  0  0  0  0  0  0  0  0  0
   42.0635   16.3033  -11.6057 N   0  0  0  0  0  0  0  0  0  0  0  0
   42.6096   16.1946  -10.2667 C   0  0  0  0  0  0  0  0  0  0  0  0
   43.8232   15.3305  -10.3946 C   0  0  0  0  0  0  0  0  0  0  0  0
   44.7670   15.8754  -11.3404 N   0  0  0  0  0  0  0  0  0  0  0  0
   44.2701   16.1589  -12.6221 C   0  0  0  0  0  0  0  0  0  0  0  0
   42.9171   16.8456  -12.6243 C   0  0  0  0  0  0  0  0  0  0  0  0
   45.9615   15.1130  -11.2191 C   0  0  0  0  0  0  0  0  0  0  0  0
   46.6440   15.0387   -9.9349 C   0  0  0  0  0  0  0  0  0  0  0  0
   47.1291   13.8840   -9.4767 C   0  0  0  0  0  0  0  0  0  0  0  0
   47.8331   13.8318   -8.1499 C   0  0  0  0  0  0  0  0  0  0  0  0
   48.6452   15.0314   -7.8334 C   0  0  0  0  0  0  0  0  0  0  0  0
   50.1175   14.6943   -8.1266 C   0  0  0  0  0  0  0  0  0  0  0  0
   48.5422   15.3741   -6.3456 C   0  0  0  0  0  0  0  0  0  0  0  0
   48.3276   16.2654   -8.6082 C   0  0  0  0  0  0  0  0  0  0  0  0
   46.8822   16.2594   -9.0989 C   0  0  0  0  0  0  0  0  0  0  0  0
   46.9837   12.6357  -10.1620 C   0  0  0  0  0  0  0  0  0  0  0  0
   47.9247   12.2399  -11.1311 C   0  0  0  0  0  0  0  0  0  0  0  0
   47.8273   11.0204  -11.7525 C   0  0  0  0  0  0  0  0  0  0  0  0
   46.8121   10.1419  -11.4540 C   0  0  0  0  0  0  0  0  0  0  0  0
   46.6561    8.5735  -12.2227 Cl  0  0  0  0  0  0  0  0  0  0  0  0
   45.8917   10.5074  -10.5179 C   0  0  0  0  0  0  0  0  0  0  0  0
   45.9988   11.7402   -9.8966 C   0  0  0  0  0  0  0  0  0  0  0  0
   35.8258   14.6424  -13.5794 N   0  0  0  0  0  0  0  0  0  0  0  0
   36.8567   14.3082  -12.7242 C   0  0  0  0  0  0  0  0  0  0  0  0
   36.6334   13.3008  -11.9500 O   0  0  0  0  0  0  0  0  0  0  0  0
   35.9100   15.3731  -14.3064 H   0  0  0  0  0  0  0  0  0  0  0  0
   34.3007   13.8051  -13.5939 S   0  0  0  0  0  0  0  0  0  0  0  0
   34.5599   12.3478  -13.2353 O   0  0  0  0  0  0  0  0  0  0  0  0
   33.6170   13.8425  -14.8992 O   0  0  0  0  0  0  0  0  0  0  0  0
   31.1204   14.9495  -11.3431 C   0  0  0  0  0  0  0  0  0  0  0  0
   31.9176   14.3858  -12.3697 C   0  0  0  0  0  0  0  0  0  0  0  0
   33.2780   14.5213  -12.3575 C   0  0  0  0  0  0  0  0  0  0  0  0
   33.8583   15.2148  -11.3288 C   0  0  0  0  0  0  0  0  0  0  0  0
   33.0819   15.7610  -10.3297 C   0  0  0  0  0  0  0  0  0  0  0  0
   31.6897   15.6443  -10.3054 C   0  0  0  0  0  0  0  0  0  0  0  0
   29.1500   14.1887  -12.5767 O   0  0  0  0  0  0  0  0  0  0  0  0
   29.7273   14.7681  -11.4413 N   0  0  0  0  0  0  0  0  0  0  0  0
   28.9315   15.1356  -10.5771 O   0  0  0  0  0  0  0  0  0  0  0  0
   30.9598   16.1372   -9.2233 N   0  0  0  0  0  0  0  0  0  0  0  0
   30.3564   17.0058   -9.3616 H   0  0  0  0  0  0  0  0  0  0  0  0
   30.9080   15.5782   -7.9173 C   0  0  0  0  0  0  0  0  0  0  0  0
   30.1435   14.3364   -7.6924 C   0  0  0  0  0  0  0  0  0  0  0  0
   28.7234   14.4178   -7.2559 C   0  0  0  0  0  0  0  0  0  0  0  0
   28.3540   12.9959   -6.7768 C   0  0  0  0  0  0  0  0  0  0  0  0
   29.1327   12.0407   -7.3973 O   0  0  0  0  0  0  0  0  0  0  0  0
   30.4531   12.0355   -6.9261 C   0  0  0  0  0  0  0  0  0  0  0  0
   30.8629   13.4592   -6.6530 C   0  0  0  0  0  0  0  0  0  0  0  0
   39.0344   14.4130  -14.7452 O   0  0  0  0  0  0  0  0  0  0  0  0
   40.1478   13.7628  -15.3436 C   0  0  0  0  0  0  0  0  0  0  0  0
   40.0363   12.9772  -16.4668 C   0  0  0  0  0  0  0  0  0  0  0  0
   41.1028   12.3641  -17.0234 N   0  0  0  0  0  0  0  0  0  0  0  0
   42.3576   12.4908  -16.4993 C   0  0  0  0  0  0  0  0  0  0  0  0
   43.5772   11.9942  -16.8489 N   0  0  0  0  0  0  0  0  0  0  0  0
   44.4665   12.4687  -15.9408 C   0  0  0  0  0  0  0  0  0  0  0  0
   43.8312   13.2555  -15.0252 C   0  0  0  0  0  0  0  0  0  0  0  0
   42.4875   13.2742  -15.3744 C   0  0  0  0  0  0  0  0  0  0  0  0
   41.4009   13.9122  -14.7890 C   0  0  0  0  0  0  0  0  0  0  0  0
   43.7728   11.3723  -17.6564 H   0  0  0  0  0  0  0  0  0  0  0  0
 42 43  1  0  0  0
 43 44  2  0  0  0
 43 36  1  0  0  0
 36 37  2  0  0  0
 37 38  1  0  0  0
 38 39  2  0  0  0
 39 40  1  0  0  0
 40 41  2  0  0  0
 41 45  1  0  0  0
 45 47  1  0  0  0
 47 48  1  0  0  0
 48 49  1  0  0  0
 49 50  1  0  0  0
 50 51  1  0  0  0
 51 52  1  0  0  0
 52 53  1  0  0  0
 38 33  1  0  0  0
 33 34  2  0  0  0
 33 35  2  0  0  0
 33 29  1  0  0  0
 29 30  1  0  0  0
 30 31  2  0  0  0
 30  1  1  0  0  0
  1  2  2  0  0  0
  2  3  1  0  0  0
  3  4  2  0  0  0
  4  5  1  0  0  0
  5  6  2  0  0  0
  6 54  1  0  0  0
 54 55  1  0  0  0
 55 56  2  0  0  0
 56 57  1  0  0  0
 57 58  2  0  0  0
 58 59  1  0  0  0
 59 60  1  0  0  0
 60 61  2  0  0  0
 61 62  1  0  0  0
 62 63  2  0  0  0
  4  7  1  0  0  0
  7  8  1  0  0  0
  8  9  1  0  0  0
  9 10  1  0  0  0
 10 13  1  0  0  0
 13 14  1  0  0  0
 14 15  2  0  0  0
 15 16  1  0  0  0
 16 17  1  0  0  0
 17 18  1  0  0  0
 17 19  1  0  0  0
 17 20  1  0  0  0
 20 21  1  0  0  0
 15 22  1  0  0  0
 22 23  2  0  0  0
 23 24  1  0  0  0
 24 25  2  0  0  0
 25 26  1  0  0  0
 25 27  1  0  0  0
 27 28  2  0  0  0
 10 11  1  0  0  0
 11 12  1  0  0  0
 41 36  1  0  0  0
 53 48  1  0  0  0
  6  1  1  0  0  0
 63 55  1  0  0  0
 12  7  1  0  0  0
 62 58  1  0  0  0
 21 14  1  0  0  0
 28 22  1  0  0  0
 45 46  1  0  0  0
 29 32  1  0  0  0
 59 64  1  0  0  0
M  CHG 1  42  -1
M  CHG 1  43   1
M  END
> <minimizedAffinity>
-10.06439

> <CNNscore>
0.0631761774

> <CNNaffinity>
7.3364424706

> <CNN_VS>
0.4634884000

> <CNNaffinity_variance>
0.3552758992

$$$$
[H]c1nc2c(c([H])c1Oc1c([H])c(N3C([H])([H])C([H])([H])N(C([H])([H])C4=C(c5c([H])c([H])c(Cl)c([H])c5[H])C([H])([H])C(C([H])([H])[H])(C([H])([H])[H])C([H])([H])C4([H])[H])C([H])([H])C3([H])[H])c([H])c([H])c1C(=O)N([H])S(=O)(=O)c1c([H])c([H])c(N([H])C([H])([H])C3([H])C([H])([H])C([H])([H])OC([H])([H])C3([H])[H])c([N+](=O)[O-])c1[H])c([H])c([H])n2[H]


 64 71  0  0  0  0  0  0  0  0999 V2000
   45.3812   13.0082  -12.0515 C   0  0  0  0  0  0  0  0  0  0  0  0
   45.7745   11.7252  -11.5700 C   0  0  0  0  0  0  0  0  0  0  0  0
   46.3396   11.5329  -10.3406 C   0  0  0  0  0  0  0  0  0  0  0  0
   46.5661   12.5761   -9.4833 C   0  0  0  0  0  0  0  0  0  0  0  0
   46.1909   13.8318   -9.9226 C   0  0  0  0  0  0  0  0  0  0  0  0
   45.6088   14.0372  -11.1765 C   0  0  0  0  0  0  0  0  0  0  0  0
   47.1652   12.4554   -8.2184 N   0  0  0  0  0  0  0  0  0  0  0  0
   47.5512   13.6376   -7.4725 C   0  0  0  0  0  0  0  0  0  0  0  0
   46.8053   13.5603   -6.1789 C   0  0  0  0  0  0  0  0  0  0  0  0
   47.0920   12.3354   -5.4719 N   0  0  0  0  0  0  0  0  0  0  0  0
   46.8937   11.1436   -6.1864 C   0  0  0  0  0  0  0  0  0  0  0  0
   47.4175   11.1800   -7.6100 C   0  0  0  0  0  0  0  0  0  0  0  0
   46.5217   12.4627   -4.1753 C   0  0  0  0  0  0  0  0  0  0  0  0
   45.4100   11.6058   -3.7875 C   0  0  0  0  0  0  0  0  0  0  0  0
   44.1509   11.9331   -4.0815 C   0  0  0  0  0  0  0  0  0  0  0  0
   43.0195   11.0315   -3.6743 C   0  0  0  0  0  0  0  0  0  0  0  0
   43.3299    9.5829   -3.7376 C   0  0  0  0  0  0  0  0  0  0  0  0
   42.7186    9.0264   -5.0352 C   0  0  0  0  0  0  0  0  0  0  0  0
   42.6769    8.8408   -2.5696 C   0  0  0  0  0  0  0  0  0  0  0  0
   44.7761    9.2190   -3.7570 C   0  0  0  0  0  0  0  0  0  0  0  0
   45.6311   10.2958   -3.0941 C   0  0  0  0  0  0  0  0  0  0  0  0
   43.7816   13.1478   -4.7427 C   0  0  0  0  0  0  0  0  0  0  0  0
   43.8984   14.3845   -4.0808 C   0  0  0  0  0  0  0  0  0  0  0  0
   43.6021   15.5597   -4.7240 C   0  0  0  0  0  0  0  0  0  0  0  0
   43.1821   15.5751   -6.0335 C   0  0  0  0  0  0  0  0  0  0  0  0
   42.7985   17.0559   -6.8910 Cl  0  0  0  0  0  0  0  0  0  0  0  0
   43.0635   14.3874   -6.6910 C   0  0  0  0  0  0  0  0  0  0  0  0
   43.3647   13.2069   -6.0331 C   0  0  0  0  0  0  0  0  0  0  0  0
   43.7459   12.9570  -13.9975 N   0  0  0  0  0  0  0  0  0  0  0  0
   44.9954   13.1187  -13.4331 C   0  0  0  0  0  0  0  0  0  0  0  0
   45.9474   13.3960  -14.2583 O   0  0  0  0  0  0  0  0  0  0  0  0
   42.8876   12.8171  -13.4378 H   0  0  0  0  0  0  0  0  0  0  0  0
   43.4612   13.0671  -15.7104 S   0  0  0  0  0  0  0  0  0  0  0  0
   44.2109   11.9270  -16.3868 O   0  0  0  0  0  0  0  0  0  0  0  0
   43.9185   14.3353  -16.3064 O   0  0  0  0  0  0  0  0  0  0  0  0
   39.8580   12.0498  -17.2828 C   0  0  0  0  0  0  0  0  0  0  0  0
   41.2513   12.2305  -17.1002 C   0  0  0  0  0  0  0  0  0  0  0  0
   41.7386   12.8578  -15.9875 C   0  0  0  0  0  0  0  0  0  0  0  0
   40.8505   13.3098  -15.0480 C   0  0  0  0  0  0  0  0  0  0  0  0
   39.4954   13.1317  -15.2259 C   0  0  0  0  0  0  0  0  0  0  0  0
   38.9577   12.4955  -16.3478 C   0  0  0  0  0  0  0  0  0  0  0  0
   38.3344   10.5504  -18.4717 O   0  0  0  0  0  0  0  0  0  0  0  0
   39.4454   11.4011  -18.4627 N   0  0  0  0  0  0  0  0  0  0  0  0
   40.0414   11.4978  -19.5354 O   0  0  0  0  0  0  0  0  0  0  0  0
   37.5852   12.2604  -16.4344 N   0  0  0  0  0  0  0  0  0  0  0  0
   37.0814   12.4802  -17.3486 H   0  0  0  0  0  0  0  0  0  0  0  0
   36.7572   11.7182  -15.4141 C   0  0  0  0  0  0  0  0  0  0  0  0
   35.9584   12.6287  -14.5714 C   0  0  0  0  0  0  0  0  0  0  0  0
   36.3617   12.8640  -13.1587 C   0  0  0  0  0  0  0  0  0  0  0  0
   35.1486   13.5477  -12.4889 C   0  0  0  0  0  0  0  0  0  0  0  0
   34.3845   14.2292  -13.4139 O   0  0  0  0  0  0  0  0  0  0  0  0
   33.6515   13.3688  -14.2433 C   0  0  0  0  0  0  0  0  0  0  0  0
   34.4957   12.1537  -14.5272 C   0  0  0  0  0  0  0  0  0  0  0  0
   45.2666   15.3450  -11.4818 O   0  0  0  0  0  0  0  0  0  0  0  0
   43.8850   15.6755  -11.5305 C   0  0  0  0  0  0  0  0  0  0  0  0
   43.2743   16.1589  -12.6637 C   0  0  0  0  0  0  0  0  0  0  0  0
   41.9608   16.4704  -12.6947 N   0  0  0  0  0  0  0  0  0  0  0  0
   41.1620   16.3218  -11.5969 C   0  0  0  0  0  0  0  0  0  0  0  0
   39.8413   16.5544  -11.3566 N   0  0  0  0  0  0  0  0  0  0  0  0
   39.6147   16.2159  -10.0624 C   0  0  0  0  0  0  0  0  0  0  0  0
   40.7673   15.7739   -9.4819 C   0  0  0  0  0  0  0  0  0  0  0  0
   41.7574   15.8385  -10.4532 C   0  0  0  0  0  0  0  0  0  0  0  0
   43.1073   15.5131  -10.4040 C   0  0  0  0  0  0  0  0  0  0  0  0
   39.1532   16.9217  -12.0412 H   0  0  0  0  0  0  0  0  0  0  0  0
 42 43  1  0  0  0
 43 44  2  0  0  0
 43 36  1  0  0  0
 36 37  2  0  0  0
 37 38  1  0  0  0
 38 39  2  0  0  0
 39 40  1  0  0  0
 40 41  2  0  0  0
 41 45  1  0  0  0
 45 47  1  0  0  0
 47 48  1  0  0  0
 48 49  1  0  0  0
 49 50  1  0  0  0
 50 51  1  0  0  0
 51 52  1  0  0  0
 52 53  1  0  0  0
 38 33  1  0  0  0
 33 34  2  0  0  0
 33 35  2  0  0  0
 33 29  1  0  0  0
 29 30  1  0  0  0
 30 31  2  0  0  0
 30  1  1  0  0  0
  1  2  2  0  0  0
  2  3  1  0  0  0
  3  4  2  0  0  0
  4  5  1  0  0  0
  5  6  2  0  0  0
  6 54  1  0  0  0
 54 55  1  0  0  0
 55 56  2  0  0  0
 56 57  1  0  0  0
 57 58  2  0  0  0
 58 59  1  0  0  0
 59 60  1  0  0  0
 60 61  2  0  0  0
 61 62  1  0  0  0
 62 63  2  0  0  0
  4  7  1  0  0  0
  7  8  1  0  0  0
  8  9  1  0  0  0
  9 10  1  0  0  0
 10 13  1  0  0  0
 13 14  1  0  0  0
 14 15  2  0  0  0
 15 16  1  0  0  0
 16 17  1  0  0  0
 17 18  1  0  0  0
 17 19  1  0  0  0
 17 20  1  0  0  0
 20 21  1  0  0  0
 15 22  1  0  0  0
 22 23  2  0  0  0
 23 24  1  0  0  0
 24 25  2  0  0  0
 25 26  1  0  0  0
 25 27  1  0  0  0
 27 28  2  0  0  0
 10 11  1  0  0  0
 11 12  1  0  0  0
 41 36  1  0  0  0
 53 48  1  0  0  0
  6  1  1  0  0  0
 63 55  1  0  0  0
 12  7  1  0  0  0
 62 58  1  0  0  0
 21 14  1  0  0  0
 28 22  1  0  0  0
 45 46  1  0  0  0
 29 32  1  0  0  0
 59 64  1  0  0  0
M  CHG 1  42  -1
M  CHG 1  43   1
M  END
> <minimizedAffinity>
-9.94389

> <CNNscore>
0.0396730229

> <CNNaffinity>
7.3348426819

> <CNN_VS>
0.2909953892

> <CNNaffinity_variance>
0.9901720285

$$$$
[H]c1nc2c(c([H])c1Oc1c([H])c(N3C([H])([H])C([H])([H])N(C([H])([H])C4=C(c5c([H])c([H])c(Cl)c([H])c5[H])C([H])([H])C(C([H])([H])[H])(C([H])([H])[H])C([H])([H])C4([H])[H])C([H])([H])C3([H])[H])c([H])c([H])c1C(=O)N([H])S(=O)(=O)c1c([H])c([H])c(N([H])C([H])([H])C3([H])C([H])([H])C([H])([H])OC([H])([H])C3([H])[H])c([N+](=O)[O-])c1[H])c([H])c([H])n2[H]


 64 71  0  0  0  0  0  0  0  0999 V2000
   45.6926   13.1077  -11.6600 C   0  0  0  0  0  0  0  0  0  0  0  0
   46.2237   11.8546  -11.2353 C   0  0  0  0  0  0  0  0  0  0  0  0
   46.8065   11.6691  -10.0132 C   0  0  0  0  0  0  0  0  0  0  0  0
   46.9179   12.6906   -9.1082 C   0  0  0  0  0  0  0  0  0  0  0  0
   46.4078   13.9166   -9.4919 C   0  0  0  0  0  0  0  0  0  0  0  0
   45.8066   14.1143  -10.7381 C   0  0  0  0  0  0  0  0  0  0  0  0
   47.5267   12.5784   -7.8472 N   0  0  0  0  0  0  0  0  0  0  0  0
   47.7970   13.7618   -7.0540 C   0  0  0  0  0  0  0  0  0  0  0  0
   47.0630   13.5615   -5.7668 C   0  0  0  0  0  0  0  0  0  0  0  0
   47.4673   12.3430   -5.1079 N   0  0  0  0  0  0  0  0  0  0  0  0
   47.3847   11.1670   -5.8696 C   0  0  0  0  0  0  0  0  0  0  0  0
   47.9017   11.3103   -7.2889 C   0  0  0  0  0  0  0  0  0  0  0  0
   46.8883   12.3631   -3.8090 C   0  0  0  0  0  0  0  0  0  0  0  0
   45.7410   11.5154   -3.5162 C   0  0  0  0  0  0  0  0  0  0  0  0
   44.4944   11.9685   -3.6556 C   0  0  0  0  0  0  0  0  0  0  0  0
   43.3254   11.0745   -3.3509 C   0  0  0  0  0  0  0  0  0  0  0  0
   43.5266    9.6499   -3.7098 C   0  0  0  0  0  0  0  0  0  0  0  0
   42.8055    9.3940   -5.0446 C   0  0  0  0  0  0  0  0  0  0  0  0
   42.8877    8.7354   -2.6624 C   0  0  0  0  0  0  0  0  0  0  0  0
   44.9394    9.2107   -3.8970 C   0  0  0  0  0  0  0  0  0  0  0  0
   45.9054   10.0848   -3.1015 C   0  0  0  0  0  0  0  0  0  0  0  0
   44.1773   13.3085   -4.0467 C   0  0  0  0  0  0  0  0  0  0  0  0
   43.5312   13.5605   -5.2716 C   0  0  0  0  0  0  0  0  0  0  0  0
   43.1709   14.8349   -5.6302 C   0  0  0  0  0  0  0  0  0  0  0  0
   43.4253   15.9100   -4.8112 C   0  0  0  0  0  0  0  0  0  0  0  0
   42.9765   17.5522   -5.2319 Cl  0  0  0  0  0  0  0  0  0  0  0  0
   44.0497   15.6857   -3.6209 C   0  0  0  0  0  0  0  0  0  0  0  0
   44.4093   14.3959   -3.2682 C   0  0  0  0  0  0  0  0  0  0  0  0
   44.0478   13.0635  -13.5980 N   0  0  0  0  0  0  0  0  0  0  0  0
   45.2969   13.2383  -13.0370 C   0  0  0  0  0  0  0  0  0  0  0  0
   46.2386   13.5511  -13.8614 O   0  0  0  0  0  0  0  0  0  0  0  0
   43.1955   12.8954  -13.0368 H   0  0  0  0  0  0  0  0  0  0  0  0
   43.7512   13.2024  -15.3068 S   0  0  0  0  0  0  0  0  0  0  0  0
   44.4993   12.0762  -16.0079 O   0  0  0  0  0  0  0  0  0  0  0  0
   44.2013   14.4820  -15.8838 O   0  0  0  0  0  0  0  0  0  0  0  0
   39.7072   13.2974  -14.9500 C   0  0  0  0  0  0  0  0  0  0  0  0
   41.0915   13.4541  -14.6922 C   0  0  0  0  0  0  0  0  0  0  0  0
   42.0274   12.9934  -15.5760 C   0  0  0  0  0  0  0  0  0  0  0  0
   41.5995   12.3754  -16.7209 C   0  0  0  0  0  0  0  0  0  0  0  0
   40.2526   12.2253  -16.9715 C   0  0  0  0  0  0  0  0  0  0  0  0
   39.2653   12.6825  -16.0946 C   0  0  0  0  0  0  0  0  0  0  0  0
   38.1806   15.0307  -14.1449 O   0  0  0  0  0  0  0  0  0  0  0  0
   38.8149   13.7942  -13.9804 N   0  0  0  0  0  0  0  0  0  0  0  0
   38.5664   13.2130  -12.9241 O   0  0  0  0  0  0  0  0  0  0  0  0
   37.9169   12.5867  -16.4397 N   0  0  0  0  0  0  0  0  0  0  0  0
   37.3431   13.4814  -16.5295 H   0  0  0  0  0  0  0  0  0  0  0  0
   37.2018   11.3904  -16.7196 C   0  0  0  0  0  0  0  0  0  0  0  0
   35.8286   11.2316  -16.2034 C   0  0  0  0  0  0  0  0  0  0  0  0
   34.7359   10.8389  -17.1337 C   0  0  0  0  0  0  0  0  0  0  0  0
   33.4212   11.1139  -16.3697 C   0  0  0  0  0  0  0  0  0  0  0  0
   33.6129   11.0507  -15.0048 O   0  0  0  0  0  0  0  0  0  0  0  0
   34.3242   12.1532  -14.5108 C   0  0  0  0  0  0  0  0  0  0  0  0
   35.3692   12.5348  -15.5267 C   0  0  0  0  0  0  0  0  0  0  0  0
   45.3237   15.3896  -10.9854 O   0  0  0  0  0  0  0  0  0  0  0  0
   44.0021   15.6930  -10.5591 C   0  0  0  0  0  0  0  0  0  0  0  0
   43.6818   15.9417   -9.2451 C   0  0  0  0  0  0  0  0  0  0  0  0
   42.4212   16.2270   -8.8544 N   0  0  0  0  0  0  0  0  0  0  0  0
   41.3891   16.2848   -9.7471 C   0  0  0  0  0  0  0  0  0  0  0  0
   40.0565   16.5422   -9.6283 N   0  0  0  0  0  0  0  0  0  0  0  0
   39.5299   16.4557  -10.8757 C   0  0  0  0  0  0  0  0  0  0  0  0
   40.5049   16.1491  -11.7791 C   0  0  0  0  0  0  0  0  0  0  0  0
   41.6921   16.0385  -11.0675 C   0  0  0  0  0  0  0  0  0  0  0  0
   42.9835   15.7436  -11.4866 C   0  0  0  0  0  0  0  0  0  0  0  0
   39.5545   16.7594   -8.7464 H   0  0  0  0  0  0  0  0  0  0  0  0
 42 43  1  0  0  0
 43 44  2  0  0  0
 43 36  1  0  0  0
 36 37  2  0  0  0
 37 38  1  0  0  0
 38 39  2  0  0  0
 39 40  1  0  0  0
 40 41  2  0  0  0
 41 45  1  0  0  0
 45 47  1  0  0  0
 47 48  1  0  0  0
 48 49  1  0  0  0
 49 50  1  0  0  0
 50 51  1  0  0  0
 51 52  1  0  0  0
 52 53  1  0  0  0
 38 33  1  0  0  0
 33 34  2  0  0  0
 33 35  2  0  0  0
 33 29  1  0  0  0
 29 30  1  0  0  0
 30 31  2  0  0  0
 30  1  1  0  0  0
  1  2  2  0  0  0
  2  3  1  0  0  0
  3  4  2  0  0  0
  4  5  1  0  0  0
  5  6  2  0  0  0
  6 54  1  0  0  0
 54 55  1  0  0  0
 55 56  2  0  0  0
 56 57  1  0  0  0
 57 58  2  0  0  0
 58 59  1  0  0  0
 59 60  1  0  0  0
 60 61  2  0  0  0
 61 62  1  0  0  0
 62 63  2  0  0  0
  4  7  1  0  0  0
  7  8  1  0  0  0
  8  9  1  0  0  0
  9 10  1  0  0  0
 10 13  1  0  0  0
 13 14  1  0  0  0
 14 15  2  0  0  0
 15 16  1  0  0  0
 16 17  1  0  0  0
 17 18  1  0  0  0
 17 19  1  0  0  0
 17 20  1  0  0  0
 20 21  1  0  0  0
 15 22  1  0  0  0
 22 23  2  0  0  0
 23 24  1  0  0  0
 24 25  2  0  0  0
 25 26  1  0  0  0
 25 27  1  0  0  0
 27 28  2  0  0  0
 10 11  1  0  0  0
 11 12  1  0  0  0
 41 36  1  0  0  0
 53 48  1  0  0  0
  6  1  1  0  0  0
 63 55  1  0  0  0
 12  7  1  0  0  0
 62 58  1  0  0  0
 21 14  1  0  0  0
 28 22  1  0  0  0
 45 46  1  0  0  0
 29 32  1  0  0  0
 59 64  1  0  0  0
M  CHG 1  42  -1
M  CHG 1  43   1
M  END
> <minimizedAffinity>
-9.14394

> <CNNscore>
0.0319342948

> <CNNaffinity>
6.9935121536

> <CNN_VS>
0.2233328819

> <CNNaffinity_variance>
1.1372740269

$$$$
[H]c1nc2c(c([H])c1Oc1c([H])c(N3C([H])([H])C([H])([H])N(C([H])([H])C4=C(c5c([H])c([H])c(Cl)c([H])c5[H])C([H])([H])C(C([H])([H])[H])(C([H])([H])[H])C([H])([H])C4([H])[H])C([H])([H])C3([H])[H])c([H])c([H])c1C(=O)N([H])S(=O)(=O)c1c([H])c([H])c(N([H])C([H])([H])C3([H])C([H])([H])C([H])([H])OC([H])([H])C3([H])[H])c([N+](=O)[O-])c1[H])c([H])c([H])n2[H]


 64 71  0  0  0  0  0  0  0  0999 V2000
   41.4287   14.8120   -8.4129 C   0  0  0  0  0  0  0  0  0  0  0  0
   40.6712   16.0168   -8.3289 C   0  0  0  0  0  0  0  0  0  0  0  0
   39.5041   16.1144   -7.6245 C   0  0  0  0  0  0  0  0  0  0  0  0
   38.9830   15.0451   -6.9464 C   0  0  0  0  0  0  0  0  0  0  0  0
   39.6988   13.8643   -7.0073 C   0  0  0  0  0  0  0  0  0  0  0  0
   40.8952   13.7565   -7.7218 C   0  0  0  0  0  0  0  0  0  0  0  0
   37.7777   15.0666   -6.2251 N   0  0  0  0  0  0  0  0  0  0  0  0
   37.7897   15.1116   -4.7757 C   0  0  0  0  0  0  0  0  0  0  0  0
   37.0396   16.3505   -4.4040 C   0  0  0  0  0  0  0  0  0  0  0  0
   35.7046   16.3486   -4.9518 N   0  0  0  0  0  0  0  0  0  0  0  0
   35.6010   16.1493   -6.3373 C   0  0  0  0  0  0  0  0  0  0  0  0
   36.4975   15.0491   -6.8739 C   0  0  0  0  0  0  0  0  0  0  0  0
   35.0132   17.4420   -4.3608 C   0  0  0  0  0  0  0  0  0  0  0  0
   33.6034   17.6517   -4.6594 C   0  0  0  0  0  0  0  0  0  0  0  0
   33.1838   18.7642   -5.2636 C   0  0  0  0  0  0  0  0  0  0  0  0
   31.7242   18.9575   -5.5651 C   0  0  0  0  0  0  0  0  0  0  0  0
   31.0017   17.7190   -5.9430 C   0  0  0  0  0  0  0  0  0  0  0  0
   30.8605   17.7047   -7.4749 C   0  0  0  0  0  0  0  0  0  0  0  0
   29.5895   17.7185   -5.3537 C   0  0  0  0  0  0  0  0  0  0  0  0
   31.6544   16.4332   -5.5626 C   0  0  0  0  0  0  0  0  0  0  0  0
   32.5712   16.6089   -4.3549 C   0  0  0  0  0  0  0  0  0  0  0  0
   34.0492   19.8474   -5.6196 C   0  0  0  0  0  0  0  0  0  0  0  0
   34.6872   19.8685   -6.8741 C   0  0  0  0  0  0  0  0  0  0  0  0
   35.4727   20.9293   -7.2485 C   0  0  0  0  0  0  0  0  0  0  0  0
   35.6662   22.0077   -6.4171 C   0  0  0  0  0  0  0  0  0  0  0  0
   36.6586   23.3836   -6.8610 Cl  0  0  0  0  0  0  0  0  0  0  0  0
   35.0562   22.0055   -5.1986 C   0  0  0  0  0  0  0  0  0  0  0  0
   34.2655   20.9302   -4.8301 C   0  0  0  0  0  0  0  0  0  0  0  0
   43.2085   13.6697   -9.8240 N   0  0  0  0  0  0  0  0  0  0  0  0
   42.5208   14.7682   -9.3485 C   0  0  0  0  0  0  0  0  0  0  0  0
   42.9187   15.9108   -9.7962 O   0  0  0  0  0  0  0  0  0  0  0  0
   42.9343   12.6959   -9.6096 H   0  0  0  0  0  0  0  0  0  0  0  0
   44.5565   13.7988  -10.9164 S   0  0  0  0  0  0  0  0  0  0  0  0
   45.5097   12.6469  -10.6268 O   0  0  0  0  0  0  0  0  0  0  0  0
   45.3071   15.0606  -10.7843 O   0  0  0  0  0  0  0  0  0  0  0  0
   44.1733   12.9631  -14.8718 C   0  0  0  0  0  0  0  0  0  0  0  0
   44.7037   13.1139  -13.5667 C   0  0  0  0  0  0  0  0  0  0  0  0
   43.9438   13.6311  -12.5548 C   0  0  0  0  0  0  0  0  0  0  0  0
   42.6539   14.0018  -12.8275 C   0  0  0  0  0  0  0  0  0  0  0  0
   42.1383   13.8528  -14.0969 C   0  0  0  0  0  0  0  0  0  0  0  0
   42.8815   13.3281  -15.1575 C   0  0  0  0  0  0  0  0  0  0  0  0
   46.4172   12.5982  -15.7744 O   0  0  0  0  0  0  0  0  0  0  0  0
   45.0303   12.4301  -15.8540 N   0  0  0  0  0  0  0  0  0  0  0  0
   44.6305   11.8298  -16.8515 O   0  0  0  0  0  0  0  0  0  0  0  0
   42.2830   13.1139  -16.3995 N   0  0  0  0  0  0  0  0  0  0  0  0
   42.7989   12.5273  -17.1258 H   0  0  0  0  0  0  0  0  0  0  0  0
   41.0069   13.5849  -16.8123 C   0  0  0  0  0  0  0  0  0  0  0  0
   40.0141   12.6235  -17.3292 C   0  0  0  0  0  0  0  0  0  0  0  0
   39.1415   11.8860  -16.3761 C   0  0  0  0  0  0  0  0  0  0  0  0
   38.5058   10.7408  -17.1959 C   0  0  0  0  0  0  0  0  0  0  0  0
   38.4367   11.0630  -18.5358 O   0  0  0  0  0  0  0  0  0  0  0  0
   39.6918   11.0355  -19.1600 C   0  0  0  0  0  0  0  0  0  0  0  0
   40.7160   11.5544  -18.1845 C   0  0  0  0  0  0  0  0  0  0  0  0
   41.5170   12.5185   -7.6844 O   0  0  0  0  0  0  0  0  0  0  0  0
   42.1780   12.1438   -6.4831 C   0  0  0  0  0  0  0  0  0  0  0  0
   43.4072   12.6435   -6.1222 C   0  0  0  0  0  0  0  0  0  0  0  0
   44.0241   12.2769   -4.9784 N   0  0  0  0  0  0  0  0  0  0  0  0
   43.4586   11.3852   -4.1121 C   0  0  0  0  0  0  0  0  0  0  0  0
   43.8514   10.8530   -2.9211 N   0  0  0  0  0  0  0  0  0  0  0  0
   42.8640   10.0108   -2.5256 C   0  0  0  0  0  0  0  0  0  0  0  0
   41.8557   10.0018   -3.4443 C   0  0  0  0  0  0  0  0  0  0  0  0
   42.2273   10.8749   -4.4580 C   0  0  0  0  0  0  0  0  0  0  0  0
   41.5787   11.2412   -5.6308 C   0  0  0  0  0  0  0  0  0  0  0  0
   44.7389   11.0602   -2.4246 H   0  0  0  0  0  0  0  0  0  0  0  0
 42 43  1  0  0  0
 43 44  2  0  0  0
 43 36  1  0  0  0
 36 37  2  0  0  0
 37 38  1  0  0  0
 38 39  2  0  0  0
 39 40  1  0  0  0
 40 41  2  0  0  0
 41 45  1  0  0  0
 45 47  1  0  0  0
 47 48  1  0  0  0
 48 49  1  0  0  0
 49 50  1  0  0  0
 50 51  1  0  0  0
 51 52  1  0  0  0
 52 53  1  0  0  0
 38 33  1  0  0  0
 33 34  2  0  0  0
 33 35  2  0  0  0
 33 29  1  0  0  0
 29 30  1  0  0  0
 30 31  2  0  0  0
 30  1  1  0  0  0
  1  2  2  0  0  0
  2  3  1  0  0  0
  3  4  2  0  0  0
  4  5  1  0  0  0
  5  6  2  0  0  0
  6 54  1  0  0  0
 54 55  1  0  0  0
 55 56  2  0  0  0
 56 57  1  0  0  0
 57 58  2  0  0  0
 58 59  1  0  0  0
 59 60  1  0  0  0
 60 61  2  0  0  0
 61 62  1  0  0  0
 62 63  2  0  0  0
  4  7  1  0  0  0
  7  8  1  0  0  0
  8  9  1  0  0  0
  9 10  1  0  0  0
 10 13  1  0  0  0
 13 14  1  0  0  0
 14 15  2  0  0  0
 15 16  1  0  0  0
 16 17  1  0  0  0
 17 18  1  0  0  0
 17 19  1  0  0  0
 17 20  1  0  0  0
 20 21  1  0  0  0
 15 22  1  0  0  0
 22 23  2  0  0  0
 23 24  1  0  0  0
 24 25  2  0  0  0
 25 26  1  0  0  0
 25 27  1  0  0  0
 27 28  2  0  0  0
 10 11  1  0  0  0
 11 12  1  0  0  0
 41 36  1  0  0  0
 53 48  1  0  0  0
  6  1  1  0  0  0
 63 55  1  0  0  0
 12  7  1  0  0  0
 62 58  1  0  0  0
 21 14  1  0  0  0
 28 22  1  0  0  0
 45 46  1  0  0  0
 29 32  1  0  0  0
 59 64  1  0  0  0
M  CHG 1  42  -1
M  CHG 1  43   1
M  END
> <minimizedAffinity>
-10.07598

> <CNNscore>
0.0271193031

> <CNNaffinity>
6.5199232101

> <CNN_VS>
0.1768157780

> <CNNaffinity_variance>
0.5593819618

$$$$
[H]c1nc2c(c([H])c1Oc1c([H])c(N3C([H])([H])C([H])([H])N(C([H])([H])C4=C(c5c([H])c([H])c(Cl)c([H])c5[H])C([H])([H])C(C([H])([H])[H])(C([H])([H])[H])C([H])([H])C4([H])[H])C([H])([H])C3([H])[H])c([H])c([H])c1C(=O)N([H])S(=O)(=O)c1c([H])c([H])c(N([H])C([H])([H])C3([H])C([H])([H])C([H])([H])OC([H])([H])C3([H])[H])c([N+](=O)[O-])c1[H])c([H])c([H])n2[H]


 64 71  0  0  0  0  0  0  0  0999 V2000
   41.2486   16.2684  -11.0818 C   0  0  0  0  0  0  0  0  0  0  0  0
   42.4672   16.1213  -10.3564 C   0  0  0  0  0  0  0  0  0  0  0  0
   43.6130   15.6321  -10.9181 C   0  0  0  0  0  0  0  0  0  0  0  0
   43.6617   15.2474  -12.2312 C   0  0  0  0  0  0  0  0  0  0  0  0
   42.4951   15.3826  -12.9600 C   0  0  0  0  0  0  0  0  0  0  0  0
   41.3199   15.8856  -12.3950 C   0  0  0  0  0  0  0  0  0  0  0  0
   44.7953   14.7130  -12.8660 N   0  0  0  0  0  0  0  0  0  0  0  0
   45.9159   15.5668  -13.2094 C   0  0  0  0  0  0  0  0  0  0  0  0
   47.0975   14.9872  -12.4998 C   0  0  0  0  0  0  0  0  0  0  0  0
   47.3135   13.6080  -12.8651 N   0  0  0  0  0  0  0  0  0  0  0  0
   46.2179   12.7445  -12.7103 C   0  0  0  0  0  0  0  0  0  0  0  0
   44.9013   13.3204  -13.1971 C   0  0  0  0  0  0  0  0  0  0  0  0
   48.5711   13.2277  -12.3206 C   0  0  0  0  0  0  0  0  0  0  0  0
   48.6389   12.1521  -11.3412 C   0  0  0  0  0  0  0  0  0  0  0  0
   48.5509   12.4021  -10.0341 C   0  0  0  0  0  0  0  0  0  0  0  0
   48.6199   11.2757   -9.0415 C   0  0  0  0  0  0  0  0  0  0  0  0
   47.9804   10.0157   -9.4911 C   0  0  0  0  0  0  0  0  0  0  0  0
   46.5960    9.9266   -8.8259 C   0  0  0  0  0  0  0  0  0  0  0  0
   48.7907    8.8044   -9.0243 C   0  0  0  0  0  0  0  0  0  0  0  0
   47.7582    9.8766  -10.9592 C   0  0  0  0  0  0  0  0  0  0  0  0
   48.7530   10.7166  -11.7559 C   0  0  0  0  0  0  0  0  0  0  0  0
   48.4354   13.7190   -9.4851 C   0  0  0  0  0  0  0  0  0  0  0  0
   47.1931   14.1936   -9.0240 C   0  0  0  0  0  0  0  0  0  0  0  0
   47.0821   15.4318   -8.4434 C   0  0  0  0  0  0  0  0  0  0  0  0
   48.1746   16.2529   -8.2898 C   0  0  0  0  0  0  0  0  0  0  0  0
   48.0742   17.8393   -7.5491 Cl  0  0  0  0  0  0  0  0  0  0  0  0
   49.3861   15.8105   -8.7297 C   0  0  0  0  0  0  0  0  0  0  0  0
   49.4876   14.5595   -9.3143 C   0  0  0  0  0  0  0  0  0  0  0  0
   39.3702   17.7868  -10.2883 N   0  0  0  0  0  0  0  0  0  0  0  0
   40.0592   16.5917  -10.3396 C   0  0  0  0  0  0  0  0  0  0  0  0
   39.5766   15.6392   -9.6158 O   0  0  0  0  0  0  0  0  0  0  0  0
   39.6035   18.5988  -10.8847 H   0  0  0  0  0  0  0  0  0  0  0  0
   37.9708   18.0285   -9.2832 S   0  0  0  0  0  0  0  0  0  0  0  0
   37.5615   19.4916   -9.3892 O   0  0  0  0  0  0  0  0  0  0  0  0
   38.2025   17.7181   -7.8609 O   0  0  0  0  0  0  0  0  0  0  0  0
   34.5149   15.9417   -9.7217 C   0  0  0  0  0  0  0  0  0  0  0  0
   35.5607   16.7267   -9.1763 C   0  0  0  0  0  0  0  0  0  0  0  0
   36.6715   17.0278   -9.9142 C   0  0  0  0  0  0  0  0  0  0  0  0
   36.7545   16.5547  -11.1968 C   0  0  0  0  0  0  0  0  0  0  0  0
   35.7357   15.7928  -11.7269 C   0  0  0  0  0  0  0  0  0  0  0  0
   34.5845   15.4639  -11.0065 C   0  0  0  0  0  0  0  0  0  0  0  0
   32.1077   15.9778   -9.2895 O   0  0  0  0  0  0  0  0  0  0  0  0
   33.4129   15.6736   -8.8870 N   0  0  0  0  0  0  0  0  0  0  0  0
   33.5170   15.2041   -7.7539 O   0  0  0  0  0  0  0  0  0  0  0  0
   33.5434   14.7674  -11.6209 N   0  0  0  0  0  0  0  0  0  0  0  0
   32.8193   14.2780  -11.0094 H   0  0  0  0  0  0  0  0  0  0  0  0
   33.3163   14.6529  -13.0195 C   0  0  0  0  0  0  0  0  0  0  0  0
   34.1420   13.7216  -13.8120 C   0  0  0  0  0  0  0  0  0  0  0  0
   35.1787   14.2615  -14.7326 C   0  0  0  0  0  0  0  0  0  0  0  0
   35.5842   13.0790  -15.6408 C   0  0  0  0  0  0  0  0  0  0  0  0
   35.3686   11.8692  -15.0133 O   0  0  0  0  0  0  0  0  0  0  0  0
   34.0073   11.5471  -14.9214 C   0  0  0  0  0  0  0  0  0  0  0  0
   33.2375   12.8169  -14.6668 C   0  0  0  0  0  0  0  0  0  0  0  0
   40.2292   15.9827  -13.2445 O   0  0  0  0  0  0  0  0  0  0  0  0
   39.7492   14.7884  -13.8476 C   0  0  0  0  0  0  0  0  0  0  0  0
   38.8301   13.9649  -13.2409 C   0  0  0  0  0  0  0  0  0  0  0  0
   38.3844   12.8321  -13.8253 N   0  0  0  0  0  0  0  0  0  0  0  0
   38.8238   12.4395  -15.0574 C   0  0  0  0  0  0  0  0  0  0  0  0
   38.5491   11.3714  -15.8573 N   0  0  0  0  0  0  0  0  0  0  0  0
   39.2995   11.5200  -16.9778 C   0  0  0  0  0  0  0  0  0  0  0  0
   40.0420   12.6617  -16.9001 C   0  0  0  0  0  0  0  0  0  0  0  0
   39.7444   13.2528  -15.6795 C   0  0  0  0  0  0  0  0  0  0  0  0
   40.2135   14.4216  -15.0926 C   0  0  0  0  0  0  0  0  0  0  0  0
   37.8912   10.5994  -15.6377 H   0  0  0  0  0  0  0  0  0  0  0  0
 42 43  1  0  0  0
 43 44  2  0  0  0
 43 36  1  0  0  0
 36 37  2  0  0  0
 37 38  1  0  0  0
 38 39  2  0  0  0
 39 40  1  0  0  0
 40 41  2  0  0  0
 41 45  1  0  0  0
 45 47  1  0  0  0
 47 48  1  0  0  0
 48 49  1  0  0  0
 49 50  1  0  0  0
 50 51  1  0  0  0
 51 52  1  0  0  0
 52 53  1  0  0  0
 38 33  1  0  0  0
 33 34  2  0  0  0
 33 35  2  0  0  0
 33 29  1  0  0  0
 29 30  1  0  0  0
 30 31  2  0  0  0
 30  1  1  0  0  0
  1  2  2  0  0  0
  2  3  1  0  0  0
  3  4  2  0  0  0
  4  5  1  0  0  0
  5  6  2  0  0  0
  6 54  1  0  0  0
 54 55  1  0  0  0
 55 56  2  0  0  0
 56 57  1  0  0  0
 57 58  2  0  0  0
 58 59  1  0  0  0
 59 60  1  0  0  0
 60 61  2  0  0  0
 61 62  1  0  0  0
 62 63  2  0  0  0
  4  7  1  0  0  0
  7  8  1  0  0  0
  8  9  1  0  0  0
  9 10  1  0  0  0
 10 13  1  0  0  0
 13 14  1  0  0  0
 14 15  2  0  0  0
 15 16  1  0  0  0
 16 17  1  0  0  0
 17 18  1  0  0  0
 17 19  1  0  0  0
 17 20  1  0  0  0
 20 21  1  0  0  0
 15 22  1  0  0  0
 22 23  2  0  0  0
 23 24  1  0  0  0
 24 25  2  0  0  0
 25 26  1  0  0  0
 25 27  1  0  0  0
 27 28  2  0  0  0
 10 11  1  0  0  0
 11 12  1  0  0  0
 41 36  1  0  0  0
 53 48  1  0  0  0
  6  1  1  0  0  0
 63 55  1  0  0  0
 12  7  1  0  0  0
 62 58  1  0  0  0
 21 14  1  0  0  0
 28 22  1  0  0  0
 45 46  1  0  0  0
 29 32  1  0  0  0
 59 64  1  0  0  0
M  CHG 1  42  -1
M  CHG 1  43   1
M  END
> <minimizedAffinity>
-9.06592

> <CNNscore>
0.0248731896

> <CNNaffinity>
7.1023955345

> <CNN_VS>
0.1766592264

> <CNNaffinity_variance>
0.8454688191

$$$$
[H]c1nc2c(c([H])c1Oc1c([H])c(N3C([H])([H])C([H])([H])N(C([H])([H])C4=C(c5c([H])c([H])c(Cl)c([H])c5[H])C([H])([H])C(C([H])([H])[H])(C([H])([H])[H])C([H])([H])C4([H])[H])C([H])([H])C3([H])[H])c([H])c([H])c1C(=O)N([H])S(=O)(=O)c1c([H])c([H])c(N([H])C([H])([H])C3([H])C([H])([H])C([H])([H])OC([H])([H])C3([H])[H])c([N+](=O)[O-])c1[H])c([H])c([H])n2[H]


 64 71  0  0  0  0  0  0  0  0999 V2000
   41.7495   15.6836  -11.6790 C   0  0  0  0  0  0  0  0  0  0  0  0
   41.8837   15.7072  -10.2598 C   0  0  0  0  0  0  0  0  0  0  0  0
   40.8299   15.9204   -9.4162 C   0  0  0  0  0  0  0  0  0  0  0  0
   39.5618   16.1277   -9.8892 C   0  0  0  0  0  0  0  0  0  0  0  0
   39.4015   16.1064  -11.2619 C   0  0  0  0  0  0  0  0  0  0  0  0
   40.4727   15.8852  -12.1320 C   0  0  0  0  0  0  0  0  0  0  0  0
   38.4391   16.3784   -9.0830 N   0  0  0  0  0  0  0  0  0  0  0  0
   38.3163   15.7542   -7.7798 C   0  0  0  0  0  0  0  0  0  0  0  0
   38.2020   16.8797   -6.8022 C   0  0  0  0  0  0  0  0  0  0  0  0
   37.0899   17.7445   -7.1142 N   0  0  0  0  0  0  0  0  0  0  0  0
   37.0530   18.2649   -8.4173 C   0  0  0  0  0  0  0  0  0  0  0  0
   37.3783   17.2515   -9.4987 C   0  0  0  0  0  0  0  0  0  0  0  0
   36.9351   18.6330   -6.0145 C   0  0  0  0  0  0  0  0  0  0  0  0
   35.6395   18.7550   -5.3610 C   0  0  0  0  0  0  0  0  0  0  0  0
   34.9193   19.8733   -5.4592 C   0  0  0  0  0  0  0  0  0  0  0  0
   33.5831   19.9754   -4.7791 C   0  0  0  0  0  0  0  0  0  0  0  0
   32.8004   18.7161   -4.7618 C   0  0  0  0  0  0  0  0  0  0  0  0
   31.7425   18.8035   -5.8756 C   0  0  0  0  0  0  0  0  0  0  0  0
   32.0549   18.5637   -3.4342 C   0  0  0  0  0  0  0  0  0  0  0  0
   33.5679   17.4598   -5.0001 C   0  0  0  0  0  0  0  0  0  0  0  0
   35.0324   17.6163   -4.5991 C   0  0  0  0  0  0  0  0  0  0  0  0
   35.3630   21.0430   -6.1548 C   0  0  0  0  0  0  0  0  0  0  0  0
   34.9784   21.2682   -7.4900 C   0  0  0  0  0  0  0  0  0  0  0  0
   35.3500   22.4136   -8.1477 C   0  0  0  0  0  0  0  0  0  0  0  0
   36.1084   23.3813   -7.5313 C   0  0  0  0  0  0  0  0  0  0  0  0
   36.5993   24.8598   -8.3363 Cl  0  0  0  0  0  0  0  0  0  0  0  0
   36.4899   23.1812   -6.2385 C   0  0  0  0  0  0  0  0  0  0  0  0
   36.1099   22.0220   -5.5835 C   0  0  0  0  0  0  0  0  0  0  0  0
   43.9402   16.6217  -12.5647 N   0  0  0  0  0  0  0  0  0  0  0  0
   42.9525   15.6621  -12.4679 C   0  0  0  0  0  0  0  0  0  0  0  0
   43.1274   14.6081  -13.1909 O   0  0  0  0  0  0  0  0  0  0  0  0
   43.9616   17.4711  -11.9752 H   0  0  0  0  0  0  0  0  0  0  0  0
   45.3126   16.4620  -13.6222 S   0  0  0  0  0  0  0  0  0  0  0  0
   45.9318   17.8417  -13.8022 O   0  0  0  0  0  0  0  0  0  0  0  0
   44.9742   15.9327  -14.9557 O   0  0  0  0  0  0  0  0  0  0  0  0
   47.8831   13.4373  -12.7656 C   0  0  0  0  0  0  0  0  0  0  0  0
   46.9167   14.2492  -13.4091 C   0  0  0  0  0  0  0  0  0  0  0  0
   46.4824   15.4122  -12.8366 C   0  0  0  0  0  0  0  0  0  0  0  0
   47.0022   15.7798  -11.6239 C   0  0  0  0  0  0  0  0  0  0  0  0
   47.9437   14.9901  -10.9998 C   0  0  0  0  0  0  0  0  0  0  0  0
   48.4138   13.7956  -11.5517 C   0  0  0  0  0  0  0  0  0  0  0  0
   48.5143   12.2364  -14.8009 O   0  0  0  0  0  0  0  0  0  0  0  0
   48.2652   12.2525  -13.4240 N   0  0  0  0  0  0  0  0  0  0  0  0
   48.3639   11.1630  -12.8597 O   0  0  0  0  0  0  0  0  0  0  0  0
   49.4336   13.0815  -10.9219 N   0  0  0  0  0  0  0  0  0  0  0  0
   50.4087   13.0858  -11.3545 H   0  0  0  0  0  0  0  0  0  0  0  0
   49.3223   12.3430   -9.7124 C   0  0  0  0  0  0  0  0  0  0  0  0
   48.0893   11.5787   -9.4431 C   0  0  0  0  0  0  0  0  0  0  0  0
   47.2985   11.8700   -8.2168 C   0  0  0  0  0  0  0  0  0  0  0  0
   46.3172   10.6861   -8.0645 C   0  0  0  0  0  0  0  0  0  0  0  0
   46.0494   10.0980   -9.2836 O   0  0  0  0  0  0  0  0  0  0  0  0
   47.1327    9.3526   -9.7696 C   0  0  0  0  0  0  0  0  0  0  0  0
   48.4041   10.0731   -9.4037 C   0  0  0  0  0  0  0  0  0  0  0  0
   40.1666   15.8734  -13.4836 O   0  0  0  0  0  0  0  0  0  0  0  0
   39.4440   14.7594  -13.9908 C   0  0  0  0  0  0  0  0  0  0  0  0
   40.0607   13.6384  -14.4949 C   0  0  0  0  0  0  0  0  0  0  0  0
   39.3612   12.5881  -14.9751 N   0  0  0  0  0  0  0  0  0  0  0  0
   37.9954   12.5807  -14.9869 C   0  0  0  0  0  0  0  0  0  0  0  0
   37.0636   11.6782  -15.4032 N   0  0  0  0  0  0  0  0  0  0  0  0
   35.8489   12.2318  -15.1610 C   0  0  0  0  0  0  0  0  0  0  0  0
   35.9967   13.4662  -14.5994 C   0  0  0  0  0  0  0  0  0  0  0  0
   37.3614   13.6954  -14.4854 C   0  0  0  0  0  0  0  0  0  0  0  0
   38.0657   14.7846  -13.9875 C   0  0  0  0  0  0  0  0  0  0  0  0
   37.2601   10.7502  -15.8243 H   0  0  0  0  0  0  0  0  0  0  0  0
 42 43  1  0  0  0
 43 44  2  0  0  0
 43 36  1  0  0  0
 36 37  2  0  0  0
 37 38  1  0  0  0
 38 39  2  0  0  0
 39 40  1  0  0  0
 40 41  2  0  0  0
 41 45  1  0  0  0
 45 47  1  0  0  0
 47 48  1  0  0  0
 48 49  1  0  0  0
 49 50  1  0  0  0
 50 51  1  0  0  0
 51 52  1  0  0  0
 52 53  1  0  0  0
 38 33  1  0  0  0
 33 34  2  0  0  0
 33 35  2  0  0  0
 33 29  1  0  0  0
 29 30  1  0  0  0
 30 31  2  0  0  0
 30  1  1  0  0  0
  1  2  2  0  0  0
  2  3  1  0  0  0
  3  4  2  0  0  0
  4  5  1  0  0  0
  5  6  2  0  0  0
  6 54  1  0  0  0
 54 55  1  0  0  0
 55 56  2  0  0  0
 56 57  1  0  0  0
 57 58  2  0  0  0
 58 59  1  0  0  0
 59 60  1  0  0  0
 60 61  2  0  0  0
 61 62  1  0  0  0
 62 63  2  0  0  0
  4  7  1  0  0  0
  7  8  1  0  0  0
  8  9  1  0  0  0
  9 10  1  0  0  0
 10 13  1  0  0  0
 13 14  1  0  0  0
 14 15  2  0  0  0
 15 16  1  0  0  0
 16 17  1  0  0  0
 17 18  1  0  0  0
 17 19  1  0  0  0
 17 20  1  0  0  0
 20 21  1  0  0  0
 15 22  1  0  0  0
 22 23  2  0  0  0
 23 24  1  0  0  0
 24 25  2  0  0  0
 25 26  1  0  0  0
 25 27  1  0  0  0
 27 28  2  0  0  0
 10 11  1  0  0  0
 11 12  1  0  0  0
 41 36  1  0  0  0
 53 48  1  0  0  0
  6  1  1  0  0  0
 63 55  1  0  0  0
 12  7  1  0  0  0
 62 58  1  0  0  0
 21 14  1  0  0  0
 28 22  1  0  0  0
 45 46  1  0  0  0
 29 32  1  0  0  0
 59 64  1  0  0  0
M  CHG 1  42  -1
M  CHG 1  43   1
M  END
> <minimizedAffinity>
-8.93079

> <CNNscore>
0.0215481911

> <CNNaffinity>
6.8152570724

> <CNN_VS>
0.1468564570

> <CNNaffinity_variance>
0.4341905117

$$$$
[H]c1nc2c(c([H])c1Oc1c([H])c(N3C([H])([H])C([H])([H])N(C([H])([H])C4=C(c5c([H])c([H])c(Cl)c([H])c5[H])C([H])([H])C(C([H])([H])[H])(C([H])([H])[H])C([H])([H])C4([H])[H])C([H])([H])C3([H])[H])c([H])c([H])c1C(=O)N([H])S(=O)(=O)c1c([H])c([H])c(N([H])C([H])([H])C3([H])C([H])([H])C([H])([H])OC([H])([H])C3([H])[H])c([N+](=O)[O-])c1[H])c([H])c([H])n2[H]


 64 71  0  0  0  0  0  0  0  0999 V2000
   37.7067   14.5654  -12.5697 C   0  0  0  0  0  0  0  0  0  0  0  0
   36.5250   13.8537  -12.2096 C   0  0  0  0  0  0  0  0  0  0  0  0
   35.8094   14.1244  -11.0771 C   0  0  0  0  0  0  0  0  0  0  0  0
   36.1893   15.1100  -10.2060 C   0  0  0  0  0  0  0  0  0  0  0  0
   37.3299   15.8192  -10.5320 C   0  0  0  0  0  0  0  0  0  0  0  0
   38.0656   15.5520  -11.6899 C   0  0  0  0  0  0  0  0  0  0  0  0
   35.5177   15.4245   -9.0128 N   0  0  0  0  0  0  0  0  0  0  0  0
   35.6100   14.5444   -7.8639 C   0  0  0  0  0  0  0  0  0  0  0  0
   36.1767   15.3791   -6.7604 C   0  0  0  0  0  0  0  0  0  0  0  0
   35.3668   16.5461   -6.5064 N   0  0  0  0  0  0  0  0  0  0  0  0
   35.0982   17.3693   -7.6111 C   0  0  0  0  0  0  0  0  0  0  0  0
   34.7243   16.6123   -8.8718 C   0  0  0  0  0  0  0  0  0  0  0  0
   35.8583   17.1388   -5.3106 C   0  0  0  0  0  0  0  0  0  0  0  0
   37.2860   17.1128   -5.0252 C   0  0  0  0  0  0  0  0  0  0  0  0
   38.0673   18.1538   -5.3164 C   0  0  0  0  0  0  0  0  0  0  0  0
   39.5377   18.1060   -5.0096 C   0  0  0  0  0  0  0  0  0  0  0  0
   39.8862   17.3798   -3.7646 C   0  0  0  0  0  0  0  0  0  0  0  0
   40.1431   18.4253   -2.6655 C   0  0  0  0  0  0  0  0  0  0  0  0
   41.1799   16.5838   -3.9498 C   0  0  0  0  0  0  0  0  0  0  0  0
   38.8501   16.4480   -3.2333 C   0  0  0  0  0  0  0  0  0  0  0  0
   37.9308   15.9446   -4.3430 C   0  0  0  0  0  0  0  0  0  0  0  0
   37.5974   19.3405   -5.9645 C   0  0  0  0  0  0  0  0  0  0  0  0
   37.9701   19.6239   -7.2919 C   0  0  0  0  0  0  0  0  0  0  0  0
   37.4796   20.7282   -7.9420 C   0  0  0  0  0  0  0  0  0  0  0  0
   36.6092   21.5963   -7.3255 C   0  0  0  0  0  0  0  0  0  0  0  0
   35.9573   23.0150   -8.1239 Cl  0  0  0  0  0  0  0  0  0  0  0  0
   36.2364   21.3381   -6.0404 C   0  0  0  0  0  0  0  0  0  0  0  0
   36.7370   20.2212   -5.3931 C   0  0  0  0  0  0  0  0  0  0  0  0
   39.8630   13.9915  -13.7881 N   0  0  0  0  0  0  0  0  0  0  0  0
   38.4897   14.0580  -13.6649 C   0  0  0  0  0  0  0  0  0  0  0  0
   37.8181   13.6145  -14.6731 O   0  0  0  0  0  0  0  0  0  0  0  0
   40.5111   14.2347  -13.0197 H   0  0  0  0  0  0  0  0  0  0  0  0
   40.6560   13.3984  -15.2187 S   0  0  0  0  0  0  0  0  0  0  0  0
   40.4771   14.4346  -16.3204 O   0  0  0  0  0  0  0  0  0  0  0  0
   40.1193   12.1142  -15.7040 O   0  0  0  0  0  0  0  0  0  0  0  0
   44.6629   12.8061  -15.5086 C   0  0  0  0  0  0  0  0  0  0  0  0
   43.2837   12.8985  -15.8190 C   0  0  0  0  0  0  0  0  0  0  0  0
   42.3692   13.2388  -14.8616 C   0  0  0  0  0  0  0  0  0  0  0  0
   42.8135   13.4906  -13.5907 C   0  0  0  0  0  0  0  0  0  0  0  0
   44.1557   13.4023  -13.2904 C   0  0  0  0  0  0  0  0  0  0  0  0
   45.1215   13.0585  -14.2398 C   0  0  0  0  0  0  0  0  0  0  0  0
   46.8626   12.8732  -16.5763 O   0  0  0  0  0  0  0  0  0  0  0  0
   45.5320   12.4406  -16.5547 N   0  0  0  0  0  0  0  0  0  0  0  0
   45.1830   11.7671  -17.5242 O   0  0  0  0  0  0  0  0  0  0  0  0
   46.4758   13.0728  -13.9047 N   0  0  0  0  0  0  0  0  0  0  0  0
   47.1991   13.1459  -14.6854 H   0  0  0  0  0  0  0  0  0  0  0  0
   47.0195   13.0243  -12.5922 C   0  0  0  0  0  0  0  0  0  0  0  0
   47.4295   11.7243  -12.0273 C   0  0  0  0  0  0  0  0  0  0  0  0
   46.3985   10.6897  -11.7434 C   0  0  0  0  0  0  0  0  0  0  0  0
   47.0985    9.6394  -10.8520 C   0  0  0  0  0  0  0  0  0  0  0  0
   48.4613    9.6280  -11.0681 O   0  0  0  0  0  0  0  0  0  0  0  0
   49.0998   10.7536  -10.5289 C   0  0  0  0  0  0  0  0  0  0  0  0
   48.1929   11.9430  -10.7095 C   0  0  0  0  0  0  0  0  0  0  0  0
   39.1784   16.3504  -11.9019 O   0  0  0  0  0  0  0  0  0  0  0  0
   40.2713   16.2180  -11.0027 C   0  0  0  0  0  0  0  0  0  0  0  0
   40.1049   16.0236   -9.6516 C   0  0  0  0  0  0  0  0  0  0  0  0
   41.1529   15.9012   -8.8090 N   0  0  0  0  0  0  0  0  0  0  0  0
   42.4426   15.9639   -9.2540 C   0  0  0  0  0  0  0  0  0  0  0  0
   43.6549   15.8756   -8.6387 N   0  0  0  0  0  0  0  0  0  0  0  0
   44.5949   16.0151   -9.6071 C   0  0  0  0  0  0  0  0  0  0  0  0
   43.9986   16.1893  -10.8216 C   0  0  0  0  0  0  0  0  0  0  0  0
   42.6275   16.1580  -10.6047 C   0  0  0  0  0  0  0  0  0  0  0  0
   41.5607   16.2858  -11.4855 C   0  0  0  0  0  0  0  0  0  0  0  0
   43.8135   15.7310   -7.6234 H   0  0  0  0  0  0  0  0  0  0  0  0
 42 43  1  0  0  0
 43 44  2  0  0  0
 43 36  1  0  0  0
 36 37  2  0  0  0
 37 38  1  0  0  0
 38 39  2  0  0  0
 39 40  1  0  0  0
 40 41  2  0  0  0
 41 45  1  0  0  0
 45 47  1  0  0  0
 47 48  1  0  0  0
 48 49  1  0  0  0
 49 50  1  0  0  0
 50 51  1  0  0  0
 51 52  1  0  0  0
 52 53  1  0  0  0
 38 33  1  0  0  0
 33 34  2  0  0  0
 33 35  2  0  0  0
 33 29  1  0  0  0
 29 30  1  0  0  0
 30 31  2  0  0  0
 30  1  1  0  0  0
  1  2  2  0  0  0
  2  3  1  0  0  0
  3  4  2  0  0  0
  4  5  1  0  0  0
  5  6  2  0  0  0
  6 54  1  0  0  0
 54 55  1  0  0  0
 55 56  2  0  0  0
 56 57  1  0  0  0
 57 58  2  0  0  0
 58 59  1  0  0  0
 59 60  1  0  0  0
 60 61  2  0  0  0
 61 62  1  0  0  0
 62 63  2  0  0  0
  4  7  1  0  0  0
  7  8  1  0  0  0
  8  9  1  0  0  0
  9 10  1  0  0  0
 10 13  1  0  0  0
 13 14  1  0  0  0
 14 15  2  0  0  0
 15 16  1  0  0  0
 16 17  1  0  0  0
 17 18  1  0  0  0
 17 19  1  0  0  0
 17 20  1  0  0  0
 20 21  1  0  0  0
 15 22  1  0  0  0
 22 23  2  0  0  0
 23 24  1  0  0  0
 24 25  2  0  0  0
 25 26  1  0  0  0
 25 27  1  0  0  0
 27 28  2  0  0  0
 10 11  1  0  0  0
 11 12  1  0  0  0
 41 36  1  0  0  0
 53 48  1  0  0  0
  6  1  1  0  0  0
 63 55  1  0  0  0
 12  7  1  0  0  0
 62 58  1  0  0  0
 21 14  1  0  0  0
 28 22  1  0  0  0
 45 46  1  0  0  0
 29 32  1  0  0  0
 59 64  1  0  0  0
M  CHG 1  42  -1
M  CHG 1  43   1
M  END
> <minimizedAffinity>
-9.47208

> <CNNscore>
0.0192274544

> <CNNaffinity>
7.0624923706

> <CNN_VS>
0.1357937455

> <CNNaffinity_variance>
1.0451633930

$$$$
[H]c1nc2c(c([H])c1Oc1c([H])c(N3C([H])([H])C([H])([H])N(C([H])([H])C4=C(c5c([H])c([H])c(Cl)c([H])c5[H])C([H])([H])C(C([H])([H])[H])(C([H])([H])[H])C([H])([H])C4([H])[H])C([H])([H])C3([H])[H])c([H])c([H])c1C(=O)N([H])S(=O)(=O)c1c([H])c([H])c(N([H])C([H])([H])C3([H])C([H])([H])C([H])([H])OC([H])([H])C3([H])[H])c([N+](=O)[O-])c1[H])c([H])c([H])n2[H]


 64 71  0  0  0  0  0  0  0  0999 V2000
   37.9953   14.6226  -12.5581 C   0  0  0  0  0  0  0  0  0  0  0  0
   36.8228   13.9428  -12.1154 C   0  0  0  0  0  0  0  0  0  0  0  0
   36.1747   14.2565  -10.9538 C   0  0  0  0  0  0  0  0  0  0  0  0
   36.6184   15.2574  -10.1316 C   0  0  0  0  0  0  0  0  0  0  0  0
   37.7517   15.9363  -10.5380 C   0  0  0  0  0  0  0  0  0  0  0  0
   38.4185   15.6251  -11.7262 C   0  0  0  0  0  0  0  0  0  0  0  0
   36.0184   15.6156   -8.9129 N   0  0  0  0  0  0  0  0  0  0  0  0
   36.8261   16.1043   -7.8121 C   0  0  0  0  0  0  0  0  0  0  0  0
   36.2914   17.4633   -7.4912 C   0  0  0  0  0  0  0  0  0  0  0  0
   34.8840   17.4204   -7.1755 N   0  0  0  0  0  0  0  0  0  0  0  0
   34.0508   16.8142   -8.1286 C   0  0  0  0  0  0  0  0  0  0  0  0
   34.6019   15.5215   -8.7009 C   0  0  0  0  0  0  0  0  0  0  0  0
   34.5333   18.7036   -6.6725 C   0  0  0  0  0  0  0  0  0  0  0  0
   33.1300   19.0724   -6.5487 C   0  0  0  0  0  0  0  0  0  0  0  0
   32.7406   20.3452   -6.6332 C   0  0  0  0  0  0  0  0  0  0  0  0
   31.2863   20.7020   -6.5060 C   0  0  0  0  0  0  0  0  0  0  0  0
   30.3530   19.7125   -7.0963 C   0  0  0  0  0  0  0  0  0  0  0  0
   29.9066   20.2461   -8.4685 C   0  0  0  0  0  0  0  0  0  0  0  0
   29.0991   19.5717   -6.2305 C   0  0  0  0  0  0  0  0  0  0  0  0
   30.9021   18.3454   -7.3282 C   0  0  0  0  0  0  0  0  0  0  0  0
   32.0574   18.0398   -6.3784 C   0  0  0  0  0  0  0  0  0  0  0  0
   33.6460   21.4416   -6.7985 C   0  0  0  0  0  0  0  0  0  0  0  0
   34.3624   21.9476   -5.6976 C   0  0  0  0  0  0  0  0  0  0  0  0
   35.2753   22.9598   -5.8548 C   0  0  0  0  0  0  0  0  0  0  0  0
   35.5249   23.5161   -7.0876 C   0  0  0  0  0  0  0  0  0  0  0  0
   36.6866   24.8072   -7.3298 Cl  0  0  0  0  0  0  0  0  0  0  0  0
   34.8412   23.0388   -8.1655 C   0  0  0  0  0  0  0  0  0  0  0  0
   33.9220   22.0173   -7.9963 C   0  0  0  0  0  0  0  0  0  0  0  0
   40.0715   14.0005  -13.8869 N   0  0  0  0  0  0  0  0  0  0  0  0
   38.7086   14.0720  -13.6797 C   0  0  0  0  0  0  0  0  0  0  0  0
   37.9756   13.5889  -14.6250 O   0  0  0  0  0  0  0  0  0  0  0  0
   40.7663   14.2740  -13.1714 H   0  0  0  0  0  0  0  0  0  0  0  0
   40.7737   13.3510  -15.3403 S   0  0  0  0  0  0  0  0  0  0  0  0
   40.5109   14.3362  -16.4715 O   0  0  0  0  0  0  0  0  0  0  0  0
   40.2195   12.0426  -15.7322 O   0  0  0  0  0  0  0  0  0  0  0  0
   44.4922   13.3522  -13.7083 C   0  0  0  0  0  0  0  0  0  0  0  0
   43.0940   13.4947  -13.8875 C   0  0  0  0  0  0  0  0  0  0  0  0
   42.5084   13.2204  -15.0920 C   0  0  0  0  0  0  0  0  0  0  0  0
   43.3024   12.8027  -16.1268 C   0  0  0  0  0  0  0  0  0  0  0  0
   44.6621   12.6626  -15.9508 C   0  0  0  0  0  0  0  0  0  0  0  0
   45.2986   12.9318  -14.7363 C   0  0  0  0  0  0  0  0  0  0  0  0
   44.6266   12.9447  -11.3002 O   0  0  0  0  0  0  0  0  0  0  0  0
   45.0103   13.6653  -12.4367 N   0  0  0  0  0  0  0  0  0  0  0  0
   45.7853   14.5989  -12.2297 O   0  0  0  0  0  0  0  0  0  0  0  0
   46.6637   12.6860  -14.5862 N   0  0  0  0  0  0  0  0  0  0  0  0
   46.9836   11.9931  -13.8409 H   0  0  0  0  0  0  0  0  0  0  0  0
   47.7123   13.2559  -15.3583 C   0  0  0  0  0  0  0  0  0  0  0  0
   48.5545   14.3124  -14.7653 C   0  0  0  0  0  0  0  0  0  0  0  0
   49.0649   14.1511  -13.3770 C   0  0  0  0  0  0  0  0  0  0  0  0
   49.5794   15.5468  -12.9588 C   0  0  0  0  0  0  0  0  0  0  0  0
   49.9546   16.2919  -14.0579 O   0  0  0  0  0  0  0  0  0  0  0  0
   48.8553   16.7384  -14.8046 C   0  0  0  0  0  0  0  0  0  0  0  0
   47.8067   15.6568  -14.7945 C   0  0  0  0  0  0  0  0  0  0  0  0
   39.5317   16.3967  -12.0196 O   0  0  0  0  0  0  0  0  0  0  0  0
   40.6811   16.2431  -11.1976 C   0  0  0  0  0  0  0  0  0  0  0  0
   41.9582   16.1914  -11.7049 C   0  0  0  0  0  0  0  0  0  0  0  0
   43.0409   16.0433  -10.9118 N   0  0  0  0  0  0  0  0  0  0  0  0
   42.9272   15.9364   -9.5549 C   0  0  0  0  0  0  0  0  0  0  0  0
   43.8286   15.7819   -8.5451 N   0  0  0  0  0  0  0  0  0  0  0  0
   43.1171   15.7357   -7.3908 C   0  0  0  0  0  0  0  0  0  0  0  0
   41.7841   15.8584   -7.6533 C   0  0  0  0  0  0  0  0  0  0  0  0
   41.6553   15.9866   -9.0299 C   0  0  0  0  0  0  0  0  0  0  0  0
   40.5306   16.1384   -9.8313 C   0  0  0  0  0  0  0  0  0  0  0  0
   44.8584   15.7129   -8.6533 H   0  0  0  0  0  0  0  0  0  0  0  0
 42 43  1  0  0  0
 43 44  2  0  0  0
 43 36  1  0  0  0
 36 37  2  0  0  0
 37 38  1  0  0  0
 38 39  2  0  0  0
 39 40  1  0  0  0
 40 41  2  0  0  0
 41 45  1  0  0  0
 45 47  1  0  0  0
 47 48  1  0  0  0
 48 49  1  0  0  0
 49 50  1  0  0  0
 50 51  1  0  0  0
 51 52  1  0  0  0
 52 53  1  0  0  0
 38 33  1  0  0  0
 33 34  2  0  0  0
 33 35  2  0  0  0
 33 29  1  0  0  0
 29 30  1  0  0  0
 30 31  2  0  0  0
 30  1  1  0  0  0
  1  2  2  0  0  0
  2  3  1  0  0  0
  3  4  2  0  0  0
  4  5  1  0  0  0
  5  6  2  0  0  0
  6 54  1  0  0  0
 54 55  1  0  0  0
 55 56  2  0  0  0
 56 57  1  0  0  0
 57 58  2  0  0  0
 58 59  1  0  0  0
 59 60  1  0  0  0
 60 61  2  0  0  0
 61 62  1  0  0  0
 62 63  2  0  0  0
  4  7  1  0  0  0
  7  8  1  0  0  0
  8  9  1  0  0  0
  9 10  1  0  0  0
 10 13  1  0  0  0
 13 14  1  0  0  0
 14 15  2  0  0  0
 15 16  1  0  0  0
 16 17  1  0  0  0
 17 18  1  0  0  0
 17 19  1  0  0  0
 17 20  1  0  0  0
 20 21  1  0  0  0
 15 22  1  0  0  0
 22 23  2  0  0  0
 23 24  1  0  0  0
 24 25  2  0  0  0
 25 26  1  0  0  0
 25 27  1  0  0  0
 27 28  2  0  0  0
 10 11  1  0  0  0
 11 12  1  0  0  0
 41 36  1  0  0  0
 53 48  1  0  0  0
  6  1  1  0  0  0
 63 55  1  0  0  0
 12  7  1  0  0  0
 62 58  1  0  0  0
 21 14  1  0  0  0
 28 22  1  0  0  0
 45 46  1  0  0  0
 29 32  1  0  0  0
 59 64  1  0  0  0
M  CHG 1  42  -1
M  CHG 1  43   1
M  END
> <minimizedAffinity>
-8.93448

> <CNNscore>
0.0179088153

> <CNNaffinity>
6.7198829651

> <CNN_VS>
0.1203451455

> <CNNaffinity_variance>
0.6422724128

$$$$
[H]c1nc2c(c([H])c1Oc1c([H])c(N3C([H])([H])C([H])([H])N(C([H])([H])C4=C(c5c([H])c([H])c(Cl)c([H])c5[H])C([H])([H])C(C([H])([H])[H])(C([H])([H])[H])C([H])([H])C4([H])[H])C([H])([H])C3([H])[H])c([H])c([H])c1C(=O)N([H])S(=O)(=O)c1c([H])c([H])c(N([H])C([H])([H])C3([H])C([H])([H])C([H])([H])OC([H])([H])C3([H])[H])c([N+](=O)[O-])c1[H])c([H])c([H])n2[H]


 64 71  0  0  0  0  0  0  0  0999 V2000
   37.7973   14.9372  -12.1528 C   0  0  0  0  0  0  0  0  0  0  0  0
   36.5672   14.3173  -11.7851 C   0  0  0  0  0  0  0  0  0  0  0  0
   35.8955   14.6213  -10.6344 C   0  0  0  0  0  0  0  0  0  0  0  0
   36.3699   15.5534   -9.7508 C   0  0  0  0  0  0  0  0  0  0  0  0
   37.5595   16.1736  -10.0837 C   0  0  0  0  0  0  0  0  0  0  0  0
   38.2511   15.8719  -11.2602 C   0  0  0  0  0  0  0  0  0  0  0  0
   35.7468   15.8962   -8.5393 N   0  0  0  0  0  0  0  0  0  0  0  0
   36.5326   16.3763   -7.4191 C   0  0  0  0  0  0  0  0  0  0  0  0
   35.9866   17.7296   -7.0934 C   0  0  0  0  0  0  0  0  0  0  0  0
   34.5740   17.6776   -6.8033 N   0  0  0  0  0  0  0  0  0  0  0  0
   33.7605   17.0783   -7.7775 C   0  0  0  0  0  0  0  0  0  0  0  0
   34.3272   15.7941   -8.3536 C   0  0  0  0  0  0  0  0  0  0  0  0
   34.2090   18.9540   -6.2930 C   0  0  0  0  0  0  0  0  0  0  0  0
   32.8178   19.3814   -6.3434 C   0  0  0  0  0  0  0  0  0  0  0  0
   32.4934   20.6448   -6.6214 C   0  0  0  0  0  0  0  0  0  0  0  0
   31.0506   21.0625   -6.6715 C   0  0  0  0  0  0  0  0  0  0  0  0
   30.1284   20.0363   -7.2149 C   0  0  0  0  0  0  0  0  0  0  0  0
   29.8245   20.4033   -8.6778 C   0  0  0  0  0  0  0  0  0  0  0  0
   28.8004   20.0493   -6.4550 C   0  0  0  0  0  0  0  0  0  0  0  0
   30.6347   18.6336   -7.2233 C   0  0  0  0  0  0  0  0  0  0  0  0
   31.6902   18.4150   -6.1425 C   0  0  0  0  0  0  0  0  0  0  0  0
   33.4568   21.6806   -6.8404 C   0  0  0  0  0  0  0  0  0  0  0  0
   33.9343   22.4505   -5.7631 C   0  0  0  0  0  0  0  0  0  0  0  0
   34.9000   23.4066   -5.9525 C   0  0  0  0  0  0  0  0  0  0  0  0
   35.4364   23.6485   -7.1955 C   0  0  0  0  0  0  0  0  0  0  0  0
   36.6746   24.8579   -7.4771 Cl  0  0  0  0  0  0  0  0  0  0  0  0
   34.9870   22.9127   -8.2508 C   0  0  0  0  0  0  0  0  0  0  0  0
   34.0122   21.9502   -8.0493 C   0  0  0  0  0  0  0  0  0  0  0  0
   39.8790   14.2262  -13.4273 N   0  0  0  0  0  0  0  0  0  0  0  0
   38.5172   14.3910  -13.2723 C   0  0  0  0  0  0  0  0  0  0  0  0
   37.7935   14.0135  -14.2712 O   0  0  0  0  0  0  0  0  0  0  0  0
   40.5595   14.4095  -12.6704 H   0  0  0  0  0  0  0  0  0  0  0  0
   40.5955   13.5991  -14.8835 S   0  0  0  0  0  0  0  0  0  0  0  0
   40.4261   14.6430  -15.9794 O   0  0  0  0  0  0  0  0  0  0  0  0
   39.9852   12.3407  -15.3493 O   0  0  0  0  0  0  0  0  0  0  0  0
   44.5645   12.8562  -15.3142 C   0  0  0  0  0  0  0  0  0  0  0  0
   43.1813   13.0116  -15.5787 C   0  0  0  0  0  0  0  0  0  0  0  0
   42.3108   13.3622  -14.5846 C   0  0  0  0  0  0  0  0  0  0  0  0
   42.8034   13.5620  -13.3224 C   0  0  0  0  0  0  0  0  0  0  0  0
   44.1494   13.4125  -13.0667 C   0  0  0  0  0  0  0  0  0  0  0  0
   45.0713   13.0562  -14.0545 C   0  0  0  0  0  0  0  0  0  0  0  0
   44.9303   11.6030  -17.3827 O   0  0  0  0  0  0  0  0  0  0  0  0
   45.3858   12.4847  -16.3962 N   0  0  0  0  0  0  0  0  0  0  0  0
   46.5495   12.8640  -16.5276 O   0  0  0  0  0  0  0  0  0  0  0  0
   46.4346   13.0078  -13.7619 N   0  0  0  0  0  0  0  0  0  0  0  0
   47.1353   13.0334  -14.5657 H   0  0  0  0  0  0  0  0  0  0  0  0
   47.0167   12.9514  -12.4663 C   0  0  0  0  0  0  0  0  0  0  0  0
   47.3614   11.6397  -11.8852 C   0  0  0  0  0  0  0  0  0  0  0  0
   46.2784   10.7551  -11.3767 C   0  0  0  0  0  0  0  0  0  0  0  0
   46.9886    9.6708  -10.5354 C   0  0  0  0  0  0  0  0  0  0  0  0
   48.2883    9.4810  -10.9579 O   0  0  0  0  0  0  0  0  0  0  0  0
   49.1296   10.5440  -10.6006 C   0  0  0  0  0  0  0  0  0  0  0  0
   48.3471   11.8260  -10.7187 C   0  0  0  0  0  0  0  0  0  0  0  0
   39.4221   16.5808  -11.4767 O   0  0  0  0  0  0  0  0  0  0  0  0
   40.5197   16.3302  -10.6090 C   0  0  0  0  0  0  0  0  0  0  0  0
   40.3664   16.0944   -9.2629 C   0  0  0  0  0  0  0  0  0  0  0  0
   41.4188   15.8595   -8.4502 N   0  0  0  0  0  0  0  0  0  0  0  0
   42.7003   15.8428   -8.9223 C   0  0  0  0  0  0  0  0  0  0  0  0
   43.9145   15.6387   -8.3392 N   0  0  0  0  0  0  0  0  0  0  0  0
   44.8426   15.7461   -9.3230 C   0  0  0  0  0  0  0  0  0  0  0  0
   44.2369   16.0136  -10.5156 C   0  0  0  0  0  0  0  0  0  0  0  0
   42.8720   16.0769  -10.2683 C   0  0  0  0  0  0  0  0  0  0  0  0
   41.8005   16.3202  -11.1186 C   0  0  0  0  0  0  0  0  0  0  0  0
   44.0821   15.4416   -7.3342 H   0  0  0  0  0  0  0  0  0  0  0  0
 42 43  1  0  0  0
 43 44  2  0  0  0
 43 36  1  0  0  0
 36 37  2  0  0  0
 37 38  1  0  0  0
 38 39  2  0  0  0
 39 40  1  0  0  0
 40 41  2  0  0  0
 41 45  1  0  0  0
 45 47  1  0  0  0
 47 48  1  0  0  0
 48 49  1  0  0  0
 49 50  1  0  0  0
 50 51  1  0  0  0
 51 52  1  0  0  0
 52 53  1  0  0  0
 38 33  1  0  0  0
 33 34  2  0  0  0
 33 35  2  0  0  0
 33 29  1  0  0  0
 29 30  1  0  0  0
 30 31  2  0  0  0
 30  1  1  0  0  0
  1  2  2  0  0  0
  2  3  1  0  0  0
  3  4  2  0  0  0
  4  5  1  0  0  0
  5  6  2  0  0  0
  6 54  1  0  0  0
 54 55  1  0  0  0
 55 56  2  0  0  0
 56 57  1  0  0  0
 57 58  2  0  0  0
 58 59  1  0  0  0
 59 60  1  0  0  0
 60 61  2  0  0  0
 61 62  1  0  0  0
 62 63  2  0  0  0
  4  7  1  0  0  0
  7  8  1  0  0  0
  8  9  1  0  0  0
  9 10  1  0  0  0
 10 13  1  0  0  0
 13 14  1  0  0  0
 14 15  2  0  0  0
 15 16  1  0  0  0
 16 17  1  0  0  0
 17 18  1  0  0  0
 17 19  1  0  0  0
 17 20  1  0  0  0
 20 21  1  0  0  0
 15 22  1  0  0  0
 22 23  2  0  0  0
 23 24  1  0  0  0
 24 25  2  0  0  0
 25 26  1  0  0  0
 25 27  1  0  0  0
 27 28  2  0  0  0
 10 11  1  0  0  0
 11 12  1  0  0  0
 41 36  1  0  0  0
 53 48  1  0  0  0
  6  1  1  0  0  0
 63 55  1  0  0  0
 12  7  1  0  0  0
 62 58  1  0  0  0
 21 14  1  0  0  0
 28 22  1  0  0  0
 45 46  1  0  0  0
 29 32  1  0  0  0
 59 64  1  0  0  0
M  CHG 1  42  -1
M  CHG 1  43   1
M  END
> <minimizedAffinity>
-9.65050

> <CNNscore>
0.0176146086

> <CNNaffinity>
6.6311836243

> <CNN_VS>
0.1168057024

> <CNNaffinity_variance>
0.7358315587

$$$$
[H]c1c([H])c([H])c2c(c1[H])c1c3c(c4c5c([H])c([H])c([H])c([H])c5n5c4c1n2[C@@]1([H])O[C@]5(C([H])([H])[H])[C@]([H])(OC([H])([H])[H])[C@@]([H])(N([H])C([H])([H])[H])C1([H])[H])C([H])([H])N([H])C3=O


 37 44  0  0  0  0  0  0  0  0999 V2000
   34.1182   14.7955  -12.2740 C   0  0  0  0  0  0  0  0  0  0  0  0
   34.2746   14.0510  -13.5519 C   0  0  0  0  0  0  0  0  0  0  0  0
   35.1784   12.8742  -13.1976 C   0  0  0  0  0  0  0  0  0  0  0  0
   35.8778   13.0253  -12.0654 O   0  0  0  0  0  0  0  0  0  0  0  0
   36.4297   14.2691  -11.7533 C   0  0  0  0  0  0  0  0  0  0  0  0
   36.6289   14.1440  -10.2363 C   0  0  0  0  0  0  0  0  0  0  0  0
   35.5051   15.4100  -12.0153 C   0  0  0  0  0  0  0  0  0  0  0  0
   37.6879   14.3481  -12.4804 N   0  0  0  0  0  0  0  0  0  0  0  0
   38.7923   15.0339  -12.1289 C   0  0  0  0  0  0  0  0  0  0  0  0
   39.0769   15.8428  -11.0767 C   0  0  0  0  0  0  0  0  0  0  0  0
   40.3118   16.4767  -10.8993 C   0  0  0  0  0  0  0  0  0  0  0  0
   41.3059   16.2928  -11.8170 C   0  0  0  0  0  0  0  0  0  0  0  0
   41.0478   15.4750  -12.9014 C   0  0  0  0  0  0  0  0  0  0  0  0
   39.8147   14.8607  -13.0494 C   0  0  0  0  0  0  0  0  0  0  0  0
   39.3252   14.0368  -14.0138 C   0  0  0  0  0  0  0  0  0  0  0  0
   39.8762   13.5202  -15.1827 C   0  0  0  0  0  0  0  0  0  0  0  0
   41.2434   13.7317  -15.7069 C   0  0  0  0  0  0  0  0  0  0  0  0
   41.2570   13.0013  -16.9446 N   0  0  0  0  0  0  0  0  0  0  0  0
   39.9803   12.3522  -17.1240 C   0  0  0  0  0  0  0  0  0  0  0  0
   39.7896   11.6457  -18.1263 O   0  0  0  0  0  0  0  0  0  0  0  0
   39.1450   12.6958  -16.0117 C   0  0  0  0  0  0  0  0  0  0  0  0
   37.8528   12.3907  -15.6596 C   0  0  0  0  0  0  0  0  0  0  0  0
   36.8705   11.6388  -16.2228 C   0  0  0  0  0  0  0  0  0  0  0  0
   36.7807   10.8793  -17.3613 C   0  0  0  0  0  0  0  0  0  0  0  0
   35.5808   10.2277  -17.6247 C   0  0  0  0  0  0  0  0  0  0  0  0
   34.5002   10.3307  -16.7764 C   0  0  0  0  0  0  0  0  0  0  0  0
   34.5999   11.0876  -15.6480 C   0  0  0  0  0  0  0  0  0  0  0  0
   35.7768   11.7437  -15.3626 C   0  0  0  0  0  0  0  0  0  0  0  0
   36.0581   12.5160  -14.3197 N   0  0  0  0  0  0  0  0  0  0  0  0
   37.3217   12.9179  -14.4858 C   0  0  0  0  0  0  0  0  0  0  0  0
   38.0543   13.7415  -13.6582 C   0  0  0  0  0  0  0  0  0  0  0  0
   42.0836   12.9728  -17.5850 H   0  0  0  0  0  0  0  0  0  0  0  0
   31.8957   15.1104  -11.6163 C   0  0  0  0  0  0  0  0  0  0  0  0
   33.0669   15.7376  -12.1903 N   0  0  0  0  0  0  0  0  0  0  0  0
   33.3560   16.4910  -11.5285 H   0  0  0  0  0  0  0  0  0  0  0  0
   35.3257   16.3113  -11.0106 O   0  0  0  0  0  0  0  0  0  0  0  0
   36.2253   17.3621  -11.0968 C   0  0  0  0  0  0  0  0  0  0  0  0
 33 34  1  0  0  0
 34  1  1  0  0  0
  1  2  1  0  0  0
  2  3  1  0  0  0
  3  4  1  0  0  0
  4  5  1  0  0  0
  5  6  1  0  0  0
  5  7  1  0  0  0
  7 36  1  0  0  0
 36 37  1  0  0  0
  5  8  1  0  0  0
  8  9  1  0  0  0
  9 10  2  0  0  0
 10 11  1  0  0  0
 11 12  2  0  0  0
 12 13  1  0  0  0
 13 14  2  0  0  0
 14 15  1  0  0  0
 15 16  2  0  0  0
 16 17  1  0  0  0
 17 18  1  0  0  0
 18 19  1  0  0  0
 19 20  2  0  0  0
 19 21  1  0  0  0
 21 22  2  0  0  0
 22 23  1  0  0  0
 23 24  2  0  0  0
 24 25  1  0  0  0
 25 26  2  0  0  0
 26 27  1  0  0  0
 27 28  2  0  0  0
 28 29  1  0  0  0
 29 30  1  0  0  0
 30 31  2  0  0  0
  7  1  1  0  0  0
 31  8  1  0  0  0
 29  3  1  0  0  0
 14  9  1  0  0  0
 31 15  1  0  0  0
 21 16  1  0  0  0
 30 22  1  0  0  0
 28 23  1  0  0  0
 34 35  1  0  0  0
 18 32  1  0  0  0
M  END
> <minimizedAffinity>
-10.94770

> <CNNscore>
0.6020333171

> <CNNaffinity>
7.2201790810

> <CNN_VS>
4.3467884064

> <CNNaffinity_variance>
0.1542605758

$$$$
[H]c1c([H])c([H])c2c(c1[H])c1c3c(c4c5c([H])c([H])c([H])c([H])c5n5c4c1n2[C@@]1([H])O[C@]5(C([H])([H])[H])[C@]([H])(OC([H])([H])[H])[C@@]([H])(N([H])C([H])([H])[H])C1([H])[H])C([H])([H])N([H])C3=O


 37 44  0  0  0  0  0  0  0  0999 V2000
   40.3996   13.4805  -15.8963 C   0  0  0  0  0  0  0  0  0  0  0  0
   39.9884   14.4664  -14.8616 C   0  0  0  0  0  0  0  0  0  0  0  0
   39.5041   13.6122  -13.6942 C   0  0  0  0  0  0  0  0  0  0  0  0
   39.1959   12.3485  -14.0139 O   0  0  0  0  0  0  0  0  0  0  0  0
   38.5383   12.0792  -15.2157 C   0  0  0  0  0  0  0  0  0  0  0  0
   38.8728   10.5952  -15.4220 C   0  0  0  0  0  0  0  0  0  0  0  0
   39.0791   12.8501  -16.3725 C   0  0  0  0  0  0  0  0  0  0  0  0
   37.1231   12.3060  -14.9629 N   0  0  0  0  0  0  0  0  0  0  0  0
   36.0796   11.7048  -15.5653 C   0  0  0  0  0  0  0  0  0  0  0  0
   35.9969   10.7780  -16.5535 C   0  0  0  0  0  0  0  0  0  0  0  0
   34.7865   10.2803  -17.0490 C   0  0  0  0  0  0  0  0  0  0  0  0
   33.6061   10.7315  -16.5320 C   0  0  0  0  0  0  0  0  0  0  0  0
   33.6554   11.6767  -15.5244 C   0  0  0  0  0  0  0  0  0  0  0  0
   34.8699   12.1502  -15.0545 C   0  0  0  0  0  0  0  0  0  0  0  0
   35.1735   13.0678  -14.0983 C   0  0  0  0  0  0  0  0  0  0  0  0
   34.3874   13.8512  -13.2585 C   0  0  0  0  0  0  0  0  0  0  0  0
   32.9110   13.8758  -13.1668 C   0  0  0  0  0  0  0  0  0  0  0  0
   32.6420   14.8788  -12.1733 N   0  0  0  0  0  0  0  0  0  0  0  0
   33.8935   15.3908  -11.6681 C   0  0  0  0  0  0  0  0  0  0  0  0
   33.8851   16.2557  -10.7783 O   0  0  0  0  0  0  0  0  0  0  0  0
   34.9586   14.7316  -12.3640 C   0  0  0  0  0  0  0  0  0  0  0  0
   36.3284   14.8215  -12.3159 C   0  0  0  0  0  0  0  0  0  0  0  0
   37.2034   15.5614  -11.5850 C   0  0  0  0  0  0  0  0  0  0  0  0
   37.0682   16.5057  -10.5995 C   0  0  0  0  0  0  0  0  0  0  0  0
   38.2218   17.0666  -10.0627 C   0  0  0  0  0  0  0  0  0  0  0  0
   39.4758   16.6962  -10.4965 C   0  0  0  0  0  0  0  0  0  0  0  0
   39.5992   15.7571  -11.4758 C   0  0  0  0  0  0  0  0  0  0  0  0
   38.4730   15.1852  -12.0250 C   0  0  0  0  0  0  0  0  0  0  0  0
   38.3978   14.2616  -12.9762 N   0  0  0  0  0  0  0  0  0  0  0  0
   37.0956   14.0283  -13.1645 C   0  0  0  0  0  0  0  0  0  0  0  0
   36.5228   13.1485  -14.0577 C   0  0  0  0  0  0  0  0  0  0  0  0
   31.6755   15.1630  -11.8919 H   0  0  0  0  0  0  0  0  0  0  0  0
   42.5485   13.4142  -16.8177 C   0  0  0  0  0  0  0  0  0  0  0  0
   41.2098   13.9457  -16.9579 N   0  0  0  0  0  0  0  0  0  0  0  0
   40.8290   13.5625  -17.8508 H   0  0  0  0  0  0  0  0  0  0  0  0
   39.3912   12.1500  -17.4978 O   0  0  0  0  0  0  0  0  0  0  0  0
   38.3049   12.0389  -18.3512 C   0  0  0  0  0  0  0  0  0  0  0  0
 33 34  1  0  0  0
 34  1  1  0  0  0
  1  2  1  0  0  0
  2  3  1  0  0  0
  3  4  1  0  0  0
  4  5  1  0  0  0
  5  6  1  0  0  0
  5  7  1  0  0  0
  7 36  1  0  0  0
 36 37  1  0  0  0
  5  8  1  0  0  0
  8  9  1  0  0  0
  9 10  2  0  0  0
 10 11  1  0  0  0
 11 12  2  0  0  0
 12 13  1  0  0  0
 13 14  2  0  0  0
 14 15  1  0  0  0
 15 16  2  0  0  0
 16 17  1  0  0  0
 17 18  1  0  0  0
 18 19  1  0  0  0
 19 20  2  0  0  0
 19 21  1  0  0  0
 21 22  2  0  0  0
 22 23  1  0  0  0
 23 24  2  0  0  0
 24 25  1  0  0  0
 25 26  2  0  0  0
 26 27  1  0  0  0
 27 28  2  0  0  0
 28 29  1  0  0  0
 29 30  1  0  0  0
 30 31  2  0  0  0
  7  1  1  0  0  0
 31  8  1  0  0  0
 29  3  1  0  0  0
 14  9  1  0  0  0
 31 15  1  0  0  0
 21 16  1  0  0  0
 30 22  1  0  0  0
 28 23  1  0  0  0
 34 35  1  0  0  0
 18 32  1  0  0  0
M  END
> <minimizedAffinity>
-7.00723

> <CNNscore>
0.2499268651

> <CNNaffinity>
6.8382310867

> <CNN_VS>
1.7090576887

> <CNNaffinity_variance>
0.0606284216

$$$$
[H]c1c([H])c([H])c2c(c1[H])c1c3c(c4c5c([H])c([H])c([H])c([H])c5n5c4c1n2[C@@]1([H])O[C@]5(C([H])([H])[H])[C@]([H])(OC([H])([H])[H])[C@@]([H])(N([H])C([H])([H])[H])C1([H])[H])C([H])([H])N([H])C3=O


 37 44  0  0  0  0  0  0  0  0999 V2000
   36.7241   14.3894  -11.5962 C   0  0  0  0  0  0  0  0  0  0  0  0
   38.1936   14.5683  -11.4528 C   0  0  0  0  0  0  0  0  0  0  0  0
   38.5951   15.4002  -12.6669 C   0  0  0  0  0  0  0  0  0  0  0  0
   37.7069   15.3943  -13.6694 O   0  0  0  0  0  0  0  0  0  0  0  0
   37.0398   14.2122  -13.9963 C   0  0  0  0  0  0  0  0  0  0  0  0
   35.8129   14.7502  -14.7459 C   0  0  0  0  0  0  0  0  0  0  0  0
   36.5677   13.4494  -12.8045 C   0  0  0  0  0  0  0  0  0  0  0  0
   37.9414   13.4634  -14.8591 N   0  0  0  0  0  0  0  0  0  0  0  0
   37.6067   12.5904  -15.8282 C   0  0  0  0  0  0  0  0  0  0  0  0
   36.4123   12.1264  -16.2761 C   0  0  0  0  0  0  0  0  0  0  0  0
   36.2827   11.1960  -17.3132 C   0  0  0  0  0  0  0  0  0  0  0  0
   37.3993   10.7078  -17.9289 C   0  0  0  0  0  0  0  0  0  0  0  0
   38.6320   11.1595  -17.4957 C   0  0  0  0  0  0  0  0  0  0  0  0
   38.7280   12.0819  -16.4661 C   0  0  0  0  0  0  0  0  0  0  0  0
   39.8032   12.6596  -15.8673 C   0  0  0  0  0  0  0  0  0  0  0  0
   41.1748   12.5360  -16.0682 C   0  0  0  0  0  0  0  0  0  0  0  0
   41.8688   11.6994  -17.0717 C   0  0  0  0  0  0  0  0  0  0  0  0
   43.2632   11.9291  -16.8100 N   0  0  0  0  0  0  0  0  0  0  0  0
   43.3910   12.8869  -15.7377 C   0  0  0  0  0  0  0  0  0  0  0  0
   44.5207   13.2445  -15.3694 O   0  0  0  0  0  0  0  0  0  0  0  0
   42.0744   13.2433  -15.2987 C   0  0  0  0  0  0  0  0  0  0  0  0
   41.5882   14.0793  -14.3232 C   0  0  0  0  0  0  0  0  0  0  0  0
   42.1651   14.8980  -13.4044 C   0  0  0  0  0  0  0  0  0  0  0  0
   43.4605   15.2221  -13.0910 C   0  0  0  0  0  0  0  0  0  0  0  0
   43.6810   16.1276  -12.0589 C   0  0  0  0  0  0  0  0  0  0  0  0
   42.6387   16.6943  -11.3586 C   0  0  0  0  0  0  0  0  0  0  0  0
   41.3557   16.3658  -11.6780 C   0  0  0  0  0  0  0  0  0  0  0  0
   41.1086   15.4716  -12.6960 C   0  0  0  0  0  0  0  0  0  0  0  0
   39.9369   15.0380  -13.1459 N   0  0  0  0  0  0  0  0  0  0  0  0
   40.2126   14.1882  -14.1397 C   0  0  0  0  0  0  0  0  0  0  0  0
   39.3149   13.4806  -14.9101 C   0  0  0  0  0  0  0  0  0  0  0  0
   44.0318   11.4543  -17.3373 H   0  0  0  0  0  0  0  0  0  0  0  0
   36.4303   14.7113   -9.2981 C   0  0  0  0  0  0  0  0  0  0  0  0
   36.0034   13.9589  -10.4583 N   0  0  0  0  0  0  0  0  0  0  0  0
   34.9953   14.1852  -10.6058 H   0  0  0  0  0  0  0  0  0  0  0  0
   35.2656   13.0514  -12.7939 O   0  0  0  0  0  0  0  0  0  0  0  0
   35.1352   11.7130  -13.1293 C   0  0  0  0  0  0  0  0  0  0  0  0
 33 34  1  0  0  0
 34  1  1  0  0  0
  1  2  1  0  0  0
  2  3  1  0  0  0
  3  4  1  0  0  0
  4  5  1  0  0  0
  5  6  1  0  0  0
  5  7  1  0  0  0
  7 36  1  0  0  0
 36 37  1  0  0  0
  5  8  1  0  0  0
  8  9  1  0  0  0
  9 10  2  0  0  0
 10 11  1  0  0  0
 11 12  2  0  0  0
 12 13  1  0  0  0
 13 14  2  0  0  0
 14 15  1  0  0  0
 15 16  2  0  0  0
 16 17  1  0  0  0
 17 18  1  0  0  0
 18 19  1  0  0  0
 19 20  2  0  0  0
 19 21  1  0  0  0
 21 22  2  0  0  0
 22 23  1  0  0  0
 23 24  2  0  0  0
 24 25  1  0  0  0
 25 26  2  0  0  0
 26 27  1  0  0  0
 27 28  2  0  0  0
 28 29  1  0  0  0
 29 30  1  0  0  0
 30 31  2  0  0  0
  7  1  1  0  0  0
 31  8  1  0  0  0
 29  3  1  0  0  0
 14  9  1  0  0  0
 31 15  1  0  0  0
 21 16  1  0  0  0
 30 22  1  0  0  0
 28 23  1  0  0  0
 34 35  1  0  0  0
 18 32  1  0  0  0
M  END
> <minimizedAffinity>
-10.79040

> <CNNscore>
0.2034609020

> <CNNaffinity>
6.5413055420

> <CNN_VS>
1.3308999538

> <CNNaffinity_variance>
0.1363087595

$$$$
[H]c1c([H])c([H])c2c(c1[H])c1c3c(c4c5c([H])c([H])c([H])c([H])c5n5c4c1n2[C@@]1([H])O[C@]5(C([H])([H])[H])[C@]([H])(OC([H])([H])[H])[C@@]([H])(N([H])C([H])([H])[H])C1([H])[H])C([H])([H])N([H])C3=O


 37 44  0  0  0  0  0  0  0  0999 V2000
   43.2822   14.0892  -13.0387 C   0  0  0  0  0  0  0  0  0  0  0  0
   42.4603   13.1990  -13.9013 C   0  0  0  0  0  0  0  0  0  0  0  0
   41.5620   14.1520  -14.6835 C   0  0  0  0  0  0  0  0  0  0  0  0
   41.4418   15.3746  -14.1498 O   0  0  0  0  0  0  0  0  0  0  0  0
   41.3396   15.5184  -12.7649 C   0  0  0  0  0  0  0  0  0  0  0  0
   41.7648   16.9814  -12.5765 C   0  0  0  0  0  0  0  0  0  0  0  0
   42.2872   14.6503  -12.0076 C   0  0  0  0  0  0  0  0  0  0  0  0
   39.9397   15.2936  -12.4364 N   0  0  0  0  0  0  0  0  0  0  0  0
   39.2483   15.8183  -11.4068 C   0  0  0  0  0  0  0  0  0  0  0  0
   39.5990   16.6459  -10.3898 C   0  0  0  0  0  0  0  0  0  0  0  0
   38.7092   17.0749   -9.3987 C   0  0  0  0  0  0  0  0  0  0  0  0
   37.4101   16.6557   -9.4269 C   0  0  0  0  0  0  0  0  0  0  0  0
   37.0206   15.8109  -10.4496 C   0  0  0  0  0  0  0  0  0  0  0  0
   37.9251   15.4037  -11.4170 C   0  0  0  0  0  0  0  0  0  0  0  0
   37.7892   14.5857  -12.4945 C   0  0  0  0  0  0  0  0  0  0  0  0
   36.7099   13.8727  -13.0080 C   0  0  0  0  0  0  0  0  0  0  0  0
   35.3249   13.8331  -12.4896 C   0  0  0  0  0  0  0  0  0  0  0  0
   34.6493   12.9244  -13.3746 N   0  0  0  0  0  0  0  0  0  0  0  0
   35.5723   12.4828  -14.3927 C   0  0  0  0  0  0  0  0  0  0  0  0
   35.1801   11.7059  -15.2774 O   0  0  0  0  0  0  0  0  0  0  0  0
   36.8443   13.0902  -14.1355 C   0  0  0  0  0  0  0  0  0  0  0  0
   38.0722   13.0274  -14.7479 C   0  0  0  0  0  0  0  0  0  0  0  0
   38.5540   12.3742  -15.8381 C   0  0  0  0  0  0  0  0  0  0  0  0
   38.0051   11.5253  -16.7650 C   0  0  0  0  0  0  0  0  0  0  0  0
   38.8247   11.0364  -17.7764 C   0  0  0  0  0  0  0  0  0  0  0  0
   40.1551   11.3844  -17.8613 C   0  0  0  0  0  0  0  0  0  0  0  0
   40.6905   12.2284  -16.9355 C   0  0  0  0  0  0  0  0  0  0  0  0
   39.9012   12.7275  -15.9231 C   0  0  0  0  0  0  0  0  0  0  0  0
   40.2436   13.5556  -14.9430 N   0  0  0  0  0  0  0  0  0  0  0  0
   39.1380   13.7490  -14.2177 C   0  0  0  0  0  0  0  0  0  0  0  0
   39.0018   14.5310  -13.0908 C   0  0  0  0  0  0  0  0  0  0  0  0
   33.6456   12.6525  -13.2610 H   0  0  0  0  0  0  0  0  0  0  0  0
   45.3588   13.1099  -13.4859 C   0  0  0  0  0  0  0  0  0  0  0  0
   44.4440   13.5387  -12.4497 N   0  0  0  0  0  0  0  0  0  0  0  0
   44.9293   14.2943  -11.9178 H   0  0  0  0  0  0  0  0  0  0  0  0
   43.0488   15.2457  -11.0487 O   0  0  0  0  0  0  0  0  0  0  0  0
   42.7085   14.8089   -9.7782 C   0  0  0  0  0  0  0  0  0  0  0  0
 33 34  1  0  0  0
 34  1  1  0  0  0
  1  2  1  0  0  0
  2  3  1  0  0  0
  3  4  1  0  0  0
  4  5  1  0  0  0
  5  6  1  0  0  0
  5  7  1  0  0  0
  7 36  1  0  0  0
 36 37  1  0  0  0
  5  8  1  0  0  0
  8  9  1  0  0  0
  9 10  2  0  0  0
 10 11  1  0  0  0
 11 12  2  0  0  0
 12 13  1  0  0  0
 13 14  2  0  0  0
 14 15  1  0  0  0
 15 16  2  0  0  0
 16 17  1  0  0  0
 17 18  1  0  0  0
 18 19  1  0  0  0
 19 20  2  0  0  0
 19 21  1  0  0  0
 21 22  2  0  0  0
 22 23  1  0  0  0
 23 24  2  0  0  0
 24 25  1  0  0  0
 25 26  2  0  0  0
 26 27  1  0  0  0
 27 28  2  0  0  0
 28 29  1  0  0  0
 29 30  1  0  0  0
 30 31  2  0  0  0
  7  1  1  0  0  0
 31  8  1  0  0  0
 29  3  1  0  0  0
 14  9  1  0  0  0
 31 15  1  0  0  0
 21 16  1  0  0  0
 30 22  1  0  0  0
 28 23  1  0  0  0
 34 35  1  0  0  0
 18 32  1  0  0  0
M  END
> <minimizedAffinity>
-9.81248

> <CNNscore>
0.1405774057

> <CNNaffinity>
6.3086752892

> <CNN_VS>
0.8868572116

> <CNNaffinity_variance>
0.2938988805

$$$$
[H]c1c([H])c([H])c2c(c1[H])c1c3c(c4c5c([H])c([H])c([H])c([H])c5n5c4c1n2[C@@]1([H])O[C@]5(C([H])([H])[H])[C@]([H])(OC([H])([H])[H])[C@@]([H])(N([H])C([H])([H])[H])C1([H])[H])C([H])([H])N([H])C3=O


 37 44  0  0  0  0  0  0  0  0999 V2000
   38.0993   14.5759  -11.5648 C   0  0  0  0  0  0  0  0  0  0  0  0
   39.5807   14.6915  -11.5018 C   0  0  0  0  0  0  0  0  0  0  0  0
   39.9522   15.4944  -12.7445 C   0  0  0  0  0  0  0  0  0  0  0  0
   39.0121   15.5188  -13.6982 O   0  0  0  0  0  0  0  0  0  0  0  0
   38.2778   14.3643  -13.9762 C   0  0  0  0  0  0  0  0  0  0  0  0
   37.0369   14.9490  -14.6653 C   0  0  0  0  0  0  0  0  0  0  0  0
   37.8378   13.6333  -12.7527 C   0  0  0  0  0  0  0  0  0  0  0  0
   39.0986   13.5693  -14.8775 N   0  0  0  0  0  0  0  0  0  0  0  0
   38.6749   12.7033  -15.8177 C   0  0  0  0  0  0  0  0  0  0  0  0
   37.4393   12.2883  -16.1963 C   0  0  0  0  0  0  0  0  0  0  0  0
   37.2141   11.3555  -17.2148 C   0  0  0  0  0  0  0  0  0  0  0  0
   38.2738   10.8135  -17.8836 C   0  0  0  0  0  0  0  0  0  0  0  0
   39.5464   11.2146  -17.5216 C   0  0  0  0  0  0  0  0  0  0  0  0
   39.7373   12.1407  -16.5088 C   0  0  0  0  0  0  0  0  0  0  0  0
   40.8671   12.6759  -15.9744 C   0  0  0  0  0  0  0  0  0  0  0  0
   42.2193   12.4906  -16.2466 C   0  0  0  0  0  0  0  0  0  0  0  0
   42.8216   11.6157  -17.2764 C   0  0  0  0  0  0  0  0  0  0  0  0
   44.2367   11.7863  -17.0917 N   0  0  0  0  0  0  0  0  0  0  0  0
   44.4631   12.7469  -16.0383 C   0  0  0  0  0  0  0  0  0  0  0  0
   45.6254   13.0577  -15.7346 O   0  0  0  0  0  0  0  0  0  0  0  0
   43.1887   13.1644  -15.5339 C   0  0  0  0  0  0  0  0  0  0  0  0
   42.7922   14.0293  -14.5431 C   0  0  0  0  0  0  0  0  0  0  0  0
   43.4524   14.8299  -13.6654 C   0  0  0  0  0  0  0  0  0  0  0  0
   44.7755   15.0996  -13.4249 C   0  0  0  0  0  0  0  0  0  0  0  0
   45.0901   16.0035  -12.4160 C   0  0  0  0  0  0  0  0  0  0  0  0
   44.1124   16.6214  -11.6675 C   0  0  0  0  0  0  0  0  0  0  0  0
   42.8010   16.3466  -11.9146 C   0  0  0  0  0  0  0  0  0  0  0  0
   42.4612   15.4553  -12.9081 C   0  0  0  0  0  0  0  0  0  0  0  0
   41.2494   15.0696  -13.2903 N   0  0  0  0  0  0  0  0  0  0  0  0
   41.4344   14.2000  -14.2879 C   0  0  0  0  0  0  0  0  0  0  0  0
   40.4669   13.5258  -15.0016 C   0  0  0  0  0  0  0  0  0  0  0  0
   44.9546   11.2738  -17.6539 H   0  0  0  0  0  0  0  0  0  0  0  0
   37.6422   15.1745   -9.3503 C   0  0  0  0  0  0  0  0  0  0  0  0
   37.4226   14.1872  -10.3855 N   0  0  0  0  0  0  0  0  0  0  0  0
   36.3978   14.1854  -10.5830 H   0  0  0  0  0  0  0  0  0  0  0  0
   36.5221   13.2928  -12.6685 O   0  0  0  0  0  0  0  0  0  0  0  0
   36.3218   11.9477  -12.9357 C   0  0  0  0  0  0  0  0  0  0  0  0
 33 34  1  0  0  0
 34  1  1  0  0  0
  1  2  1  0  0  0
  2  3  1  0  0  0
  3  4  1  0  0  0
  4  5  1  0  0  0
  5  6  1  0  0  0
  5  7  1  0  0  0
  7 36  1  0  0  0
 36 37  1  0  0  0
  5  8  1  0  0  0
  8  9  1  0  0  0
  9 10  2  0  0  0
 10 11  1  0  0  0
 11 12  2  0  0  0
 12 13  1  0  0  0
 13 14  2  0  0  0
 14 15  1  0  0  0
 15 16  2  0  0  0
 16 17  1  0  0  0
 17 18  1  0  0  0
 18 19  1  0  0  0
 19 20  2  0  0  0
 19 21  1  0  0  0
 21 22  2  0  0  0
 22 23  1  0  0  0
 23 24  2  0  0  0
 24 25  1  0  0  0
 25 26  2  0  0  0
 26 27  1  0  0  0
 27 28  2  0  0  0
 28 29  1  0  0  0
 29 30  1  0  0  0
 30 31  2  0  0  0
  7  1  1  0  0  0
 31  8  1  0  0  0
 29  3  1  0  0  0
 14  9  1  0  0  0
 31 15  1  0  0  0
 21 16  1  0  0  0
 30 22  1  0  0  0
 28 23  1  0  0  0
 34 35  1  0  0  0
 18 32  1  0  0  0
M  END
> <minimizedAffinity>
-8.57666

> <CNNscore>
0.1012676358

> <CNNaffinity>
6.0313558578

> <CNN_VS>
0.6107811332

> <CNNaffinity_variance>
0.4551493526

$$$$
[H]c1c([H])c([H])c2c(c1[H])c1c3c(c4c5c([H])c([H])c([H])c([H])c5n5c4c1n2[C@@]1([H])O[C@]5(C([H])([H])[H])[C@]([H])(OC([H])([H])[H])[C@@]([H])(N([H])C([H])([H])[H])C1([H])[H])C([H])([H])N([H])C3=O


 37 44  0  0  0  0  0  0  0  0999 V2000
   43.4070   12.4961   -5.8492 C   0  0  0  0  0  0  0  0  0  0  0  0
   44.6182   12.6068   -6.7052 C   0  0  0  0  0  0  0  0  0  0  0  0
   44.9334   14.0992   -6.7259 C   0  0  0  0  0  0  0  0  0  0  0  0
   43.9143   14.8927   -6.3715 O   0  0  0  0  0  0  0  0  0  0  0  0
   42.6196   14.5878   -6.7958 C   0  0  0  0  0  0  0  0  0  0  0  0
   41.7727   15.3604   -5.7747 C   0  0  0  0  0  0  0  0  0  0  0  0
   42.2859   13.1382   -6.6852 C   0  0  0  0  0  0  0  0  0  0  0  0
   42.4989   15.1217   -8.1443 N   0  0  0  0  0  0  0  0  0  0  0  0
   41.3800   15.5612   -8.7512 C   0  0  0  0  0  0  0  0  0  0  0  0
   40.0832   15.6250   -8.3555 C   0  0  0  0  0  0  0  0  0  0  0  0
   39.0517   16.1218   -9.1601 C   0  0  0  0  0  0  0  0  0  0  0  0
   39.3313   16.5745  -10.4175 C   0  0  0  0  0  0  0  0  0  0  0  0
   40.6429   16.5224  -10.8516 C   0  0  0  0  0  0  0  0  0  0  0  0
   41.6427   16.0251  -10.0313 C   0  0  0  0  0  0  0  0  0  0  0  0
   42.9781   15.8644  -10.2294 C   0  0  0  0  0  0  0  0  0  0  0  0
   43.8114   16.1370  -11.3102 C   0  0  0  0  0  0  0  0  0  0  0  0
   43.4372   16.7347  -12.6108 C   0  0  0  0  0  0  0  0  0  0  0  0
   44.6693   16.7544  -13.3505 N   0  0  0  0  0  0  0  0  0  0  0  0
   45.7288   16.2382  -12.5172 C   0  0  0  0  0  0  0  0  0  0  0  0
   46.8869   16.1910  -12.9607 O   0  0  0  0  0  0  0  0  0  0  0  0
   45.1618   15.8628  -11.2560 C   0  0  0  0  0  0  0  0  0  0  0  0
   45.6737   15.3123  -10.1064 C   0  0  0  0  0  0  0  0  0  0  0  0
   46.9150   14.9197   -9.7161 C   0  0  0  0  0  0  0  0  0  0  0  0
   48.1511   14.9245  -10.3104 C   0  0  0  0  0  0  0  0  0  0  0  0
   49.2312   14.4309   -9.5868 C   0  0  0  0  0  0  0  0  0  0  0  0
   49.0828   13.9459   -8.3059 C   0  0  0  0  0  0  0  0  0  0  0  0
   47.8506   13.9457   -7.7246 C   0  0  0  0  0  0  0  0  0  0  0  0
   46.7635   14.4289   -8.4187 C   0  0  0  0  0  0  0  0  0  0  0  0
   45.5000   14.5104   -8.0186 N   0  0  0  0  0  0  0  0  0  0  0  0
   44.8224   15.0483   -9.0371 C   0  0  0  0  0  0  0  0  0  0  0  0
   43.4728   15.3234   -9.0930 C   0  0  0  0  0  0  0  0  0  0  0  0
   44.7412   17.0966  -14.3364 H   0  0  0  0  0  0  0  0  0  0  0  0
   44.2599   10.3950   -5.2756 C   0  0  0  0  0  0  0  0  0  0  0  0
   43.0698   11.2146   -5.3554 N   0  0  0  0  0  0  0  0  0  0  0  0
   42.7171   11.3237   -4.3793 H   0  0  0  0  0  0  0  0  0  0  0  0
   41.1244   12.8115   -6.0542 O   0  0  0  0  0  0  0  0  0  0  0  0
   40.1682   12.3503   -6.9452 C   0  0  0  0  0  0  0  0  0  0  0  0
 33 34  1  0  0  0
 34  1  1  0  0  0
  1  2  1  0  0  0
  2  3  1  0  0  0
  3  4  1  0  0  0
  4  5  1  0  0  0
  5  6  1  0  0  0
  5  7  1  0  0  0
  7 36  1  0  0  0
 36 37  1  0  0  0
  5  8  1  0  0  0
  8  9  1  0  0  0
  9 10  2  0  0  0
 10 11  1  0  0  0
 11 12  2  0  0  0
 12 13  1  0  0  0
 13 14  2  0  0  0
 14 15  1  0  0  0
 15 16  2  0  0  0
 16 17  1  0  0  0
 17 18  1  0  0  0
 18 19  1  0  0  0
 19 20  2  0  0  0
 19 21  1  0  0  0
 21 22  2  0  0  0
 22 23  1  0  0  0
 23 24  2  0  0  0
 24 25  1  0  0  0
 25 26  2  0  0  0
 26 27  1  0  0  0
 27 28  2  0  0  0
 28 29  1  0  0  0
 29 30  1  0  0  0
 30 31  2  0  0  0
  7  1  1  0  0  0
 31  8  1  0  0  0
 29  3  1  0  0  0
 14  9  1  0  0  0
 31 15  1  0  0  0
 21 16  1  0  0  0
 30 22  1  0  0  0
 28 23  1  0  0  0
 34 35  1  0  0  0
 18 32  1  0  0  0
M  END
> <minimizedAffinity>
-5.52259

> <CNNscore>
0.0881766900

> <CNNaffinity>
5.0695915222

> <CNN_VS>
0.4470197856

> <CNNaffinity_variance>
0.1410168707

$$$$
[H]c1c([H])c([H])c2c(c1[H])c1c3c(c4c5c([H])c([H])c([H])c([H])c5n5c4c1n2[C@@]1([H])O[C@]5(C([H])([H])[H])[C@]([H])(OC([H])([H])[H])[C@@]([H])(N([H])C([H])([H])[H])C1([H])[H])C([H])([H])N([H])C3=O


 37 44  0  0  0  0  0  0  0  0999 V2000
   37.2256   18.6524   -9.0456 C   0  0  0  0  0  0  0  0  0  0  0  0
   38.5732   18.2955   -9.5640 C   0  0  0  0  0  0  0  0  0  0  0  0
   38.4687   16.8120   -9.9035 C   0  0  0  0  0  0  0  0  0  0  0  0
   37.4496   16.1723   -9.3151 O   0  0  0  0  0  0  0  0  0  0  0  0
   37.1180   16.4686   -7.9917 C   0  0  0  0  0  0  0  0  0  0  0  0
   35.6673   15.9715   -7.9207 C   0  0  0  0  0  0  0  0  0  0  0  0
   37.1316   17.9295   -7.6905 C   0  0  0  0  0  0  0  0  0  0  0  0
   38.0214   15.6850   -7.1623 N   0  0  0  0  0  0  0  0  0  0  0  0
   37.7860   15.2057   -5.9261 C   0  0  0  0  0  0  0  0  0  0  0  0
   36.7233   15.3055   -5.0876 C   0  0  0  0  0  0  0  0  0  0  0  0
   36.6839   14.7252   -3.8150 C   0  0  0  0  0  0  0  0  0  0  0  0
   37.7572   14.0134   -3.3614 C   0  0  0  0  0  0  0  0  0  0  0  0
   38.8566   13.8935   -4.1909 C   0  0  0  0  0  0  0  0  0  0  0  0
   38.8656   14.4795   -5.4465 C   0  0  0  0  0  0  0  0  0  0  0  0
   39.8115   14.5114   -6.4225 C   0  0  0  0  0  0  0  0  0  0  0  0
   41.0928   13.9756   -6.5129 C   0  0  0  0  0  0  0  0  0  0  0  0
   41.8017   13.1553   -5.5063 C   0  0  0  0  0  0  0  0  0  0  0  0
   43.0862   12.9092   -6.1019 N   0  0  0  0  0  0  0  0  0  0  0  0
   43.1224   13.5125   -7.4128 C   0  0  0  0  0  0  0  0  0  0  0  0
   44.1415   13.3957   -8.1111 O   0  0  0  0  0  0  0  0  0  0  0  0
   41.8680   14.1678   -7.6369 C   0  0  0  0  0  0  0  0  0  0  0  0
   41.3483   14.9030   -8.6744 C   0  0  0  0  0  0  0  0  0  0  0  0
   41.8169   15.2852   -9.8916 C   0  0  0  0  0  0  0  0  0  0  0  0
   42.9904   15.0825  -10.5720 C   0  0  0  0  0  0  0  0  0  0  0  0
   43.1213   15.6404  -11.8390 C   0  0  0  0  0  0  0  0  0  0  0  0
   42.1100   16.3801  -12.4119 C   0  0  0  0  0  0  0  0  0  0  0  0
   40.9482   16.5755  -11.7276 C   0  0  0  0  0  0  0  0  0  0  0  0
   40.7918   16.0340  -10.4708 C   0  0  0  0  0  0  0  0  0  0  0  0
   39.7407   16.1153   -9.6633 N   0  0  0  0  0  0  0  0  0  0  0  0
   40.0644   15.4293   -8.5631 C   0  0  0  0  0  0  0  0  0  0  0  0
   39.2908   15.2358   -7.4388 C   0  0  0  0  0  0  0  0  0  0  0  0
   43.8469   12.3731   -5.6244 H   0  0  0  0  0  0  0  0  0  0  0  0
   37.9321   20.7343   -8.2471 C   0  0  0  0  0  0  0  0  0  0  0  0
   36.8969   20.0257   -8.9687 N   0  0  0  0  0  0  0  0  0  0  0  0
   36.8896   20.4140   -9.9373 H   0  0  0  0  0  0  0  0  0  0  0  0
   36.0354   18.4494   -7.0723 O   0  0  0  0  0  0  0  0  0  0  0  0
   36.2911   18.7545   -5.7447 C   0  0  0  0  0  0  0  0  0  0  0  0
 33 34  1  0  0  0
 34  1  1  0  0  0
  1  2  1  0  0  0
  2  3  1  0  0  0
  3  4  1  0  0  0
  4  5  1  0  0  0
  5  6  1  0  0  0
  5  7  1  0  0  0
  7 36  1  0  0  0
 36 37  1  0  0  0
  5  8  1  0  0  0
  8  9  1  0  0  0
  9 10  2  0  0  0
 10 11  1  0  0  0
 11 12  2  0  0  0
 12 13  1  0  0  0
 13 14  2  0  0  0
 14 15  1  0  0  0
 15 16  2  0  0  0
 16 17  1  0  0  0
 17 18  1  0  0  0
 18 19  1  0  0  0
 19 20  2  0  0  0
 19 21  1  0  0  0
 21 22  2  0  0  0
 22 23  1  0  0  0
 23 24  2  0  0  0
 24 25  1  0  0  0
 25 26  2  0  0  0
 26 27  1  0  0  0
 27 28  2  0  0  0
 28 29  1  0  0  0
 29 30  1  0  0  0
 30 31  2  0  0  0
  7  1  1  0  0  0
 31  8  1  0  0  0
 29  3  1  0  0  0
 14  9  1  0  0  0
 31 15  1  0  0  0
 21 16  1  0  0  0
 30 22  1  0  0  0
 28 23  1  0  0  0
 34 35  1  0  0  0
 18 32  1  0  0  0
M  END
> <minimizedAffinity>
-6.47067

> <CNNscore>
0.0823393017

> <CNNaffinity>
5.0876016617

> <CNN_VS>
0.4189095795

> <CNNaffinity_variance>
0.4014873505

$$$$
[H]c1c([H])c([H])c2c(c1[H])c1c3c(c4c5c([H])c([H])c([H])c([H])c5n5c4c1n2[C@@]1([H])O[C@]5(C([H])([H])[H])[C@]([H])(OC([H])([H])[H])[C@@]([H])(N([H])C([H])([H])[H])C1([H])[H])C([H])([H])N([H])C3=O


 37 44  0  0  0  0  0  0  0  0999 V2000
   45.5921   15.0209  -12.5790 C   0  0  0  0  0  0  0  0  0  0  0  0
   44.1294   14.8047  -12.4186 C   0  0  0  0  0  0  0  0  0  0  0  0
   43.5760   16.1861  -12.0829 C   0  0  0  0  0  0  0  0  0  0  0  0
   44.4865   17.0623  -11.6389 O   0  0  0  0  0  0  0  0  0  0  0  0
   45.4917   16.6352  -10.7693 C   0  0  0  0  0  0  0  0  0  0  0  0
   46.5490   17.7316  -10.9612 C   0  0  0  0  0  0  0  0  0  0  0  0
   46.0934   15.3264  -11.1566 C   0  0  0  0  0  0  0  0  0  0  0  0
   44.9065   16.6464   -9.4368 N   0  0  0  0  0  0  0  0  0  0  0  0
   45.5434   16.8459   -8.2671 C   0  0  0  0  0  0  0  0  0  0  0  0
   46.8467   17.0590   -7.9539 C   0  0  0  0  0  0  0  0  0  0  0  0
   47.3091   17.2397   -6.6456 C   0  0  0  0  0  0  0  0  0  0  0  0
   46.4267   17.2049   -5.6043 C   0  0  0  0  0  0  0  0  0  0  0  0
   45.0913   16.9888   -5.8893 C   0  0  0  0  0  0  0  0  0  0  0  0
   44.6638   16.8135   -7.1956 C   0  0  0  0  0  0  0  0  0  0  0  0
   43.4311   16.5812   -7.7199 C   0  0  0  0  0  0  0  0  0  0  0  0
   42.1723   16.4378   -7.1440 C   0  0  0  0  0  0  0  0  0  0  0  0
   41.8196   16.5279   -5.7100 C   0  0  0  0  0  0  0  0  0  0  0  0
   40.4062   16.2689   -5.6836 N   0  0  0  0  0  0  0  0  0  0  0  0
   39.9354   16.0802   -7.0350 C   0  0  0  0  0  0  0  0  0  0  0  0
   38.7299   15.8665   -7.2376 O   0  0  0  0  0  0  0  0  0  0  0  0
   41.0582   16.1908   -7.9181 C   0  0  0  0  0  0  0  0  0  0  0  0
   41.2146   16.0889   -9.2791 C   0  0  0  0  0  0  0  0  0  0  0  0
   40.3661   15.8539  -10.3144 C   0  0  0  0  0  0  0  0  0  0  0  0
   39.0160   15.6335  -10.4141 C   0  0  0  0  0  0  0  0  0  0  0  0
   38.4746   15.4261  -11.6781 C   0  0  0  0  0  0  0  0  0  0  0  0
   39.2577   15.4381  -12.8115 C   0  0  0  0  0  0  0  0  0  0  0  0
   40.5978   15.6582  -12.7015 C   0  0  0  0  0  0  0  0  0  0  0  0
   41.1603   15.8666  -11.4617 C   0  0  0  0  0  0  0  0  0  0  0  0
   42.4332   16.0975  -11.1623 N   0  0  0  0  0  0  0  0  0  0  0  0
   42.4827   16.2363   -9.8342 C   0  0  0  0  0  0  0  0  0  0  0  0
   43.5951   16.4836   -9.0587 C   0  0  0  0  0  0  0  0  0  0  0  0
   39.8462   16.2309   -4.8010 H   0  0  0  0  0  0  0  0  0  0  0  0
   45.7090   12.7229  -12.9994 C   0  0  0  0  0  0  0  0  0  0  0  0
   46.3360   14.0073  -13.2263 N   0  0  0  0  0  0  0  0  0  0  0  0
   46.2969   14.1805  -14.2548 H   0  0  0  0  0  0  0  0  0  0  0  0
   47.4517   15.2594  -11.2237 O   0  0  0  0  0  0  0  0  0  0  0  0
   47.9762   14.4568  -10.2229 C   0  0  0  0  0  0  0  0  0  0  0  0
 33 34  1  0  0  0
 34  1  1  0  0  0
  1  2  1  0  0  0
  2  3  1  0  0  0
  3  4  1  0  0  0
  4  5  1  0  0  0
  5  6  1  0  0  0
  5  7  1  0  0  0
  7 36  1  0  0  0
 36 37  1  0  0  0
  5  8  1  0  0  0
  8  9  1  0  0  0
  9 10  2  0  0  0
 10 11  1  0  0  0
 11 12  2  0  0  0
 12 13  1  0  0  0
 13 14  2  0  0  0
 14 15  1  0  0  0
 15 16  2  0  0  0
 16 17  1  0  0  0
 17 18  1  0  0  0
 18 19  1  0  0  0
 19 20  2  0  0  0
 19 21  1  0  0  0
 21 22  2  0  0  0
 22 23  1  0  0  0
 23 24  2  0  0  0
 24 25  1  0  0  0
 25 26  2  0  0  0
 26 27  1  0  0  0
 27 28  2  0  0  0
 28 29  1  0  0  0
 29 30  1  0  0  0
 30 31  2  0  0  0
  7  1  1  0  0  0
 31  8  1  0  0  0
 29  3  1  0  0  0
 14  9  1  0  0  0
 31 15  1  0  0  0
 21 16  1  0  0  0
 30 22  1  0  0  0
 28 23  1  0  0  0
 34 35  1  0  0  0
 18 32  1  0  0  0
M  END
> <minimizedAffinity>
-5.61178

> <CNNscore>
0.0793422163

> <CNNaffinity>
5.2799539566

> <CNN_VS>
0.4189232588

> <CNNaffinity_variance>
0.0987571105

$$$$
[H]c1c([H])c([H])c2c(c1[H])c1c3c(c4c5c([H])c([H])c([H])c([H])c5n5c4c1n2[C@@]1([H])O[C@]5(C([H])([H])[H])[C@]([H])(OC([H])([H])[H])[C@@]([H])(N([H])C([H])([H])[H])C1([H])[H])C([H])([H])N([H])C3=O


 37 44  0  0  0  0  0  0  0  0999 V2000
   39.4156   15.8366   -9.2035 C   0  0  0  0  0  0  0  0  0  0  0  0
   40.3577   15.1885  -10.1544 C   0  0  0  0  0  0  0  0  0  0  0  0
   40.1745   15.9616  -11.4567 C   0  0  0  0  0  0  0  0  0  0  0  0
   39.0359   16.6623  -11.5375 O   0  0  0  0  0  0  0  0  0  0  0  0
   37.8512   16.1181  -11.0378 C   0  0  0  0  0  0  0  0  0  0  0  0
   36.9976   17.3777  -10.8341 C   0  0  0  0  0  0  0  0  0  0  0  0
   38.0196   15.4436   -9.7181 C   0  0  0  0  0  0  0  0  0  0  0  0
   37.3311   15.2502  -12.0839 N   0  0  0  0  0  0  0  0  0  0  0  0
   36.0419   14.9456  -12.3259 C   0  0  0  0  0  0  0  0  0  0  0  0
   34.8833   15.2925  -11.7099 C   0  0  0  0  0  0  0  0  0  0  0  0
   33.6224   14.8514  -12.1268 C   0  0  0  0  0  0  0  0  0  0  0  0
   33.5172   14.0254  -13.2088 C   0  0  0  0  0  0  0  0  0  0  0  0
   34.6791   13.6523  -13.8586 C   0  0  0  0  0  0  0  0  0  0  0  0
   35.9133   14.1059  -13.4220 C   0  0  0  0  0  0  0  0  0  0  0  0
   37.1736   13.8766  -13.8776 C   0  0  0  0  0  0  0  0  0  0  0  0
   37.6726   13.1158  -14.9308 C   0  0  0  0  0  0  0  0  0  0  0  0
   36.9045   12.3178  -15.9116 C   0  0  0  0  0  0  0  0  0  0  0  0
   37.9155   11.7211  -16.7407 N   0  0  0  0  0  0  0  0  0  0  0  0
   39.2138   12.1769  -16.3044 C   0  0  0  0  0  0  0  0  0  0  0  0
   40.2294   11.7956  -16.9070 O   0  0  0  0  0  0  0  0  0  0  0  0
   39.0273   13.0417  -15.1772 C   0  0  0  0  0  0  0  0  0  0  0  0
   39.8821   13.7386  -14.3584 C   0  0  0  0  0  0  0  0  0  0  0  0
   41.2322   13.8860  -14.3053 C   0  0  0  0  0  0  0  0  0  0  0  0
   42.2774   13.4052  -15.0520 C   0  0  0  0  0  0  0  0  0  0  0  0
   43.5682   13.7800  -14.6953 C   0  0  0  0  0  0  0  0  0  0  0  0
   43.8101   14.6113  -13.6237 C   0  0  0  0  0  0  0  0  0  0  0  0
   42.7648   15.0835  -12.8885 C   0  0  0  0  0  0  0  0  0  0  0  0
   41.4760   14.7282  -13.2198 C   0  0  0  0  0  0  0  0  0  0  0  0
   40.3435   15.0888  -12.6275 N   0  0  0  0  0  0  0  0  0  0  0  0
   39.3615   14.4938  -13.3113 C   0  0  0  0  0  0  0  0  0  0  0  0
   38.0070   14.5670  -13.0667 C   0  0  0  0  0  0  0  0  0  0  0  0
   37.6998   11.0642  -17.5256 H   0  0  0  0  0  0  0  0  0  0  0  0
   40.1785   14.2635   -7.6496 C   0  0  0  0  0  0  0  0  0  0  0  0
   39.5950   15.5762   -7.8252 N   0  0  0  0  0  0  0  0  0  0  0  0
   40.2868   16.2623   -7.4510 H   0  0  0  0  0  0  0  0  0  0  0  0
   37.1524   15.7876   -8.7263 O   0  0  0  0  0  0  0  0  0  0  0  0
   36.3230   14.7324   -8.3807 C   0  0  0  0  0  0  0  0  0  0  0  0
 33 34  1  0  0  0
 34  1  1  0  0  0
  1  2  1  0  0  0
  2  3  1  0  0  0
  3  4  1  0  0  0
  4  5  1  0  0  0
  5  6  1  0  0  0
  5  7  1  0  0  0
  7 36  1  0  0  0
 36 37  1  0  0  0
  5  8  1  0  0  0
  8  9  1  0  0  0
  9 10  2  0  0  0
 10 11  1  0  0  0
 11 12  2  0  0  0
 12 13  1  0  0  0
 13 14  2  0  0  0
 14 15  1  0  0  0
 15 16  2  0  0  0
 16 17  1  0  0  0
 17 18  1  0  0  0
 18 19  1  0  0  0
 19 20  2  0  0  0
 19 21  1  0  0  0
 21 22  2  0  0  0
 22 23  1  0  0  0
 23 24  2  0  0  0
 24 25  1  0  0  0
 25 26  2  0  0  0
 26 27  1  0  0  0
 27 28  2  0  0  0
 28 29  1  0  0  0
 29 30  1  0  0  0
 30 31  2  0  0  0
  7  1  1  0  0  0
 31  8  1  0  0  0
 29  3  1  0  0  0
 14  9  1  0  0  0
 31 15  1  0  0  0
 21 16  1  0  0  0
 30 22  1  0  0  0
 28 23  1  0  0  0
 34 35  1  0  0  0
 18 32  1  0  0  0
M  END
> <minimizedAffinity>
-9.85361

> <CNNscore>
0.0687117428

> <CNNaffinity>
5.9159955978

> <CNN_VS>
0.4064983726

> <CNNaffinity_variance>
0.3701746762

$$$$
[H]N=C(N([H])[H])C([H])([H])C([H])([H])[C@@]([H])(C(=O)N([H])[C@]([H])(C(=O)N([H])[C@]([H])(C(=O)N([H])[C@]([H])(C(=O)N([H])[C@]([H])(C(=O)N([H])[C@]([H])(C(=O)N([H])[H])C([H])([H])C([H])(C([H])([H])[H])C([H])([H])[H])C([H])([H])C([H])([H])C(=O)N([H])[H])C([H])([H])C([H])([H])C(=O)N([H])[H])C([H])([H])C([H])([H])C(=O)N([H])[H])C([H])([H])C([H])([H])C(=O)N([H])[H])N([H])C(=O)[C@@]([H])(N([H])C(=O)C([H])([H])[H])C([H])([H])C([H])([H])C(=O)N([H])[H]


 88 87  0  0  0  0  0  0  0  0999 V2000
   37.0686   15.6782   -7.4049 C   0  0  0  0  0  0  0  0  0  0  0  0
   36.9012   16.0584   -8.7732 N   0  0  0  0  0  0  0  0  0  0  0  0
   37.9499   15.8326   -9.7042 C   0  0  0  0  0  0  0  0  0  0  0  0
   39.0418   15.3450   -9.2056 O   0  0  0  0  0  0  0  0  0  0  0  0
   35.9951   16.5044   -9.1304 H   0  0  0  0  0  0  0  0  0  0  0  0
   37.9618   16.0576  -11.1394 C   0  0  0  0  0  0  0  0  0  0  0  0
   38.6004   15.0300  -11.8905 N   0  0  0  0  0  0  0  0  0  0  0  0
   39.7698   15.3178  -12.6895 C   0  0  0  0  0  0  0  0  0  0  0  0
   40.2254   16.4678  -12.7266 O   0  0  0  0  0  0  0  0  0  0  0  0
   38.2871   14.0381  -11.8954 H   0  0  0  0  0  0  0  0  0  0  0  0
   40.4094   14.2276  -13.4730 C   0  0  0  0  0  0  0  0  0  0  0  0
   39.7315   13.6875  -14.6019 N   0  0  0  0  0  0  0  0  0  0  0  0
   38.6803   12.7820  -14.6586 C   0  0  0  0  0  0  0  0  0  0  0  0
   38.2297   12.4445  -13.4672 O   0  0  0  0  0  0  0  0  0  0  0  0
   40.1171   14.0225  -15.5564 H   0  0  0  0  0  0  0  0  0  0  0  0
   37.9771   12.1314  -15.7265 C   0  0  0  0  0  0  0  0  0  0  0  0
   38.8062   11.3695  -16.6507 N   0  0  0  0  0  0  0  0  0  0  0  0
   39.7710   11.9602  -17.4680 C   0  0  0  0  0  0  0  0  0  0  0  0
   40.5445   11.0860  -18.3777 C   0  0  0  0  0  0  0  0  0  0  0  0
   40.0026   13.2035  -17.4720 O   0  0  0  0  0  0  0  0  0  0  0  0
   38.6328   10.3459  -16.6844 H   0  0  0  0  0  0  0  0  0  0  0  0
   36.6315   11.5901  -15.6204 C   0  0  0  0  0  0  0  0  0  0  0  0
   35.7262   11.5982  -16.7958 C   0  0  0  0  0  0  0  0  0  0  0  0
   34.3557   11.0896  -16.3864 C   0  0  0  0  0  0  0  0  0  0  0  0
   33.5440   11.7491  -15.4983 N   0  0  0  0  0  0  0  0  0  0  0  0
   34.0069    9.9948  -16.9368 O   0  0  0  0  0  0  0  0  0  0  0  0
   33.6836   12.7680  -15.2836 H   0  0  0  0  0  0  0  0  0  0  0  0
   32.7342   11.2987  -14.9781 H   0  0  0  0  0  0  0  0  0  0  0  0
   41.8374   14.5490  -13.6754 C   0  0  0  0  0  0  0  0  0  0  0  0
   42.7466   13.4450  -14.0514 C   0  0  0  0  0  0  0  0  0  0  0  0
   43.4752   13.6103  -15.3114 C   0  0  0  0  0  0  0  0  0  0  0  0
   43.0713   12.8877  -16.4915 N   0  0  0  0  0  0  0  0  0  0  0  0
   44.4994   14.3592  -15.4222 N   0  0  0  0  0  0  0  0  0  0  0  0
   42.9794   13.4483  -17.3658 H   0  0  0  0  0  0  0  0  0  0  0  0
   42.9241   11.8778  -16.4215 H   0  0  0  0  0  0  0  0  0  0  0  0
   45.0121   14.4776  -16.3066 H   0  0  0  0  0  0  0  0  0  0  0  0
   36.4361   16.0528  -11.6123 C   0  0  0  0  0  0  0  0  0  0  0  0
   35.9770   14.6503  -11.8212 C   0  0  0  0  0  0  0  0  0  0  0  0
   34.8453   14.5562  -12.7821 C   0  0  0  0  0  0  0  0  0  0  0  0
   33.6482   15.2001  -12.4260 N   0  0  0  0  0  0  0  0  0  0  0  0
   34.9463   13.9362  -13.8530 O   0  0  0  0  0  0  0  0  0  0  0  0
   33.6597   16.1606  -12.0710 H   0  0  0  0  0  0  0  0  0  0  0  0
   32.7331   14.7270  -12.4881 H   0  0  0  0  0  0  0  0  0  0  0  0
   35.2260   14.3937   -6.2293 N   0  0  0  0  0  0  0  0  0  0  0  0
   36.3326   14.4524   -7.0040 C   0  0  0  0  0  0  0  0  0  0  0  0
   36.8947   13.3741   -7.4972 O   0  0  0  0  0  0  0  0  0  0  0  0
   35.1680   13.0420   -6.3920 H   0  0  0  0  0  0  0  0  0  0  0  0
   34.0964   14.3277   -5.4389 C   0  0  0  0  0  0  0  0  0  0  0  0
   32.2222   16.1215   -5.2925 N   0  0  0  0  0  0  0  0  0  0  0  0
   32.9992   15.1972   -6.0257 C   0  0  0  0  0  0  0  0  0  0  0  0
   32.7601   15.0841   -7.2401 O   0  0  0  0  0  0  0  0  0  0  0  0
   32.3893   16.2089   -4.2920 H   0  0  0  0  0  0  0  0  0  0  0  0
   31.1995   16.9039   -5.8851 C   0  0  0  0  0  0  0  0  0  0  0  0
   29.8073   14.8986   -6.5275 N   0  0  0  0  0  0  0  0  0  0  0  0
   30.3169   16.1678   -6.8790 C   0  0  0  0  0  0  0  0  0  0  0  0
   30.1000   16.7176   -7.9323 O   0  0  0  0  0  0  0  0  0  0  0  0
   30.2209   14.5838   -5.5412 H   0  0  0  0  0  0  0  0  0  0  0  0
   28.9498   13.9619   -7.0817 C   0  0  0  0  0  0  0  0  0  0  0  0
   29.7075   12.7181   -7.4480 C   0  0  0  0  0  0  0  0  0  0  0  0
   30.8355   12.8095   -8.2683 N   0  0  0  0  0  0  0  0  0  0  0  0
   29.3248   11.6118   -7.0098 O   0  0  0  0  0  0  0  0  0  0  0  0
   31.7566   12.4228   -7.9195 H   0  0  0  0  0  0  0  0  0  0  0  0
   30.7842   13.2650   -9.2007 H   0  0  0  0  0  0  0  0  0  0  0  0
   27.9424   14.2068   -8.1313 C   0  0  0  0  0  0  0  0  0  0  0  0
   26.1293   13.4214   -6.6655 C   0  0  0  0  0  0  0  0  0  0  0  0
   26.7035   13.3531   -8.0950 C   0  0  0  0  0  0  0  0  0  0  0  0
   25.6179   13.9075   -9.0110 C   0  0  0  0  0  0  0  0  0  0  0  0
   31.8520   18.0197   -6.7493 C   0  0  0  0  0  0  0  0  0  0  0  0
   31.5866   19.3342   -6.0785 C   0  0  0  0  0  0  0  0  0  0  0  0
   30.9588   20.3500   -6.9566 C   0  0  0  0  0  0  0  0  0  0  0  0
   30.3333   20.0039   -8.1743 N   0  0  0  0  0  0  0  0  0  0  0  0
   30.9712   21.5449   -6.6296 O   0  0  0  0  0  0  0  0  0  0  0  0
   29.3361   20.1696   -8.3910 H   0  0  0  0  0  0  0  0  0  0  0  0
   30.9035   19.5434   -8.9162 H   0  0  0  0  0  0  0  0  0  0  0  0
   34.2971   14.8201   -4.0188 C   0  0  0  0  0  0  0  0  0  0  0  0
   35.7179   14.7320   -3.5369 C   0  0  0  0  0  0  0  0  0  0  0  0
   35.9540   13.6951   -2.5307 C   0  0  0  0  0  0  0  0  0  0  0  0
   36.2482   14.0369   -1.1868 N   0  0  0  0  0  0  0  0  0  0  0  0
   35.9027   12.4512   -2.8199 O   0  0  0  0  0  0  0  0  0  0  0  0
   35.6356   13.6985   -0.4215 H   0  0  0  0  0  0  0  0  0  0  0  0
   37.0772   14.6272   -0.9694 H   0  0  0  0  0  0  0  0  0  0  0  0
   37.2258   16.7775   -6.4579 C   0  0  0  0  0  0  0  0  0  0  0  0
   37.1719   18.1915   -6.9067 C   0  0  0  0  0  0  0  0  0  0  0  0
   35.7009   18.5688   -6.7057 C   0  0  0  0  0  0  0  0  0  0  0  0
   35.0375   19.5201   -7.4748 N   0  0  0  0  0  0  0  0  0  0  0  0
   35.0997   17.9590   -5.7709 O   0  0  0  0  0  0  0  0  0  0  0  0
   34.8213   20.4892   -7.1604 H   0  0  0  0  0  0  0  0  0  0  0  0
   34.7117   19.2518   -8.4446 H   0  0  0  0  0  0  0  0  0  0  0  0
 65 66  1  0  0  0
 66 67  1  0  0  0
 66 64  1  0  0  0
 64 58  1  0  0  0
 58 54  1  0  0  0
 54 55  1  0  0  0
 55 56  2  0  0  0
 55 53  1  0  0  0
 53 68  1  0  0  0
 68 69  1  0  0  0
 69 70  1  0  0  0
 70 71  1  0  0  0
 70 72  2  0  0  0
 53 49  1  0  0  0
 49 50  1  0  0  0
 50 51  2  0  0  0
 50 48  1  0  0  0
 48 75  1  0  0  0
 75 76  1  0  0  0
 76 77  1  0  0  0
 77 78  1  0  0  0
 77 79  2  0  0  0
 48 44  1  0  0  0
 44 45  1  0  0  0
 45 46  2  0  0  0
 45  1  1  0  0  0
  1 82  1  0  0  0
 82 83  1  0  0  0
 83 84  1  0  0  0
 84 85  1  0  0  0
 84 86  2  0  0  0
  1  2  1  0  0  0
  2  3  1  0  0  0
  3  4  2  0  0  0
  3  6  1  0  0  0
  6 37  1  0  0  0
 37 38  1  0  0  0
 38 39  1  0  0  0
 39 40  1  0  0  0
 39 41  2  0  0  0
  6  7  1  0  0  0
  7  8  1  0  0  0
  8  9  2  0  0  0
  8 11  1  0  0  0
 11 29  1  0  0  0
 29 30  1  0  0  0
 30 31  1  0  0  0
 31 32  1  0  0  0
 31 33  2  0  0  0
 11 12  1  0  0  0
 12 13  1  0  0  0
 13 14  2  0  0  0
 13 16  1  0  0  0
 16 22  1  0  0  0
 22 23  1  0  0  0
 23 24  1  0  0  0
 24 25  1  0  0  0
 24 26  2  0  0  0
 16 17  1  0  0  0
 17 18  1  0  0  0
 18 19  1  0  0  0
 18 20  2  0  0  0
 58 59  1  0  0  0
 59 60  1  0  0  0
 59 61  2  0  0  0
 54 57  1  0  0  0
 71 73  1  0  0  0
 71 74  1  0  0  0
 49 52  1  0  0  0
 78 80  1  0  0  0
 78 81  1  0  0  0
 44 47  1  0  0  0
 85 87  1  0  0  0
 85 88  1  0  0  0
  2  5  1  0  0  0
 40 42  1  0  0  0
 40 43  1  0  0  0
  7 10  1  0  0  0
 32 34  1  0  0  0
 32 35  1  0  0  0
 33 36  1  0  0  0
 12 15  1  0  0  0
 25 27  1  0  0  0
 25 28  1  0  0  0
 17 21  1  0  0  0
 60 62  1  0  0  0
 60 63  1  0  0  0
M  END
> <minimizedAffinity>
-8.39183

> <CNNscore>
0.5104156733

> <CNNaffinity>
8.0290384293

> <CNN_VS>
4.0981469154

> <CNNaffinity_variance>
0.3613311052

$$$$
[H]N=C(N([H])[H])C([H])([H])C([H])([H])[C@@]([H])(C(=O)N([H])[C@]([H])(C(=O)N([H])[C@]([H])(C(=O)N([H])[C@]([H])(C(=O)N([H])[C@]([H])(C(=O)N([H])[C@]([H])(C(=O)N([H])[H])C([H])([H])C([H])(C([H])([H])[H])C([H])([H])[H])C([H])([H])C([H])([H])C(=O)N([H])[H])C([H])([H])C([H])([H])C(=O)N([H])[H])C([H])([H])C([H])([H])C(=O)N([H])[H])C([H])([H])C([H])([H])C(=O)N([H])[H])N([H])C(=O)[C@@]([H])(N([H])C(=O)C([H])([H])[H])C([H])([H])C([H])([H])C(=O)N([H])[H]


 88 87  0  0  0  0  0  0  0  0999 V2000
   38.5766   15.0988   -6.0528 C   0  0  0  0  0  0  0  0  0  0  0  0
   37.8607   15.9683   -6.9337 N   0  0  0  0  0  0  0  0  0  0  0  0
   37.0681   15.4220   -7.9782 C   0  0  0  0  0  0  0  0  0  0  0  0
   37.1144   14.1326   -8.0963 O   0  0  0  0  0  0  0  0  0  0  0  0
   37.8915   17.0336   -6.8267 H   0  0  0  0  0  0  0  0  0  0  0  0
   36.2010   16.1072   -8.9213 C   0  0  0  0  0  0  0  0  0  0  0  0
   36.0497   15.4421  -10.1713 N   0  0  0  0  0  0  0  0  0  0  0  0
   36.9613   15.7038  -11.2618 C   0  0  0  0  0  0  0  0  0  0  0  0
   37.8846   16.5145  -11.1146 O   0  0  0  0  0  0  0  0  0  0  0  0
   35.3105   14.7362  -10.3645 H   0  0  0  0  0  0  0  0  0  0  0  0
   36.7724   15.0035  -12.5600 C   0  0  0  0  0  0  0  0  0  0  0  0
   37.8035   14.1557  -13.0537 N   0  0  0  0  0  0  0  0  0  0  0  0
   38.9521   14.4746  -13.7661 C   0  0  0  0  0  0  0  0  0  0  0  0
   39.1063   15.7723  -13.9355 O   0  0  0  0  0  0  0  0  0  0  0  0
   37.6470   13.1024  -12.8587 H   0  0  0  0  0  0  0  0  0  0  0  0
   40.0070   13.7046  -14.3595 C   0  0  0  0  0  0  0  0  0  0  0  0
   39.6589   13.0086  -15.5910 N   0  0  0  0  0  0  0  0  0  0  0  0
   38.7167   11.9803  -15.6410 C   0  0  0  0  0  0  0  0  0  0  0  0
   38.4548   11.3373  -16.9479 C   0  0  0  0  0  0  0  0  0  0  0  0
   38.0900   11.5702  -14.6218 O   0  0  0  0  0  0  0  0  0  0  0  0
   40.1655   13.3099  -16.4463 H   0  0  0  0  0  0  0  0  0  0  0  0
   41.4171   14.0563  -14.3063 C   0  0  0  0  0  0  0  0  0  0  0  0
   42.4565   13.0098  -14.4657 C   0  0  0  0  0  0  0  0  0  0  0  0
   43.1467   13.1777  -15.8074 C   0  0  0  0  0  0  0  0  0  0  0  0
   42.8842   12.3800  -16.8924 N   0  0  0  0  0  0  0  0  0  0  0  0
   43.9948   14.1273  -15.8556 O   0  0  0  0  0  0  0  0  0  0  0  0
   42.0000   11.8162  -16.9545 H   0  0  0  0  0  0  0  0  0  0  0  0
   43.5299   12.2760  -17.7299 H   0  0  0  0  0  0  0  0  0  0  0  0
   35.4037   14.4494  -12.6178 C   0  0  0  0  0  0  0  0  0  0  0  0
   35.2477   13.0375  -13.0288 C   0  0  0  0  0  0  0  0  0  0  0  0
   34.5586   12.8085  -14.3010 C   0  0  0  0  0  0  0  0  0  0  0  0
   33.2285   13.3208  -14.5163 N   0  0  0  0  0  0  0  0  0  0  0  0
   35.0722   12.1339  -15.2513 N   0  0  0  0  0  0  0  0  0  0  0  0
   33.0720   13.8344  -15.4101 H   0  0  0  0  0  0  0  0  0  0  0  0
   32.5118   13.1363  -13.8100 H   0  0  0  0  0  0  0  0  0  0  0  0
   34.5903   11.9726  -16.1463 H   0  0  0  0  0  0  0  0  0  0  0  0
   34.7448   16.1293   -8.2654 C   0  0  0  0  0  0  0  0  0  0  0  0
   33.7093   16.0213   -9.3320 C   0  0  0  0  0  0  0  0  0  0  0  0
   32.3243   16.0747   -8.7919 C   0  0  0  0  0  0  0  0  0  0  0  0
   31.3132   16.5108   -9.6649 N   0  0  0  0  0  0  0  0  0  0  0  0
   32.0657   15.7512   -7.6214 O   0  0  0  0  0  0  0  0  0  0  0  0
   31.2491   16.1354  -10.6155 H   0  0  0  0  0  0  0  0  0  0  0  0
   30.6253   17.2293   -9.3899 H   0  0  0  0  0  0  0  0  0  0  0  0
   37.0427   15.7149   -4.1306 N   0  0  0  0  0  0  0  0  0  0  0  0
   37.9458   14.9015   -4.7231 C   0  0  0  0  0  0  0  0  0  0  0  0
   38.3781   13.8048   -4.1465 O   0  0  0  0  0  0  0  0  0  0  0  0
   36.9446   14.8587   -3.0751 H   0  0  0  0  0  0  0  0  0  0  0  0
   36.1207   16.5415   -3.5211 C   0  0  0  0  0  0  0  0  0  0  0  0
   34.1239   17.9047   -4.4732 N   0  0  0  0  0  0  0  0  0  0  0  0
   35.4506   17.4266   -4.5564 C   0  0  0  0  0  0  0  0  0  0  0  0
   36.1145   17.7502   -5.5560 O   0  0  0  0  0  0  0  0  0  0  0  0
   33.5589   17.6292   -3.6723 H   0  0  0  0  0  0  0  0  0  0  0  0
   33.5389   18.7212   -5.4734 C   0  0  0  0  0  0  0  0  0  0  0  0
   34.3228   20.8731   -6.5350 N   0  0  0  0  0  0  0  0  0  0  0  0
   33.8738   20.2001   -5.3776 C   0  0  0  0  0  0  0  0  0  0  0  0
   33.7377   20.7246   -4.2982 O   0  0  0  0  0  0  0  0  0  0  0  0
   34.4393   20.1480   -7.3740 H   0  0  0  0  0  0  0  0  0  0  0  0
   34.6540   22.1712   -6.8881 C   0  0  0  0  0  0  0  0  0  0  0  0
   34.2938   22.4260   -8.3237 C   0  0  0  0  0  0  0  0  0  0  0  0
   35.2839   22.3652   -9.3084 N   0  0  0  0  0  0  0  0  0  0  0  0
   33.1086   22.6844   -8.6251 O   0  0  0  0  0  0  0  0  0  0  0  0
   35.1553   21.7053  -10.1255 H   0  0  0  0  0  0  0  0  0  0  0  0
   36.1451   22.9420   -9.2383 H   0  0  0  0  0  0  0  0  0  0  0  0
   35.9298   22.8581   -6.6102 C   0  0  0  0  0  0  0  0  0  0  0  0
   36.6073   24.6376   -5.0523 C   0  0  0  0  0  0  0  0  0  0  0  0
   35.8629   24.3423   -6.3701 C   0  0  0  0  0  0  0  0  0  0  0  0
   36.6049   25.1160   -7.4544 C   0  0  0  0  0  0  0  0  0  0  0  0
   31.9932   18.6964   -5.3071 C   0  0  0  0  0  0  0  0  0  0  0  0
   31.3864   19.2117   -6.5777 C   0  0  0  0  0  0  0  0  0  0  0  0
   29.9683   18.8276   -6.7747 C   0  0  0  0  0  0  0  0  0  0  0  0
   28.9447   19.2722   -5.9096 N   0  0  0  0  0  0  0  0  0  0  0  0
   29.6503   18.0957   -7.7223 O   0  0  0  0  0  0  0  0  0  0  0  0
   28.1355   19.8455   -6.2020 H   0  0  0  0  0  0  0  0  0  0  0  0
   28.9968   19.0160   -4.9001 H   0  0  0  0  0  0  0  0  0  0  0  0
   36.7113   17.4858   -2.4920 C   0  0  0  0  0  0  0  0  0  0  0  0
   37.0339   16.8324   -1.1776 C   0  0  0  0  0  0  0  0  0  0  0  0
   36.0543   15.8369   -0.7384 C   0  0  0  0  0  0  0  0  0  0  0  0
   36.3627   14.4535   -0.7568 N   0  0  0  0  0  0  0  0  0  0  0  0
   34.8932   16.1719   -0.3225 O   0  0  0  0  0  0  0  0  0  0  0  0
   36.3193   13.9026    0.1208 H   0  0  0  0  0  0  0  0  0  0  0  0
   36.6329   13.9922   -1.6497 H   0  0  0  0  0  0  0  0  0  0  0  0
   40.0307   15.1348   -6.1726 C   0  0  0  0  0  0  0  0  0  0  0  0
   40.7355   14.3434   -7.2122 C   0  0  0  0  0  0  0  0  0  0  0  0
   42.1212   14.1139   -6.6007 C   0  0  0  0  0  0  0  0  0  0  0  0
   42.3382   13.8997   -5.2429 N   0  0  0  0  0  0  0  0  0  0  0  0
   43.0922   14.1363   -7.4154 O   0  0  0  0  0  0  0  0  0  0  0  0
   42.7043   14.6165   -4.5818 H   0  0  0  0  0  0  0  0  0  0  0  0
   42.1343   12.9430   -4.8407 H   0  0  0  0  0  0  0  0  0  0  0  0
 65 66  1  0  0  0
 66 67  1  0  0  0
 66 64  1  0  0  0
 64 58  1  0  0  0
 58 54  1  0  0  0
 54 55  1  0  0  0
 55 56  2  0  0  0
 55 53  1  0  0  0
 53 68  1  0  0  0
 68 69  1  0  0  0
 69 70  1  0  0  0
 70 71  1  0  0  0
 70 72  2  0  0  0
 53 49  1  0  0  0
 49 50  1  0  0  0
 50 51  2  0  0  0
 50 48  1  0  0  0
 48 75  1  0  0  0
 75 76  1  0  0  0
 76 77  1  0  0  0
 77 78  1  0  0  0
 77 79  2  0  0  0
 48 44  1  0  0  0
 44 45  1  0  0  0
 45 46  2  0  0  0
 45  1  1  0  0  0
  1 82  1  0  0  0
 82 83  1  0  0  0
 83 84  1  0  0  0
 84 85  1  0  0  0
 84 86  2  0  0  0
  1  2  1  0  0  0
  2  3  1  0  0  0
  3  4  2  0  0  0
  3  6  1  0  0  0
  6 37  1  0  0  0
 37 38  1  0  0  0
 38 39  1  0  0  0
 39 40  1  0  0  0
 39 41  2  0  0  0
  6  7  1  0  0  0
  7  8  1  0  0  0
  8  9  2  0  0  0
  8 11  1  0  0  0
 11 29  1  0  0  0
 29 30  1  0  0  0
 30 31  1  0  0  0
 31 32  1  0  0  0
 31 33  2  0  0  0
 11 12  1  0  0  0
 12 13  1  0  0  0
 13 14  2  0  0  0
 13 16  1  0  0  0
 16 22  1  0  0  0
 22 23  1  0  0  0
 23 24  1  0  0  0
 24 25  1  0  0  0
 24 26  2  0  0  0
 16 17  1  0  0  0
 17 18  1  0  0  0
 18 19  1  0  0  0
 18 20  2  0  0  0
 58 59  1  0  0  0
 59 60  1  0  0  0
 59 61  2  0  0  0
 54 57  1  0  0  0
 71 73  1  0  0  0
 71 74  1  0  0  0
 49 52  1  0  0  0
 78 80  1  0  0  0
 78 81  1  0  0  0
 44 47  1  0  0  0
 85 87  1  0  0  0
 85 88  1  0  0  0
  2  5  1  0  0  0
 40 42  1  0  0  0
 40 43  1  0  0  0
  7 10  1  0  0  0
 32 34  1  0  0  0
 32 35  1  0  0  0
 33 36  1  0  0  0
 12 15  1  0  0  0
 25 27  1  0  0  0
 25 28  1  0  0  0
 17 21  1  0  0  0
 60 62  1  0  0  0
 60 63  1  0  0  0
M  END
> <minimizedAffinity>
-7.56412

> <CNNscore>
0.3696708679

> <CNNaffinity>
7.7044601440

> <CNN_VS>
2.8481144905

> <CNNaffinity_variance>
0.4515387416

$$$$
[H]N=C(N([H])[H])C([H])([H])C([H])([H])[C@@]([H])(C(=O)N([H])[C@]([H])(C(=O)N([H])[C@]([H])(C(=O)N([H])[C@]([H])(C(=O)N([H])[C@]([H])(C(=O)N([H])[C@]([H])(C(=O)N([H])[H])C([H])([H])C([H])(C([H])([H])[H])C([H])([H])[H])C([H])([H])C([H])([H])C(=O)N([H])[H])C([H])([H])C([H])([H])C(=O)N([H])[H])C([H])([H])C([H])([H])C(=O)N([H])[H])C([H])([H])C([H])([H])C(=O)N([H])[H])N([H])C(=O)[C@@]([H])(N([H])C(=O)C([H])([H])[H])C([H])([H])C([H])([H])C(=O)N([H])[H]


 88 87  0  0  0  0  0  0  0  0999 V2000
   36.4902   15.5210  -10.0903 C   0  0  0  0  0  0  0  0  0  0  0  0
   35.3997   15.0585   -9.2893 N   0  0  0  0  0  0  0  0  0  0  0  0
   34.6684   15.9774   -8.4902 C   0  0  0  0  0  0  0  0  0  0  0  0
   35.1089   17.1958   -8.4984 O   0  0  0  0  0  0  0  0  0  0  0  0
   35.1017   14.0297   -9.2778 H   0  0  0  0  0  0  0  0  0  0  0  0
   33.4864   15.7435   -7.6786 C   0  0  0  0  0  0  0  0  0  0  0  0
   33.2269   16.7564   -6.7119 N   0  0  0  0  0  0  0  0  0  0  0  0
   33.6860   16.6114   -5.3493 C   0  0  0  0  0  0  0  0  0  0  0  0
   34.3108   15.5978   -5.0121 O   0  0  0  0  0  0  0  0  0  0  0  0
   32.7247   17.6424   -6.9239 H   0  0  0  0  0  0  0  0  0  0  0  0
   33.3906   17.6798   -4.3580 C   0  0  0  0  0  0  0  0  0  0  0  0
   32.9566   18.9562   -4.8141 N   0  0  0  0  0  0  0  0  0  0  0  0
   33.3794   20.2251   -4.4405 C   0  0  0  0  0  0  0  0  0  0  0  0
   34.3764   20.2001   -3.5794 O   0  0  0  0  0  0  0  0  0  0  0  0
   32.1598   18.9213   -5.5462 H   0  0  0  0  0  0  0  0  0  0  0  0
   32.9704   21.5568   -4.7831 C   0  0  0  0  0  0  0  0  0  0  0  0
   33.9903   22.5853   -4.6285 N   0  0  0  0  0  0  0  0  0  0  0  0
   33.8687   23.6451   -3.7286 C   0  0  0  0  0  0  0  0  0  0  0  0
   34.9643   24.6382   -3.6685 C   0  0  0  0  0  0  0  0  0  0  0  0
   32.8640   23.7976   -2.9758 O   0  0  0  0  0  0  0  0  0  0  0  0
   34.8240   22.4997   -5.2422 H   0  0  0  0  0  0  0  0  0  0  0  0
   32.0134   21.8839   -5.8282 C   0  0  0  0  0  0  0  0  0  0  0  0
   32.2782   21.4941   -7.2349 C   0  0  0  0  0  0  0  0  0  0  0  0
   33.4597   22.2840   -7.7684 C   0  0  0  0  0  0  0  0  0  0  0  0
   34.5643   21.6960   -8.3311 N   0  0  0  0  0  0  0  0  0  0  0  0
   33.3490   23.5486   -7.6587 O   0  0  0  0  0  0  0  0  0  0  0  0
   34.5330   20.7106   -8.6941 H   0  0  0  0  0  0  0  0  0  0  0  0
   35.5058   22.1752   -8.4450 H   0  0  0  0  0  0  0  0  0  0  0  0
   32.6191   17.1024   -3.2377 C   0  0  0  0  0  0  0  0  0  0  0  0
   33.2424   17.1055   -1.8967 C   0  0  0  0  0  0  0  0  0  0  0  0
   33.4927   15.7918   -1.2989 C   0  0  0  0  0  0  0  0  0  0  0  0
   34.4161   14.8711   -1.9135 N   0  0  0  0  0  0  0  0  0  0  0  0
   32.8990   15.3890   -0.2466 N   0  0  0  0  0  0  0  0  0  0  0  0
   35.1211   14.4350   -1.2810 H   0  0  0  0  0  0  0  0  0  0  0  0
   34.3197   14.6739   -2.9127 H   0  0  0  0  0  0  0  0  0  0  0  0
   33.0740   14.4670    0.1756 H   0  0  0  0  0  0  0  0  0  0  0  0
   32.2388   15.7691   -8.6757 C   0  0  0  0  0  0  0  0  0  0  0  0
   31.1876   14.8293   -8.1930 C   0  0  0  0  0  0  0  0  0  0  0  0
   30.1797   14.5120   -9.2399 C   0  0  0  0  0  0  0  0  0  0  0  0
   28.8299   14.7315   -8.9164 N   0  0  0  0  0  0  0  0  0  0  0  0
   30.5090   14.0707  -10.3527 O   0  0  0  0  0  0  0  0  0  0  0  0
   28.5367   15.6077   -8.4748 H   0  0  0  0  0  0  0  0  0  0  0  0
   28.1031   14.0196   -9.0894 H   0  0  0  0  0  0  0  0  0  0  0  0
   36.1068   14.3840  -12.3235 N   0  0  0  0  0  0  0  0  0  0  0  0
   36.2463   15.4874  -11.5546 C   0  0  0  0  0  0  0  0  0  0  0  0
   36.1814   16.6981  -12.0567 O   0  0  0  0  0  0  0  0  0  0  0  0
   35.8723   15.1606  -13.4183 H   0  0  0  0  0  0  0  0  0  0  0  0
   35.9637   13.2611  -13.1132 C   0  0  0  0  0  0  0  0  0  0  0  0
   38.2468   13.5638  -14.3163 N   0  0  0  0  0  0  0  0  0  0  0  0
   37.3236   12.7815  -13.5874 C   0  0  0  0  0  0  0  0  0  0  0  0
   37.6482   11.6116  -13.3217 O   0  0  0  0  0  0  0  0  0  0  0  0
   37.9864   14.5167  -14.5626 H   0  0  0  0  0  0  0  0  0  0  0  0
   39.5022   13.0658  -14.7469 C   0  0  0  0  0  0  0  0  0  0  0  0
   41.9919   13.3915  -14.4864 N   0  0  0  0  0  0  0  0  0  0  0  0
   40.6951   13.9457  -14.4131 C   0  0  0  0  0  0  0  0  0  0  0  0
   40.4628   15.0876  -14.0957 O   0  0  0  0  0  0  0  0  0  0  0  0
   41.9265   12.3035  -14.7211 H   0  0  0  0  0  0  0  0  0  0  0  0
   43.2949   13.8389  -14.3398 C   0  0  0  0  0  0  0  0  0  0  0  0
   44.1397   13.3592  -15.4851 C   0  0  0  0  0  0  0  0  0  0  0  0
   43.5286   12.8020  -16.6119 N   0  0  0  0  0  0  0  0  0  0  0  0
   45.3832   13.4687  -15.4219 O   0  0  0  0  0  0  0  0  0  0  0  0
   43.7233   13.2237  -17.5627 H   0  0  0  0  0  0  0  0  0  0  0  0
   42.8770   11.9975  -16.5251 H   0  0  0  0  0  0  0  0  0  0  0  0
   44.1123   13.7747  -13.1133 C   0  0  0  0  0  0  0  0  0  0  0  0
   44.7888   14.6298  -10.9078 C   0  0  0  0  0  0  0  0  0  0  0  0
   43.6475   14.6010  -11.9444 C   0  0  0  0  0  0  0  0  0  0  0  0
   43.4092   16.0520  -12.3477 C   0  0  0  0  0  0  0  0  0  0  0  0
   39.5217   13.0171  -16.3008 C   0  0  0  0  0  0  0  0  0  0  0  0
   39.6101   11.5785  -16.7140 C   0  0  0  0  0  0  0  0  0  0  0  0
   39.8091   11.3740  -18.1686 C   0  0  0  0  0  0  0  0  0  0  0  0
   38.7825   10.8802  -19.0029 N   0  0  0  0  0  0  0  0  0  0  0  0
   40.9019   11.6398  -18.6881 O   0  0  0  0  0  0  0  0  0  0  0  0
   38.3810   11.3916  -19.8067 H   0  0  0  0  0  0  0  0  0  0  0  0
   38.3876    9.9356  -18.8043 H   0  0  0  0  0  0  0  0  0  0  0  0
   35.1431   13.4804  -14.3695 C   0  0  0  0  0  0  0  0  0  0  0  0
   35.4527   12.5137  -15.4777 C   0  0  0  0  0  0  0  0  0  0  0  0
   34.3980   11.5326  -15.7392 C   0  0  0  0  0  0  0  0  0  0  0  0
   34.3725   10.7948  -16.9494 N   0  0  0  0  0  0  0  0  0  0  0  0
   33.4676   11.3019  -14.8939 O   0  0  0  0  0  0  0  0  0  0  0  0
   34.4044    9.7586  -16.9238 H   0  0  0  0  0  0  0  0  0  0  0  0
   34.3226   11.2930  -17.8617 H   0  0  0  0  0  0  0  0  0  0  0  0
   37.8232   15.2410   -9.5659 C   0  0  0  0  0  0  0  0  0  0  0  0
   38.7476   16.3405   -9.1912 C   0  0  0  0  0  0  0  0  0  0  0  0
   39.8830   16.2086  -10.2112 C   0  0  0  0  0  0  0  0  0  0  0  0
   39.7453   16.5160  -11.5614 N   0  0  0  0  0  0  0  0  0  0  0  0
   40.9870   15.7860   -9.7533 O   0  0  0  0  0  0  0  0  0  0  0  0
   39.6391   15.8112  -12.3209 H   0  0  0  0  0  0  0  0  0  0  0  0
   39.7606   17.5319  -11.8552 H   0  0  0  0  0  0  0  0  0  0  0  0
 65 66  1  0  0  0
 66 67  1  0  0  0
 66 64  1  0  0  0
 64 58  1  0  0  0
 58 54  1  0  0  0
 54 55  1  0  0  0
 55 56  2  0  0  0
 55 53  1  0  0  0
 53 68  1  0  0  0
 68 69  1  0  0  0
 69 70  1  0  0  0
 70 71  1  0  0  0
 70 72  2  0  0  0
 53 49  1  0  0  0
 49 50  1  0  0  0
 50 51  2  0  0  0
 50 48  1  0  0  0
 48 75  1  0  0  0
 75 76  1  0  0  0
 76 77  1  0  0  0
 77 78  1  0  0  0
 77 79  2  0  0  0
 48 44  1  0  0  0
 44 45  1  0  0  0
 45 46  2  0  0  0
 45  1  1  0  0  0
  1 82  1  0  0  0
 82 83  1  0  0  0
 83 84  1  0  0  0
 84 85  1  0  0  0
 84 86  2  0  0  0
  1  2  1  0  0  0
  2  3  1  0  0  0
  3  4  2  0  0  0
  3  6  1  0  0  0
  6 37  1  0  0  0
 37 38  1  0  0  0
 38 39  1  0  0  0
 39 40  1  0  0  0
 39 41  2  0  0  0
  6  7  1  0  0  0
  7  8  1  0  0  0
  8  9  2  0  0  0
  8 11  1  0  0  0
 11 29  1  0  0  0
 29 30  1  0  0  0
 30 31  1  0  0  0
 31 32  1  0  0  0
 31 33  2  0  0  0
 11 12  1  0  0  0
 12 13  1  0  0  0
 13 14  2  0  0  0
 13 16  1  0  0  0
 16 22  1  0  0  0
 22 23  1  0  0  0
 23 24  1  0  0  0
 24 25  1  0  0  0
 24 26  2  0  0  0
 16 17  1  0  0  0
 17 18  1  0  0  0
 18 19  1  0  0  0
 18 20  2  0  0  0
 58 59  1  0  0  0
 59 60  1  0  0  0
 59 61  2  0  0  0
 54 57  1  0  0  0
 71 73  1  0  0  0
 71 74  1  0  0  0
 49 52  1  0  0  0
 78 80  1  0  0  0
 78 81  1  0  0  0
 44 47  1  0  0  0
 85 87  1  0  0  0
 85 88  1  0  0  0
  2  5  1  0  0  0
 40 42  1  0  0  0
 40 43  1  0  0  0
  7 10  1  0  0  0
 32 34  1  0  0  0
 32 35  1  0  0  0
 33 36  1  0  0  0
 12 15  1  0  0  0
 25 27  1  0  0  0
 25 28  1  0  0  0
 17 21  1  0  0  0
 60 62  1  0  0  0
 60 63  1  0  0  0
M  END
> <minimizedAffinity>
-7.88932

> <CNNscore>
0.2376026660

> <CNNaffinity>
7.5394911766

> <CNN_VS>
1.7914031744

> <CNNaffinity_variance>
0.2309463918

$$$$
[H]N=C(N([H])[H])C([H])([H])C([H])([H])[C@@]([H])(C(=O)N([H])[C@]([H])(C(=O)N([H])[C@]([H])(C(=O)N([H])[C@]([H])(C(=O)N([H])[C@]([H])(C(=O)N([H])[C@]([H])(C(=O)N([H])[H])C([H])([H])C([H])(C([H])([H])[H])C([H])([H])[H])C([H])([H])C([H])([H])C(=O)N([H])[H])C([H])([H])C([H])([H])C(=O)N([H])[H])C([H])([H])C([H])([H])C(=O)N([H])[H])C([H])([H])C([H])([H])C(=O)N([H])[H])N([H])C(=O)[C@@]([H])(N([H])C(=O)C([H])([H])[H])C([H])([H])C([H])([H])C(=O)N([H])[H]


 88 87  0  0  0  0  0  0  0  0999 V2000
   37.1906   14.5545   -6.5838 C   0  0  0  0  0  0  0  0  0  0  0  0
   37.8008   15.1120   -7.7506 N   0  0  0  0  0  0  0  0  0  0  0  0
   37.1856   14.9452   -9.0199 C   0  0  0  0  0  0  0  0  0  0  0  0
   36.1161   14.2141   -9.0285 O   0  0  0  0  0  0  0  0  0  0  0  0
   38.7141   15.6697   -7.7006 H   0  0  0  0  0  0  0  0  0  0  0  0
   37.5805   15.4938  -10.3059 C   0  0  0  0  0  0  0  0  0  0  0  0
   37.3832   14.6123  -11.4068 N   0  0  0  0  0  0  0  0  0  0  0  0
   38.2017   14.7182  -12.5931 C   0  0  0  0  0  0  0  0  0  0  0  0
   39.0845   15.5830  -12.6598 O   0  0  0  0  0  0  0  0  0  0  0  0
   36.6746   13.8508  -11.4175 H   0  0  0  0  0  0  0  0  0  0  0  0
   37.9658   13.7920  -13.7324 C   0  0  0  0  0  0  0  0  0  0  0  0
   39.0619   13.0746  -14.2887 N   0  0  0  0  0  0  0  0  0  0  0  0
   40.0131   13.4819  -15.2149 C   0  0  0  0  0  0  0  0  0  0  0  0
   39.8853   14.7478  -15.5577 O   0  0  0  0  0  0  0  0  0  0  0  0
   39.1433   12.0499  -13.9489 H   0  0  0  0  0  0  0  0  0  0  0  0
   41.1028   12.8298  -15.8821 C   0  0  0  0  0  0  0  0  0  0  0  0
   40.8608   12.4683  -17.2723 N   0  0  0  0  0  0  0  0  0  0  0  0
   39.8727   11.5620  -17.6597 C   0  0  0  0  0  0  0  0  0  0  0  0
   39.7281   11.2620  -19.1016 C   0  0  0  0  0  0  0  0  0  0  0  0
   39.1088   10.9821  -16.8353 O   0  0  0  0  0  0  0  0  0  0  0  0
   41.4804   12.9150  -17.9763 H   0  0  0  0  0  0  0  0  0  0  0  0
   42.5088   13.0926  -15.6188 C   0  0  0  0  0  0  0  0  0  0  0  0
   43.5602   12.3300  -16.3357 C   0  0  0  0  0  0  0  0  0  0  0  0
   44.9001   13.0218  -16.1601 C   0  0  0  0  0  0  0  0  0  0  0  0
   45.0515   14.2057  -15.4835 N   0  0  0  0  0  0  0  0  0  0  0  0
   45.8872   12.4142  -16.6891 O   0  0  0  0  0  0  0  0  0  0  0  0
   44.3240   14.5440  -14.8052 H   0  0  0  0  0  0  0  0  0  0  0  0
   45.8900   14.8507  -15.5845 H   0  0  0  0  0  0  0  0  0  0  0  0
   36.7475   12.9985  -13.4683 C   0  0  0  0  0  0  0  0  0  0  0  0
   35.5117   13.3708  -14.1900 C   0  0  0  0  0  0  0  0  0  0  0  0
   34.3602   13.7252  -13.3567 C   0  0  0  0  0  0  0  0  0  0  0  0
   33.0238   13.6774  -13.8952 N   0  0  0  0  0  0  0  0  0  0  0  0
   34.4767   14.1156  -12.1501 N   0  0  0  0  0  0  0  0  0  0  0  0
   32.3115   13.1829  -13.3162 H   0  0  0  0  0  0  0  0  0  0  0  0
   32.8374   14.1441  -14.7863 H   0  0  0  0  0  0  0  0  0  0  0  0
   33.6691   14.3641  -11.5626 H   0  0  0  0  0  0  0  0  0  0  0  0
   36.6253   16.7446  -10.5784 C   0  0  0  0  0  0  0  0  0  0  0  0
   36.5054   17.5670   -9.3412 C   0  0  0  0  0  0  0  0  0  0  0  0
   37.6406   18.5132   -9.1713 C   0  0  0  0  0  0  0  0  0  0  0  0
   38.1960   18.6221   -7.8850 N   0  0  0  0  0  0  0  0  0  0  0  0
   38.0824   19.1819  -10.1195 O   0  0  0  0  0  0  0  0  0  0  0  0
   38.4225   17.7831   -7.3434 H   0  0  0  0  0  0  0  0  0  0  0  0
   38.3710   19.5369   -7.4404 H   0  0  0  0  0  0  0  0  0  0  0  0
   35.0707   15.1464   -5.3257 N   0  0  0  0  0  0  0  0  0  0  0  0
   36.2677   15.4693   -5.8653 C   0  0  0  0  0  0  0  0  0  0  0  0
   36.7512   16.6879   -5.8072 O   0  0  0  0  0  0  0  0  0  0  0  0
   34.9273   16.4159   -4.8518 H   0  0  0  0  0  0  0  0  0  0  0  0
   33.8482   14.8225   -4.7730 C   0  0  0  0  0  0  0  0  0  0  0  0
   31.8363   16.4468   -5.0298 N   0  0  0  0  0  0  0  0  0  0  0  0
   32.7305   15.4879   -5.5556 C   0  0  0  0  0  0  0  0  0  0  0  0
   32.5852   15.1611   -6.7458 O   0  0  0  0  0  0  0  0  0  0  0  0
   31.9269   16.7078   -4.0498 H   0  0  0  0  0  0  0  0  0  0  0  0
   30.7999   17.0322   -5.7995 C   0  0  0  0  0  0  0  0  0  0  0  0
   29.7832   14.9246   -6.7466 N   0  0  0  0  0  0  0  0  0  0  0  0
   29.5969   16.1383   -6.0491 C   0  0  0  0  0  0  0  0  0  0  0  0
   28.5309   16.5241   -5.6325 O   0  0  0  0  0  0  0  0  0  0  0  0
   30.8403   14.8441   -7.0917 H   0  0  0  0  0  0  0  0  0  0  0  0
   29.0081   13.8351   -7.1097 C   0  0  0  0  0  0  0  0  0  0  0  0
   29.8509   12.5932   -7.1607 C   0  0  0  0  0  0  0  0  0  0  0  0
   31.0751   12.6131   -7.8349 N   0  0  0  0  0  0  0  0  0  0  0  0
   29.4513   11.5535   -6.5934 O   0  0  0  0  0  0  0  0  0  0  0  0
   31.9537   12.3415   -7.3115 H   0  0  0  0  0  0  0  0  0  0  0  0
   31.1339   12.9063   -8.8298 H   0  0  0  0  0  0  0  0  0  0  0  0
   28.0435   13.7767   -8.2245 C   0  0  0  0  0  0  0  0  0  0  0  0
   25.7946   14.0444   -9.1855 C   0  0  0  0  0  0  0  0  0  0  0  0
   26.5874   13.9126   -7.8694 C   0  0  0  0  0  0  0  0  0  0  0  0
   26.0611   12.6553   -7.1859 C   0  0  0  0  0  0  0  0  0  0  0  0
   31.3325   17.3175   -7.2322 C   0  0  0  0  0  0  0  0  0  0  0  0
   30.3937   18.2863   -7.8865 C   0  0  0  0  0  0  0  0  0  0  0  0
   30.4066   19.6435   -7.2905 C   0  0  0  0  0  0  0  0  0  0  0  0
   31.5789   20.4289   -7.2413 N   0  0  0  0  0  0  0  0  0  0  0  0
   29.3668   20.1222   -6.8168 O   0  0  0  0  0  0  0  0  0  0  0  0
   31.6875   21.3522   -7.6937 H   0  0  0  0  0  0  0  0  0  0  0  0
   32.4042   20.0634   -6.7191 H   0  0  0  0  0  0  0  0  0  0  0  0
   33.6715   15.2752   -3.3366 C   0  0  0  0  0  0  0  0  0  0  0  0
   34.8887   15.9327   -2.7493 C   0  0  0  0  0  0  0  0  0  0  0  0
   35.1432   15.5962   -1.3475 C   0  0  0  0  0  0  0  0  0  0  0  0
   36.1243   14.6357   -0.9950 N   0  0  0  0  0  0  0  0  0  0  0  0
   34.4988   16.1512   -0.3934 O   0  0  0  0  0  0  0  0  0  0  0  0
   36.9125   14.9048   -0.3770 H   0  0  0  0  0  0  0  0  0  0  0  0
   36.0536   13.6625   -1.3567 H   0  0  0  0  0  0  0  0  0  0  0  0
   38.0087   13.6064   -5.8340 C   0  0  0  0  0  0  0  0  0  0  0  0
   39.1649   14.0635   -5.0228 C   0  0  0  0  0  0  0  0  0  0  0  0
   40.3733   13.5474   -5.8104 C   0  0  0  0  0  0  0  0  0  0  0  0
   41.0553   12.3761   -5.4950 N   0  0  0  0  0  0  0  0  0  0  0  0
   40.7383   14.2648   -6.7897 O   0  0  0  0  0  0  0  0  0  0  0  0
   41.9753   12.3398   -5.0080 H   0  0  0  0  0  0  0  0  0  0  0  0
   40.6291   11.4493   -5.7742 H   0  0  0  0  0  0  0  0  0  0  0  0
 65 66  1  0  0  0
 66 67  1  0  0  0
 66 64  1  0  0  0
 64 58  1  0  0  0
 58 54  1  0  0  0
 54 55  1  0  0  0
 55 56  2  0  0  0
 55 53  1  0  0  0
 53 68  1  0  0  0
 68 69  1  0  0  0
 69 70  1  0  0  0
 70 71  1  0  0  0
 70 72  2  0  0  0
 53 49  1  0  0  0
 49 50  1  0  0  0
 50 51  2  0  0  0
 50 48  1  0  0  0
 48 75  1  0  0  0
 75 76  1  0  0  0
 76 77  1  0  0  0
 77 78  1  0  0  0
 77 79  2  0  0  0
 48 44  1  0  0  0
 44 45  1  0  0  0
 45 46  2  0  0  0
 45  1  1  0  0  0
  1 82  1  0  0  0
 82 83  1  0  0  0
 83 84  1  0  0  0
 84 85  1  0  0  0
 84 86  2  0  0  0
  1  2  1  0  0  0
  2  3  1  0  0  0
  3  4  2  0  0  0
  3  6  1  0  0  0
  6 37  1  0  0  0
 37 38  1  0  0  0
 38 39  1  0  0  0
 39 40  1  0  0  0
 39 41  2  0  0  0
  6  7  1  0  0  0
  7  8  1  0  0  0
  8  9  2  0  0  0
  8 11  1  0  0  0
 11 29  1  0  0  0
 29 30  1  0  0  0
 30 31  1  0  0  0
 31 32  1  0  0  0
 31 33  2  0  0  0
 11 12  1  0  0  0
 12 13  1  0  0  0
 13 14  2  0  0  0
 13 16  1  0  0  0
 16 22  1  0  0  0
 22 23  1  0  0  0
 23 24  1  0  0  0
 24 25  1  0  0  0
 24 26  2  0  0  0
 16 17  1  0  0  0
 17 18  1  0  0  0
 18 19  1  0  0  0
 18 20  2  0  0  0
 58 59  1  0  0  0
 59 60  1  0  0  0
 59 61  2  0  0  0
 54 57  1  0  0  0
 71 73  1  0  0  0
 71 74  1  0  0  0
 49 52  1  0  0  0
 78 80  1  0  0  0
 78 81  1  0  0  0
 44 47  1  0  0  0
 85 87  1  0  0  0
 85 88  1  0  0  0
  2  5  1  0  0  0
 40 42  1  0  0  0
 40 43  1  0  0  0
  7 10  1  0  0  0
 32 34  1  0  0  0
 32 35  1  0  0  0
 33 36  1  0  0  0
 12 15  1  0  0  0
 25 27  1  0  0  0
 25 28  1  0  0  0
 17 21  1  0  0  0
 60 62  1  0  0  0
 60 63  1  0  0  0
M  END
> <minimizedAffinity>
-8.29085

> <CNNscore>
0.2197669595

> <CNNaffinity>
7.2453737259

> <CNN_VS>
1.5922937393

> <CNNaffinity_variance>
0.5426056981

$$$$
[H]N=C(N([H])[H])C([H])([H])C([H])([H])[C@@]([H])(C(=O)N([H])[C@]([H])(C(=O)N([H])[C@]([H])(C(=O)N([H])[C@]([H])(C(=O)N([H])[C@]([H])(C(=O)N([H])[C@]([H])(C(=O)N([H])[H])C([H])([H])C([H])(C([H])([H])[H])C([H])([H])[H])C([H])([H])C([H])([H])C(=O)N([H])[H])C([H])([H])C([H])([H])C(=O)N([H])[H])C([H])([H])C([H])([H])C(=O)N([H])[H])C([H])([H])C([H])([H])C(=O)N([H])[H])N([H])C(=O)[C@@]([H])(N([H])C(=O)C([H])([H])[H])C([H])([H])C([H])([H])C(=O)N([H])[H]


 88 87  0  0  0  0  0  0  0  0999 V2000
   38.9512   15.7028   -5.7631 C   0  0  0  0  0  0  0  0  0  0  0  0
   38.3908   16.4724   -6.8300 N   0  0  0  0  0  0  0  0  0  0  0  0
   39.1817   16.7883   -7.9668 C   0  0  0  0  0  0  0  0  0  0  0  0
   40.4158   16.3977   -7.9124 O   0  0  0  0  0  0  0  0  0  0  0  0
   37.3764   16.8159   -6.8085 H   0  0  0  0  0  0  0  0  0  0  0  0
   38.7943   17.4740   -9.1875 C   0  0  0  0  0  0  0  0  0  0  0  0
   37.9020   16.7375  -10.0179 N   0  0  0  0  0  0  0  0  0  0  0  0
   38.4076   15.8176  -11.0112 C   0  0  0  0  0  0  0  0  0  0  0  0
   39.6280   15.6646  -11.1477 O   0  0  0  0  0  0  0  0  0  0  0  0
   36.8659   16.7993   -9.9502 H   0  0  0  0  0  0  0  0  0  0  0  0
   37.4529   15.0704  -11.8725 C   0  0  0  0  0  0  0  0  0  0  0  0
   37.9321   14.0075  -12.6887 N   0  0  0  0  0  0  0  0  0  0  0  0
   38.6180   14.0526  -13.8954 C   0  0  0  0  0  0  0  0  0  0  0  0
   38.9044   15.2810  -14.2764 O   0  0  0  0  0  0  0  0  0  0  0  0
   37.7012   13.0183  -12.3145 H   0  0  0  0  0  0  0  0  0  0  0  0
   39.0825   13.0585  -14.8195 C   0  0  0  0  0  0  0  0  0  0  0  0
   40.5285   12.8973  -14.8926 N   0  0  0  0  0  0  0  0  0  0  0  0
   41.2608   13.1375  -16.0562 C   0  0  0  0  0  0  0  0  0  0  0  0
   42.7250   12.9269  -16.0146 C   0  0  0  0  0  0  0  0  0  0  0  0
   40.7282   13.5140  -17.1397 O   0  0  0  0  0  0  0  0  0  0  0  0
   40.9979   12.5746  -14.0240 H   0  0  0  0  0  0  0  0  0  0  0  0
   38.3752   11.8270  -15.1327 C   0  0  0  0  0  0  0  0  0  0  0  0
   37.6864   11.6700  -16.4372 C   0  0  0  0  0  0  0  0  0  0  0  0
   36.1849   11.6252  -16.2181 C   0  0  0  0  0  0  0  0  0  0  0  0
   35.5541   12.2923  -15.1985 N   0  0  0  0  0  0  0  0  0  0  0  0
   35.5437   10.9183  -17.0622 O   0  0  0  0  0  0  0  0  0  0  0  0
   36.0166   13.0947  -14.7026 H   0  0  0  0  0  0  0  0  0  0  0  0
   34.5792   12.0617  -14.8443 H   0  0  0  0  0  0  0  0  0  0  0  0
   36.2256   14.7837  -11.1011 C   0  0  0  0  0  0  0  0  0  0  0  0
   34.9896   15.5024  -11.4788 C   0  0  0  0  0  0  0  0  0  0  0  0
   34.0429   14.7613  -12.3157 C   0  0  0  0  0  0  0  0  0  0  0  0
   32.7797   15.3475  -12.6882 N   0  0  0  0  0  0  0  0  0  0  0  0
   34.2654   13.5755  -12.7237 N   0  0  0  0  0  0  0  0  0  0  0  0
   32.5257   15.2909  -13.6978 H   0  0  0  0  0  0  0  0  0  0  0  0
   32.1945   15.7572  -11.9559 H   0  0  0  0  0  0  0  0  0  0  0  0
   33.6022   13.0534  -13.3125 H   0  0  0  0  0  0  0  0  0  0  0  0
   37.9889   18.7785   -8.7394 C   0  0  0  0  0  0  0  0  0  0  0  0
   36.6889   18.3833   -8.1270 C   0  0  0  0  0  0  0  0  0  0  0  0
   36.1149   19.4510   -7.2648 C   0  0  0  0  0  0  0  0  0  0  0  0
   34.8992   20.0223   -7.6773 N   0  0  0  0  0  0  0  0  0  0  0  0
   36.6805   19.8271   -6.2255 O   0  0  0  0  0  0  0  0  0  0  0  0
   34.1203   19.4285   -7.9762 H   0  0  0  0  0  0  0  0  0  0  0  0
   34.7594   21.0442   -7.7138 H   0  0  0  0  0  0  0  0  0  0  0  0
   37.1865   13.8902   -5.5977 N   0  0  0  0  0  0  0  0  0  0  0  0
   38.4720   14.2994   -5.6883 C   0  0  0  0  0  0  0  0  0  0  0  0
   39.4722   13.4503   -5.7146 O   0  0  0  0  0  0  0  0  0  0  0  0
   37.5845   12.5877   -5.6388 H   0  0  0  0  0  0  0  0  0  0  0  0
   35.8761   13.4669   -5.5051 C   0  0  0  0  0  0  0  0  0  0  0  0
   34.0877   15.3374   -5.2714 N   0  0  0  0  0  0  0  0  0  0  0  0
   34.9448   14.5324   -6.0543 C   0  0  0  0  0  0  0  0  0  0  0  0
   34.9284   14.7064   -7.2847 O   0  0  0  0  0  0  0  0  0  0  0  0
   34.0717   15.1910   -4.2640 H   0  0  0  0  0  0  0  0  0  0  0  0
   33.2269   16.3133   -5.8335 C   0  0  0  0  0  0  0  0  0  0  0  0
   33.2891   17.6841   -3.7147 N   0  0  0  0  0  0  0  0  0  0  0  0
   33.2245   17.6574   -5.1252 C   0  0  0  0  0  0  0  0  0  0  0  0
   33.1634   18.6436   -5.8198 O   0  0  0  0  0  0  0  0  0  0  0  0
   33.2544   16.6444   -3.3138 H   0  0  0  0  0  0  0  0  0  0  0  0
   33.3768   18.6470   -2.7223 C   0  0  0  0  0  0  0  0  0  0  0  0
   33.1431   18.0258   -1.3751 C   0  0  0  0  0  0  0  0  0  0  0  0
   34.2232   17.5132   -0.6511 N   0  0  0  0  0  0  0  0  0  0  0  0
   31.9836   17.9788   -0.9109 O   0  0  0  0  0  0  0  0  0  0  0  0
   34.4034   17.8746    0.3270 H   0  0  0  0  0  0  0  0  0  0  0  0
   34.8562   16.8012   -1.0655 H   0  0  0  0  0  0  0  0  0  0  0  0
   32.7344   19.9751   -2.7287 C   0  0  0  0  0  0  0  0  0  0  0  0
   34.2248   21.4578   -4.0067 C   0  0  0  0  0  0  0  0  0  0  0  0
   33.6430   21.1688   -2.6082 C   0  0  0  0  0  0  0  0  0  0  0  0
   32.8688   22.4200   -2.2082 C   0  0  0  0  0  0  0  0  0  0  0  0
   31.7550   15.8339   -5.6886 C   0  0  0  0  0  0  0  0  0  0  0  0
   31.3693   15.1440   -6.9628 C   0  0  0  0  0  0  0  0  0  0  0  0
   31.3799   13.6640   -6.8811 C   0  0  0  0  0  0  0  0  0  0  0  0
   30.9165   12.8520   -7.9392 N   0  0  0  0  0  0  0  0  0  0  0  0
   31.8058   13.1026   -5.8622 O   0  0  0  0  0  0  0  0  0  0  0  0
   31.4949   12.1626   -8.4482 H   0  0  0  0  0  0  0  0  0  0  0  0
   29.9234   12.9458   -8.2436 H   0  0  0  0  0  0  0  0  0  0  0  0
   35.4044   13.1975   -4.0893 C   0  0  0  0  0  0  0  0  0  0  0  0
   36.3571   13.6709   -3.0277 C   0  0  0  0  0  0  0  0  0  0  0  0
   35.7490   14.5198   -2.0017 C   0  0  0  0  0  0  0  0  0  0  0  0
   36.3439   14.6568   -0.7223 N   0  0  0  0  0  0  0  0  0  0  0  0
   34.6684   15.1677   -2.2166 O   0  0  0  0  0  0  0  0  0  0  0  0
   36.6246   15.5948   -0.3805 H   0  0  0  0  0  0  0  0  0  0  0  0
   36.4991   13.8168   -0.1278 H   0  0  0  0  0  0  0  0  0  0  0  0
   39.2449   16.4399   -4.5381 C   0  0  0  0  0  0  0  0  0  0  0  0
   38.7225   17.8129   -4.3241 C   0  0  0  0  0  0  0  0  0  0  0  0
   37.4296   17.5787   -3.5364 C   0  0  0  0  0  0  0  0  0  0  0  0
   37.3151   17.7846   -2.1649 N   0  0  0  0  0  0  0  0  0  0  0  0
   36.4397   17.1687   -4.2139 O   0  0  0  0  0  0  0  0  0  0  0  0
   37.3096   17.0261   -1.4511 H   0  0  0  0  0  0  0  0  0  0  0  0
   37.2125   18.7744   -1.8067 H   0  0  0  0  0  0  0  0  0  0  0  0
 65 66  1  0  0  0
 66 67  1  0  0  0
 66 64  1  0  0  0
 64 58  1  0  0  0
 58 54  1  0  0  0
 54 55  1  0  0  0
 55 56  2  0  0  0
 55 53  1  0  0  0
 53 68  1  0  0  0
 68 69  1  0  0  0
 69 70  1  0  0  0
 70 71  1  0  0  0
 70 72  2  0  0  0
 53 49  1  0  0  0
 49 50  1  0  0  0
 50 51  2  0  0  0
 50 48  1  0  0  0
 48 75  1  0  0  0
 75 76  1  0  0  0
 76 77  1  0  0  0
 77 78  1  0  0  0
 77 79  2  0  0  0
 48 44  1  0  0  0
 44 45  1  0  0  0
 45 46  2  0  0  0
 45  1  1  0  0  0
  1 82  1  0  0  0
 82 83  1  0  0  0
 83 84  1  0  0  0
 84 85  1  0  0  0
 84 86  2  0  0  0
  1  2  1  0  0  0
  2  3  1  0  0  0
  3  4  2  0  0  0
  3  6  1  0  0  0
  6 37  1  0  0  0
 37 38  1  0  0  0
 38 39  1  0  0  0
 39 40  1  0  0  0
 39 41  2  0  0  0
  6  7  1  0  0  0
  7  8  1  0  0  0
  8  9  2  0  0  0
  8 11  1  0  0  0
 11 29  1  0  0  0
 29 30  1  0  0  0
 30 31  1  0  0  0
 31 32  1  0  0  0
 31 33  2  0  0  0
 11 12  1  0  0  0
 12 13  1  0  0  0
 13 14  2  0  0  0
 13 16  1  0  0  0
 16 22  1  0  0  0
 22 23  1  0  0  0
 23 24  1  0  0  0
 24 25  1  0  0  0
 24 26  2  0  0  0
 16 17  1  0  0  0
 17 18  1  0  0  0
 18 19  1  0  0  0
 18 20  2  0  0  0
 58 59  1  0  0  0
 59 60  1  0  0  0
 59 61  2  0  0  0
 54 57  1  0  0  0
 71 73  1  0  0  0
 71 74  1  0  0  0
 49 52  1  0  0  0
 78 80  1  0  0  0
 78 81  1  0  0  0
 44 47  1  0  0  0
 85 87  1  0  0  0
 85 88  1  0  0  0
  2  5  1  0  0  0
 40 42  1  0  0  0
 40 43  1  0  0  0
  7 10  1  0  0  0
 32 34  1  0  0  0
 32 35  1  0  0  0
 33 36  1  0  0  0
 12 15  1  0  0  0
 25 27  1  0  0  0
 25 28  1  0  0  0
 17 21  1  0  0  0
 60 62  1  0  0  0
 60 63  1  0  0  0
M  END
> <minimizedAffinity>
-7.08867

> <CNNscore>
0.1896118671

> <CNNaffinity>
6.9016432762

> <CNN_VS>
1.3086334467

> <CNNaffinity_variance>
0.6514836550

$$$$
[H]N=C(N([H])[H])C([H])([H])C([H])([H])[C@@]([H])(C(=O)N([H])[C@]([H])(C(=O)N([H])[C@]([H])(C(=O)N([H])[C@]([H])(C(=O)N([H])[C@]([H])(C(=O)N([H])[C@]([H])(C(=O)N([H])[H])C([H])([H])C([H])(C([H])([H])[H])C([H])([H])[H])C([H])([H])C([H])([H])C(=O)N([H])[H])C([H])([H])C([H])([H])C(=O)N([H])[H])C([H])([H])C([H])([H])C(=O)N([H])[H])C([H])([H])C([H])([H])C(=O)N([H])[H])N([H])C(=O)[C@@]([H])(N([H])C(=O)C([H])([H])[H])C([H])([H])C([H])([H])C(=O)N([H])[H]


 88 87  0  0  0  0  0  0  0  0999 V2000
   36.1924   15.1786  -10.4470 C   0  0  0  0  0  0  0  0  0  0  0  0
   34.9372   14.8815   -9.8298 N   0  0  0  0  0  0  0  0  0  0  0  0
   34.2793   15.8706   -9.0511 C   0  0  0  0  0  0  0  0  0  0  0  0
   34.9274   16.9822   -8.8999 O   0  0  0  0  0  0  0  0  0  0  0  0
   34.4614   13.9286   -9.9438 H   0  0  0  0  0  0  0  0  0  0  0  0
   32.9744   15.8140   -8.4150 C   0  0  0  0  0  0  0  0  0  0  0  0
   32.7777   16.7822   -7.3893 N   0  0  0  0  0  0  0  0  0  0  0  0
   33.2286   16.5296   -6.0397 C   0  0  0  0  0  0  0  0  0  0  0  0
   33.7911   15.4620   -5.7655 O   0  0  0  0  0  0  0  0  0  0  0  0
   32.3299   17.7078   -7.5466 H   0  0  0  0  0  0  0  0  0  0  0  0
   32.9995   17.5537   -4.9860 C   0  0  0  0  0  0  0  0  0  0  0  0
   32.3245   18.7614   -5.3197 N   0  0  0  0  0  0  0  0  0  0  0  0
   32.7249   19.8057   -6.1429 C   0  0  0  0  0  0  0  0  0  0  0  0
   33.8800   19.5778   -6.7345 O   0  0  0  0  0  0  0  0  0  0  0  0
   31.3645   18.8850   -4.8347 H   0  0  0  0  0  0  0  0  0  0  0  0
   32.1605   21.0778   -6.4908 C   0  0  0  0  0  0  0  0  0  0  0  0
   30.7241   21.2043   -6.2837 N   0  0  0  0  0  0  0  0  0  0  0  0
   29.7821   20.5565   -7.0842 C   0  0  0  0  0  0  0  0  0  0  0  0
   28.3484   20.7709   -6.7865 C   0  0  0  0  0  0  0  0  0  0  0  0
   30.0997   19.8083   -8.0531 O   0  0  0  0  0  0  0  0  0  0  0  0
   30.4264   21.8236   -5.5047 H   0  0  0  0  0  0  0  0  0  0  0  0
   32.8496   22.3515   -6.3578 C   0  0  0  0  0  0  0  0  0  0  0  0
   33.6750   22.8766   -7.4732 C   0  0  0  0  0  0  0  0  0  0  0  0
   34.2336   24.2370   -7.0967 C   0  0  0  0  0  0  0  0  0  0  0  0
   35.5774   24.5089   -7.0434 N   0  0  0  0  0  0  0  0  0  0  0  0
   33.3539   25.1207   -6.8347 O   0  0  0  0  0  0  0  0  0  0  0  0
   36.2775   23.9012   -7.5375 H   0  0  0  0  0  0  0  0  0  0  0  0
   36.0022   25.3303   -6.5199 H   0  0  0  0  0  0  0  0  0  0  0  0
   32.5436   16.8844   -3.7499 C   0  0  0  0  0  0  0  0  0  0  0  0
   33.4507   16.8998   -2.5821 C   0  0  0  0  0  0  0  0  0  0  0  0
   34.0231   15.6087   -2.1932 C   0  0  0  0  0  0  0  0  0  0  0  0
   34.8667   15.5022   -1.0291 N   0  0  0  0  0  0  0  0  0  0  0  0
   33.8367   14.5421   -2.8637 N   0  0  0  0  0  0  0  0  0  0  0  0
   34.6419   14.7289   -0.3668 H   0  0  0  0  0  0  0  0  0  0  0  0
   35.6442   16.1588   -0.9255 H   0  0  0  0  0  0  0  0  0  0  0  0
   34.2370   13.6339   -2.5917 H   0  0  0  0  0  0  0  0  0  0  0  0
   31.9022   16.1611   -9.5469 C   0  0  0  0  0  0  0  0  0  0  0  0
   31.3048   14.9035  -10.0788 C   0  0  0  0  0  0  0  0  0  0  0  0
   31.5012   14.7528  -11.5455 C   0  0  0  0  0  0  0  0  0  0  0  0
   30.3707   14.4226  -12.3121 N   0  0  0  0  0  0  0  0  0  0  0  0
   32.6128   14.9087  -12.0761 O   0  0  0  0  0  0  0  0  0  0  0  0
   29.4874   14.9232  -12.1787 H   0  0  0  0  0  0  0  0  0  0  0  0
   30.3854   13.6614  -13.0089 H   0  0  0  0  0  0  0  0  0  0  0  0
   36.1447   14.1547  -12.7658 N   0  0  0  0  0  0  0  0  0  0  0  0
   36.1634   15.2183  -11.9311 C   0  0  0  0  0  0  0  0  0  0  0  0
   36.1631   16.4526  -12.3768 O   0  0  0  0  0  0  0  0  0  0  0  0
   36.0655   14.9852  -13.8432 H   0  0  0  0  0  0  0  0  0  0  0  0
   36.1256   13.0728  -13.6225 C   0  0  0  0  0  0  0  0  0  0  0  0
   38.4476   13.4008  -14.7416 N   0  0  0  0  0  0  0  0  0  0  0  0
   37.5442   12.6492  -13.9577 C   0  0  0  0  0  0  0  0  0  0  0  0
   37.9401   11.5569  -13.5165 O   0  0  0  0  0  0  0  0  0  0  0  0
   38.1308   14.2869  -15.1304 H   0  0  0  0  0  0  0  0  0  0  0  0
   39.7610   12.9563  -15.0363 C   0  0  0  0  0  0  0  0  0  0  0  0
   42.1990   13.3419  -14.5075 N   0  0  0  0  0  0  0  0  0  0  0  0
   40.8767   13.8375  -14.5006 C   0  0  0  0  0  0  0  0  0  0  0  0
   40.5641   14.9293  -14.0893 O   0  0  0  0  0  0  0  0  0  0  0  0
   42.2055   12.2840  -14.8595 H   0  0  0  0  0  0  0  0  0  0  0  0
   43.4613   13.8178  -14.1918 C   0  0  0  0  0  0  0  0  0  0  0  0
   44.3848   13.6559  -15.3649 C   0  0  0  0  0  0  0  0  0  0  0  0
   43.8554   13.4207  -16.6369 N   0  0  0  0  0  0  0  0  0  0  0  0
   45.6200   13.7395  -15.1930 O   0  0  0  0  0  0  0  0  0  0  0  0
   44.1056   14.0789  -17.4268 H   0  0  0  0  0  0  0  0  0  0  0  0
   43.2106   12.6247  -16.8099 H   0  0  0  0  0  0  0  0  0  0  0  0
   44.2279   13.5261  -12.9655 C   0  0  0  0  0  0  0  0  0  0  0  0
   43.6603   15.8844  -12.5546 C   0  0  0  0  0  0  0  0  0  0  0  0
   44.3465   14.6386  -11.9589 C   0  0  0  0  0  0  0  0  0  0  0  0
   43.5875   14.3132  -10.6770 C   0  0  0  0  0  0  0  0  0  0  0  0
   39.9787   13.0050  -16.5750 C   0  0  0  0  0  0  0  0  0  0  0  0
   39.3857   11.7594  -17.1623 C   0  0  0  0  0  0  0  0  0  0  0  0
   39.9163   11.4049  -18.5003 C   0  0  0  0  0  0  0  0  0  0  0  0
   39.0895   10.8867  -19.5208 N   0  0  0  0  0  0  0  0  0  0  0  0
   41.1193   11.5618  -18.7514 O   0  0  0  0  0  0  0  0  0  0  0  0
   38.9344   11.3380  -20.4379 H   0  0  0  0  0  0  0  0  0  0  0  0
   38.5891    9.9876  -19.3508 H   0  0  0  0  0  0  0  0  0  0  0  0
   35.4503   13.3408  -14.9536 C   0  0  0  0  0  0  0  0  0  0  0  0
   35.5261   12.1917  -15.9193 C   0  0  0  0  0  0  0  0  0  0  0  0
   34.3465   11.3247  -15.9244 C   0  0  0  0  0  0  0  0  0  0  0  0
   34.2302   10.2576  -16.8503 N   0  0  0  0  0  0  0  0  0  0  0  0
   33.3838   11.4918  -15.1006 O   0  0  0  0  0  0  0  0  0  0  0  0
   34.1154    9.2858  -16.5071 H   0  0  0  0  0  0  0  0  0  0  0  0
   34.2609   10.4499  -17.8726 H   0  0  0  0  0  0  0  0  0  0  0  0
   37.3733   14.6739   -9.7535 C   0  0  0  0  0  0  0  0  0  0  0  0
   38.3443   15.5992   -9.1174 C   0  0  0  0  0  0  0  0  0  0  0  0
   39.0656   16.2290  -10.3133 C   0  0  0  0  0  0  0  0  0  0  0  0
   39.8943   15.5171  -11.1753 N   0  0  0  0  0  0  0  0  0  0  0  0
   38.8710   17.4704  -10.4811 O   0  0  0  0  0  0  0  0  0  0  0  0
   40.9352   15.5483  -11.1558 H   0  0  0  0  0  0  0  0  0  0  0  0
   39.4514   14.9068  -11.9169 H   0  0  0  0  0  0  0  0  0  0  0  0
 65 66  1  0  0  0
 66 67  1  0  0  0
 66 64  1  0  0  0
 64 58  1  0  0  0
 58 54  1  0  0  0
 54 55  1  0  0  0
 55 56  2  0  0  0
 55 53  1  0  0  0
 53 68  1  0  0  0
 68 69  1  0  0  0
 69 70  1  0  0  0
 70 71  1  0  0  0
 70 72  2  0  0  0
 53 49  1  0  0  0
 49 50  1  0  0  0
 50 51  2  0  0  0
 50 48  1  0  0  0
 48 75  1  0  0  0
 75 76  1  0  0  0
 76 77  1  0  0  0
 77 78  1  0  0  0
 77 79  2  0  0  0
 48 44  1  0  0  0
 44 45  1  0  0  0
 45 46  2  0  0  0
 45  1  1  0  0  0
  1 82  1  0  0  0
 82 83  1  0  0  0
 83 84  1  0  0  0
 84 85  1  0  0  0
 84 86  2  0  0  0
  1  2  1  0  0  0
  2  3  1  0  0  0
  3  4  2  0  0  0
  3  6  1  0  0  0
  6 37  1  0  0  0
 37 38  1  0  0  0
 38 39  1  0  0  0
 39 40  1  0  0  0
 39 41  2  0  0  0
  6  7  1  0  0  0
  7  8  1  0  0  0
  8  9  2  0  0  0
  8 11  1  0  0  0
 11 29  1  0  0  0
 29 30  1  0  0  0
 30 31  1  0  0  0
 31 32  1  0  0  0
 31 33  2  0  0  0
 11 12  1  0  0  0
 12 13  1  0  0  0
 13 14  2  0  0  0
 13 16  1  0  0  0
 16 22  1  0  0  0
 22 23  1  0  0  0
 23 24  1  0  0  0
 24 25  1  0  0  0
 24 26  2  0  0  0
 16 17  1  0  0  0
 17 18  1  0  0  0
 18 19  1  0  0  0
 18 20  2  0  0  0
 58 59  1  0  0  0
 59 60  1  0  0  0
 59 61  2  0  0  0
 54 57  1  0  0  0
 71 73  1  0  0  0
 71 74  1  0  0  0
 49 52  1  0  0  0
 78 80  1  0  0  0
 78 81  1  0  0  0
 44 47  1  0  0  0
 85 87  1  0  0  0
 85 88  1  0  0  0
  2  5  1  0  0  0
 40 42  1  0  0  0
 40 43  1  0  0  0
  7 10  1  0  0  0
 32 34  1  0  0  0
 32 35  1  0  0  0
 33 36  1  0  0  0
 12 15  1  0  0  0
 25 27  1  0  0  0
 25 28  1  0  0  0
 17 21  1  0  0  0
 60 62  1  0  0  0
 60 63  1  0  0  0
M  END
> <minimizedAffinity>
-7.98855

> <CNNscore>
0.1887586266

> <CNNaffinity>
7.6564879417

> <CNN_VS>
1.4452280998

> <CNNaffinity_variance>
0.1597248763

$$$$
[H]N=C(N([H])[H])C([H])([H])C([H])([H])[C@@]([H])(C(=O)N([H])[C@]([H])(C(=O)N([H])[C@]([H])(C(=O)N([H])[C@]([H])(C(=O)N([H])[C@]([H])(C(=O)N([H])[C@]([H])(C(=O)N([H])[H])C([H])([H])C([H])(C([H])([H])[H])C([H])([H])[H])C([H])([H])C([H])([H])C(=O)N([H])[H])C([H])([H])C([H])([H])C(=O)N([H])[H])C([H])([H])C([H])([H])C(=O)N([H])[H])C([H])([H])C([H])([H])C(=O)N([H])[H])N([H])C(=O)[C@@]([H])(N([H])C(=O)C([H])([H])[H])C([H])([H])C([H])([H])C(=O)N([H])[H]


 88 87  0  0  0  0  0  0  0  0999 V2000
   36.5937   15.3510   -6.9569 C   0  0  0  0  0  0  0  0  0  0  0  0
   35.2497   15.3651   -7.4449 N   0  0  0  0  0  0  0  0  0  0  0  0
   34.2501   16.0928   -6.7458 C   0  0  0  0  0  0  0  0  0  0  0  0
   34.6366   16.6498   -5.6417 O   0  0  0  0  0  0  0  0  0  0  0  0
   34.9663   14.8477   -8.3390 H   0  0  0  0  0  0  0  0  0  0  0  0
   32.8597   16.3119   -7.1054 C   0  0  0  0  0  0  0  0  0  0  0  0
   32.5288   17.6708   -7.3735 N   0  0  0  0  0  0  0  0  0  0  0  0
   31.8507   18.4748   -6.3824 C   0  0  0  0  0  0  0  0  0  0  0  0
   31.5504   17.9827   -5.2873 O   0  0  0  0  0  0  0  0  0  0  0  0
   32.7638   18.1583   -8.2619 H   0  0  0  0  0  0  0  0  0  0  0  0
   31.5070   19.8878   -6.6939 C   0  0  0  0  0  0  0  0  0  0  0  0
   32.4898   20.7332   -7.2813 N   0  0  0  0  0  0  0  0  0  0  0  0
   33.6520   21.2600   -6.7333 C   0  0  0  0  0  0  0  0  0  0  0  0
   33.8752   20.8401   -5.5044 O   0  0  0  0  0  0  0  0  0  0  0  0
   32.2774   21.0217   -8.3029 H   0  0  0  0  0  0  0  0  0  0  0  0
   34.6624   22.1610   -7.2079 C   0  0  0  0  0  0  0  0  0  0  0  0
   35.7187   21.5541   -8.0065 N   0  0  0  0  0  0  0  0  0  0  0  0
   36.8974   21.0538   -7.4512 C   0  0  0  0  0  0  0  0  0  0  0  0
   37.9060   20.4712   -8.3641 C   0  0  0  0  0  0  0  0  0  0  0  0
   37.1428   21.0874   -6.2110 O   0  0  0  0  0  0  0  0  0  0  0  0
   35.5572   21.5230   -9.0321 H   0  0  0  0  0  0  0  0  0  0  0  0
   34.4265   23.5492   -7.5716 C   0  0  0  0  0  0  0  0  0  0  0  0
   35.0109   24.6455   -6.7606 C   0  0  0  0  0  0  0  0  0  0  0  0
   36.3195   25.0977   -7.3834 C   0  0  0  0  0  0  0  0  0  0  0  0
   36.7048   24.7544   -8.6546 N   0  0  0  0  0  0  0  0  0  0  0  0
   37.0416   25.8317   -6.6329 O   0  0  0  0  0  0  0  0  0  0  0  0
   36.0069   24.4205   -9.3654 H   0  0  0  0  0  0  0  0  0  0  0  0
   37.7048   24.8017   -9.0111 H   0  0  0  0  0  0  0  0  0  0  0  0
   30.1664   19.9357   -7.3135 C   0  0  0  0  0  0  0  0  0  0  0  0
   29.3560   18.6989   -7.3014 C   0  0  0  0  0  0  0  0  0  0  0  0
   28.2728   18.6472   -6.3165 C   0  0  0  0  0  0  0  0  0  0  0  0
   28.5497   18.3243   -4.9392 N   0  0  0  0  0  0  0  0  0  0  0  0
   27.0531   18.8490   -6.6224 N   0  0  0  0  0  0  0  0  0  0  0  0
   28.1286   18.9560   -4.2245 H   0  0  0  0  0  0  0  0  0  0  0  0
   29.1108   17.4940   -4.7337 H   0  0  0  0  0  0  0  0  0  0  0  0
   26.2907   18.8143   -5.9319 H   0  0  0  0  0  0  0  0  0  0  0  0
   32.6170   15.5303   -8.4770 C   0  0  0  0  0  0  0  0  0  0  0  0
   31.3687   16.0235   -9.1249 C   0  0  0  0  0  0  0  0  0  0  0  0
   30.2521   15.0449   -9.0340 C   0  0  0  0  0  0  0  0  0  0  0  0
   30.5969   13.6838   -8.9777 N   0  0  0  0  0  0  0  0  0  0  0  0
   29.0649   15.4074   -9.0102 O   0  0  0  0  0  0  0  0  0  0  0  0
   31.3314   13.3591   -8.3423 H   0  0  0  0  0  0  0  0  0  0  0  0
   30.1444   12.9794   -9.5811 H   0  0  0  0  0  0  0  0  0  0  0  0
   37.7275   16.1011   -9.0967 N   0  0  0  0  0  0  0  0  0  0  0  0
   37.5556   16.1511   -7.7565 C   0  0  0  0  0  0  0  0  0  0  0  0
   38.2639   16.9500   -6.9934 O   0  0  0  0  0  0  0  0  0  0  0  0
   38.6578   17.0944   -9.0275 H   0  0  0  0  0  0  0  0  0  0  0  0
   37.9073   16.0543  -10.4644 C   0  0  0  0  0  0  0  0  0  0  0  0
   37.1499   14.4980  -12.4024 N   0  0  0  0  0  0  0  0  0  0  0  0
   37.0749   14.9337  -11.0606 C   0  0  0  0  0  0  0  0  0  0  0  0
   36.2612   14.3601  -10.3167 O   0  0  0  0  0  0  0  0  0  0  0  0
   37.7944   14.9734  -13.0310 H   0  0  0  0  0  0  0  0  0  0  0  0
   36.3418   13.4524  -12.9154 C   0  0  0  0  0  0  0  0  0  0  0  0
   36.9798   12.7108  -15.2424 N   0  0  0  0  0  0  0  0  0  0  0  0
   37.0510   12.4870  -13.8499 C   0  0  0  0  0  0  0  0  0  0  0  0
   37.6430   11.5656  -13.3408 O   0  0  0  0  0  0  0  0  0  0  0  0
   36.3081   13.5753  -15.4536 H   0  0  0  0  0  0  0  0  0  0  0  0
   37.5123   12.1431  -16.3886 C   0  0  0  0  0  0  0  0  0  0  0  0
   36.5389   11.1666  -16.9839 C   0  0  0  0  0  0  0  0  0  0  0  0
   36.9878   10.2111  -17.8999 N   0  0  0  0  0  0  0  0  0  0  0  0
   35.3357   11.2140  -16.6490 O   0  0  0  0  0  0  0  0  0  0  0  0
   36.8134    9.1867  -17.7001 H   0  0  0  0  0  0  0  0  0  0  0  0
   37.5021   10.4917  -18.7579 H   0  0  0  0  0  0  0  0  0  0  0  0
   38.8691   11.5845  -16.5425 C   0  0  0  0  0  0  0  0  0  0  0  0
   40.6501   13.0629  -15.7090 C   0  0  0  0  0  0  0  0  0  0  0  0
   39.9496   12.5372  -16.9781 C   0  0  0  0  0  0  0  0  0  0  0  0
   41.0270   11.8247  -17.7884 C   0  0  0  0  0  0  0  0  0  0  0  0
   35.2316   14.0654  -13.8151 C   0  0  0  0  0  0  0  0  0  0  0  0
   33.9185   13.4834  -13.3848 C   0  0  0  0  0  0  0  0  0  0  0  0
   33.0941   14.3910  -12.5518 C   0  0  0  0  0  0  0  0  0  0  0  0
   31.7259   14.1447  -12.3044 N   0  0  0  0  0  0  0  0  0  0  0  0
   33.6025   15.4015  -12.0467 O   0  0  0  0  0  0  0  0  0  0  0  0
   31.3152   13.9965  -11.3673 H   0  0  0  0  0  0  0  0  0  0  0  0
   31.0710   14.1017  -13.1149 H   0  0  0  0  0  0  0  0  0  0  0  0
   39.3347   15.7832  -10.8986 C   0  0  0  0  0  0  0  0  0  0  0  0
   40.3680   16.5254  -10.0984 C   0  0  0  0  0  0  0  0  0  0  0  0
   41.2466   15.6693   -9.2994 C   0  0  0  0  0  0  0  0  0  0  0  0
   42.2452   14.8734   -9.9147 N   0  0  0  0  0  0  0  0  0  0  0  0
   41.1512   15.6072   -8.0264 O   0  0  0  0  0  0  0  0  0  0  0  0
   43.2407   14.9993   -9.6526 H   0  0  0  0  0  0  0  0  0  0  0  0
   41.9792   14.1647  -10.6288 H   0  0  0  0  0  0  0  0  0  0  0  0
   37.0251   14.1065   -6.3280 C   0  0  0  0  0  0  0  0  0  0  0  0
   37.8911   14.1153   -5.1224 C   0  0  0  0  0  0  0  0  0  0  0  0
   39.2482   13.6509   -5.6604 C   0  0  0  0  0  0  0  0  0  0  0  0
   40.4503   14.2909   -5.3743 N   0  0  0  0  0  0  0  0  0  0  0  0
   39.2222   12.6276   -6.4083 O   0  0  0  0  0  0  0  0  0  0  0  0
   40.9561   14.9214   -6.0311 H   0  0  0  0  0  0  0  0  0  0  0  0
   40.9021   14.1256   -4.4324 H   0  0  0  0  0  0  0  0  0  0  0  0
 65 66  1  0  0  0
 66 67  1  0  0  0
 66 64  1  0  0  0
 64 58  1  0  0  0
 58 54  1  0  0  0
 54 55  1  0  0  0
 55 56  2  0  0  0
 55 53  1  0  0  0
 53 68  1  0  0  0
 68 69  1  0  0  0
 69 70  1  0  0  0
 70 71  1  0  0  0
 70 72  2  0  0  0
 53 49  1  0  0  0
 49 50  1  0  0  0
 50 51  2  0  0  0
 50 48  1  0  0  0
 48 75  1  0  0  0
 75 76  1  0  0  0
 76 77  1  0  0  0
 77 78  1  0  0  0
 77 79  2  0  0  0
 48 44  1  0  0  0
 44 45  1  0  0  0
 45 46  2  0  0  0
 45  1  1  0  0  0
  1 82  1  0  0  0
 82 83  1  0  0  0
 83 84  1  0  0  0
 84 85  1  0  0  0
 84 86  2  0  0  0
  1  2  1  0  0  0
  2  3  1  0  0  0
  3  4  2  0  0  0
  3  6  1  0  0  0
  6 37  1  0  0  0
 37 38  1  0  0  0
 38 39  1  0  0  0
 39 40  1  0  0  0
 39 41  2  0  0  0
  6  7  1  0  0  0
  7  8  1  0  0  0
  8  9  2  0  0  0
  8 11  1  0  0  0
 11 29  1  0  0  0
 29 30  1  0  0  0
 30 31  1  0  0  0
 31 32  1  0  0  0
 31 33  2  0  0  0
 11 12  1  0  0  0
 12 13  1  0  0  0
 13 14  2  0  0  0
 13 16  1  0  0  0
 16 22  1  0  0  0
 22 23  1  0  0  0
 23 24  1  0  0  0
 24 25  1  0  0  0
 24 26  2  0  0  0
 16 17  1  0  0  0
 17 18  1  0  0  0
 18 19  1  0  0  0
 18 20  2  0  0  0
 58 59  1  0  0  0
 59 60  1  0  0  0
 59 61  2  0  0  0
 54 57  1  0  0  0
 71 73  1  0  0  0
 71 74  1  0  0  0
 49 52  1  0  0  0
 78 80  1  0  0  0
 78 81  1  0  0  0
 44 47  1  0  0  0
 85 87  1  0  0  0
 85 88  1  0  0  0
  2  5  1  0  0  0
 40 42  1  0  0  0
 40 43  1  0  0  0
  7 10  1  0  0  0
 32 34  1  0  0  0
 32 35  1  0  0  0
 33 36  1  0  0  0
 12 15  1  0  0  0
 25 27  1  0  0  0
 25 28  1  0  0  0
 17 21  1  0  0  0
 60 62  1  0  0  0
 60 63  1  0  0  0
M  END
> <minimizedAffinity>
-8.18719

> <CNNscore>
0.1715907604

> <CNNaffinity>
7.3804521561

> <CNN_VS>
1.2664173841

> <CNNaffinity_variance>
1.2751995325

$$$$
[H]N=C(N([H])[H])C([H])([H])C([H])([H])[C@@]([H])(C(=O)N([H])[C@]([H])(C(=O)N([H])[C@]([H])(C(=O)N([H])[C@]([H])(C(=O)N([H])[C@]([H])(C(=O)N([H])[C@]([H])(C(=O)N([H])[H])C([H])([H])C([H])(C([H])([H])[H])C([H])([H])[H])C([H])([H])C([H])([H])C(=O)N([H])[H])C([H])([H])C([H])([H])C(=O)N([H])[H])C([H])([H])C([H])([H])C(=O)N([H])[H])C([H])([H])C([H])([H])C(=O)N([H])[H])N([H])C(=O)[C@@]([H])(N([H])C(=O)C([H])([H])[H])C([H])([H])C([H])([H])C(=O)N([H])[H]


 88 87  0  0  0  0  0  0  0  0999 V2000
   37.5954   15.9517  -10.5450 C   0  0  0  0  0  0  0  0  0  0  0  0
   36.9806   15.6439   -9.2912 N   0  0  0  0  0  0  0  0  0  0  0  0
   36.6086   16.6927   -8.4085 C   0  0  0  0  0  0  0  0  0  0  0  0
   36.9316   17.8864   -8.7948 O   0  0  0  0  0  0  0  0  0  0  0  0
   36.7766   14.6355   -8.9928 H   0  0  0  0  0  0  0  0  0  0  0  0
   35.9024   16.6133   -7.1414 C   0  0  0  0  0  0  0  0  0  0  0  0
   34.5223   16.9566   -7.2148 N   0  0  0  0  0  0  0  0  0  0  0  0
   34.0145   18.1235   -6.5299 C   0  0  0  0  0  0  0  0  0  0  0  0
   34.7817   18.8355   -5.8698 O   0  0  0  0  0  0  0  0  0  0  0  0
   33.8213   16.4180   -7.7630 H   0  0  0  0  0  0  0  0  0  0  0  0
   32.5664   18.4515   -6.6143 C   0  0  0  0  0  0  0  0  0  0  0  0
   31.6033   17.4353   -6.3584 N   0  0  0  0  0  0  0  0  0  0  0  0
   30.7430   16.7849   -7.2332 C   0  0  0  0  0  0  0  0  0  0  0  0
   30.9196   17.1452   -8.4883 O   0  0  0  0  0  0  0  0  0  0  0  0
   31.5211   17.1503   -5.3172 H   0  0  0  0  0  0  0  0  0  0  0  0
   29.7039   15.8088   -7.0731 C   0  0  0  0  0  0  0  0  0  0  0  0
   30.1435   14.4913   -6.6337 N   0  0  0  0  0  0  0  0  0  0  0  0
   29.9922   13.3425   -7.4116 C   0  0  0  0  0  0  0  0  0  0  0  0
   30.4652   12.0557   -6.8545 C   0  0  0  0  0  0  0  0  0  0  0  0
   29.4615   13.3530   -8.5596 O   0  0  0  0  0  0  0  0  0  0  0  0
   30.5711   14.4428   -5.6884 H   0  0  0  0  0  0  0  0  0  0  0  0
   28.3482   16.1088   -6.6408 C   0  0  0  0  0  0  0  0  0  0  0  0
   28.0793   17.2902   -5.7846 C   0  0  0  0  0  0  0  0  0  0  0  0
   27.9289   18.5255   -6.6540 C   0  0  0  0  0  0  0  0  0  0  0  0
   28.4060   19.7604   -6.2939 N   0  0  0  0  0  0  0  0  0  0  0  0
   27.3239   18.3300   -7.7582 O   0  0  0  0  0  0  0  0  0  0  0  0
   29.1480   19.8657   -5.5576 H   0  0  0  0  0  0  0  0  0  0  0  0
   28.0779   20.6772   -6.7195 H   0  0  0  0  0  0  0  0  0  0  0  0
   32.3231   19.7483   -5.9491 C   0  0  0  0  0  0  0  0  0  0  0  0
   31.9056   20.8889   -6.7926 C   0  0  0  0  0  0  0  0  0  0  0  0
   32.9843   21.6534   -7.4232 C   0  0  0  0  0  0  0  0  0  0  0  0
   34.2583   21.8022   -6.7653 N   0  0  0  0  0  0  0  0  0  0  0  0
   32.8482   22.2404   -8.5452 N   0  0  0  0  0  0  0  0  0  0  0  0
   35.1020   21.6073   -7.3462 H   0  0  0  0  0  0  0  0  0  0  0  0
   34.2733   22.1111   -5.7903 H   0  0  0  0  0  0  0  0  0  0  0  0
   33.6050   22.7772   -8.9905 H   0  0  0  0  0  0  0  0  0  0  0  0
   35.9424   15.0803   -6.6948 C   0  0  0  0  0  0  0  0  0  0  0  0
   34.5643   14.5129   -6.7141 C   0  0  0  0  0  0  0  0  0  0  0  0
   34.1303   14.0193   -5.3797 C   0  0  0  0  0  0  0  0  0  0  0  0
   35.1267   13.8573   -4.4021 N   0  0  0  0  0  0  0  0  0  0  0  0
   32.9417   13.7583   -5.1336 O   0  0  0  0  0  0  0  0  0  0  0  0
   35.8189   14.5938   -4.2377 H   0  0  0  0  0  0  0  0  0  0  0  0
   35.2073   12.9950   -3.8408 H   0  0  0  0  0  0  0  0  0  0  0  0
   36.6248   14.7334  -12.5452 N   0  0  0  0  0  0  0  0  0  0  0  0
   36.7081   15.8065  -11.7267 C   0  0  0  0  0  0  0  0  0  0  0  0
   35.9780   16.8811  -11.9117 O   0  0  0  0  0  0  0  0  0  0  0  0
   35.6305   15.3363  -13.2557 H   0  0  0  0  0  0  0  0  0  0  0  0
   36.5355   13.6409  -13.3839 C   0  0  0  0  0  0  0  0  0  0  0  0
   38.9558   13.9229  -14.2865 N   0  0  0  0  0  0  0  0  0  0  0  0
   37.9244   13.1348  -13.7290 C   0  0  0  0  0  0  0  0  0  0  0  0
   38.1727   11.9365  -13.5122 O   0  0  0  0  0  0  0  0  0  0  0  0
   38.7610   14.9009  -14.4922 H   0  0  0  0  0  0  0  0  0  0  0  0
   40.2351   13.4002  -14.6019 C   0  0  0  0  0  0  0  0  0  0  0  0
   42.5845   13.3053  -13.6835 N   0  0  0  0  0  0  0  0  0  0  0  0
   41.3964   14.0466  -13.8658 C   0  0  0  0  0  0  0  0  0  0  0  0
   41.2342   15.1756  -13.4688 O   0  0  0  0  0  0  0  0  0  0  0  0
   42.4471   12.2681  -14.0688 H   0  0  0  0  0  0  0  0  0  0  0  0
   43.8465   13.5269  -13.1564 C   0  0  0  0  0  0  0  0  0  0  0  0
   43.7674   13.6670  -11.6632 C   0  0  0  0  0  0  0  0  0  0  0  0
   43.7221   12.5234  -10.8609 N   0  0  0  0  0  0  0  0  0  0  0  0
   43.7491   14.8071  -11.1513 O   0  0  0  0  0  0  0  0  0  0  0  0
   44.4530   12.3965  -10.1063 H   0  0  0  0  0  0  0  0  0  0  0  0
   42.9965   11.7945  -11.0076 H   0  0  0  0  0  0  0  0  0  0  0  0
   44.8477   14.4908  -13.6515 C   0  0  0  0  0  0  0  0  0  0  0  0
   46.7859   13.0144  -13.3107 C   0  0  0  0  0  0  0  0  0  0  0  0
   46.0631   13.9183  -14.3297 C   0  0  0  0  0  0  0  0  0  0  0  0
   45.6767   13.0133  -15.4945 C   0  0  0  0  0  0  0  0  0  0  0  0
   40.5507   13.7002  -16.0945 C   0  0  0  0  0  0  0  0  0  0  0  0
   40.8212   12.3934  -16.7782 C   0  0  0  0  0  0  0  0  0  0  0  0
   39.6441   11.8107  -17.4653 C   0  0  0  0  0  0  0  0  0  0  0  0
   39.7282   11.2703  -18.7670 N   0  0  0  0  0  0  0  0  0  0  0  0
   38.5438   11.7862  -16.8965 O   0  0  0  0  0  0  0  0  0  0  0  0
   39.5201   10.2872  -19.0102 H   0  0  0  0  0  0  0  0  0  0  0  0
   40.0242   11.8935  -19.5491 H   0  0  0  0  0  0  0  0  0  0  0  0
   35.8590   13.9250  -14.7111 C   0  0  0  0  0  0  0  0  0  0  0  0
   35.2994   12.7037  -15.3850 C   0  0  0  0  0  0  0  0  0  0  0  0
   33.9356   12.3586  -14.9800 C   0  0  0  0  0  0  0  0  0  0  0  0
   33.1143   13.2993  -14.3091 N   0  0  0  0  0  0  0  0  0  0  0  0
   33.4340   11.2067  -15.2146 O   0  0  0  0  0  0  0  0  0  0  0  0
   32.2050   13.5788  -14.7221 H   0  0  0  0  0  0  0  0  0  0  0  0
   33.4243   13.7089  -13.4040 H   0  0  0  0  0  0  0  0  0  0  0  0
   39.0131   15.6217  -10.6519 C   0  0  0  0  0  0  0  0  0  0  0  0
   40.0505   16.4784  -10.0246 C   0  0  0  0  0  0  0  0  0  0  0  0
   40.5348   15.6350   -8.8409 C   0  0  0  0  0  0  0  0  0  0  0  0
   41.6330   14.7823   -8.9008 N   0  0  0  0  0  0  0  0  0  0  0  0
   39.8618   15.7491   -7.7727 O   0  0  0  0  0  0  0  0  0  0  0  0
   41.5736   13.7458   -8.9839 H   0  0  0  0  0  0  0  0  0  0  0  0
   42.6034   15.1994   -8.8461 H   0  0  0  0  0  0  0  0  0  0  0  0
 65 66  1  0  0  0
 66 67  1  0  0  0
 66 64  1  0  0  0
 64 58  1  0  0  0
 58 54  1  0  0  0
 54 55  1  0  0  0
 55 56  2  0  0  0
 55 53  1  0  0  0
 53 68  1  0  0  0
 68 69  1  0  0  0
 69 70  1  0  0  0
 70 71  1  0  0  0
 70 72  2  0  0  0
 53 49  1  0  0  0
 49 50  1  0  0  0
 50 51  2  0  0  0
 50 48  1  0  0  0
 48 75  1  0  0  0
 75 76  1  0  0  0
 76 77  1  0  0  0
 77 78  1  0  0  0
 77 79  2  0  0  0
 48 44  1  0  0  0
 44 45  1  0  0  0
 45 46  2  0  0  0
 45  1  1  0  0  0
  1 82  1  0  0  0
 82 83  1  0  0  0
 83 84  1  0  0  0
 84 85  1  0  0  0
 84 86  2  0  0  0
  1  2  1  0  0  0
  2  3  1  0  0  0
  3  4  2  0  0  0
  3  6  1  0  0  0
  6 37  1  0  0  0
 37 38  1  0  0  0
 38 39  1  0  0  0
 39 40  1  0  0  0
 39 41  2  0  0  0
  6  7  1  0  0  0
  7  8  1  0  0  0
  8  9  2  0  0  0
  8 11  1  0  0  0
 11 29  1  0  0  0
 29 30  1  0  0  0
 30 31  1  0  0  0
 31 32  1  0  0  0
 31 33  2  0  0  0
 11 12  1  0  0  0
 12 13  1  0  0  0
 13 14  2  0  0  0
 13 16  1  0  0  0
 16 22  1  0  0  0
 22 23  1  0  0  0
 23 24  1  0  0  0
 24 25  1  0  0  0
 24 26  2  0  0  0
 16 17  1  0  0  0
 17 18  1  0  0  0
 18 19  1  0  0  0
 18 20  2  0  0  0
 58 59  1  0  0  0
 59 60  1  0  0  0
 59 61  2  0  0  0
 54 57  1  0  0  0
 71 73  1  0  0  0
 71 74  1  0  0  0
 49 52  1  0  0  0
 78 80  1  0  0  0
 78 81  1  0  0  0
 44 47  1  0  0  0
 85 87  1  0  0  0
 85 88  1  0  0  0
  2  5  1  0  0  0
 40 42  1  0  0  0
 40 43  1  0  0  0
  7 10  1  0  0  0
 32 34  1  0  0  0
 32 35  1  0  0  0
 33 36  1  0  0  0
 12 15  1  0  0  0
 25 27  1  0  0  0
 25 28  1  0  0  0
 17 21  1  0  0  0
 60 62  1  0  0  0
 60 63  1  0  0  0
M  END
> <minimizedAffinity>
-8.02243

> <CNNscore>
0.1678307950

> <CNNaffinity>
7.4509520531

> <CNN_VS>
1.2504992485

> <CNNaffinity_variance>
0.3864016533

$$$$
[H]N=C(N([H])[H])C([H])([H])C([H])([H])[C@@]([H])(C(=O)N([H])[C@]([H])(C(=O)N([H])[C@]([H])(C(=O)N([H])[C@]([H])(C(=O)N([H])[C@]([H])(C(=O)N([H])[C@]([H])(C(=O)N([H])[H])C([H])([H])C([H])(C([H])([H])[H])C([H])([H])[H])C([H])([H])C([H])([H])C(=O)N([H])[H])C([H])([H])C([H])([H])C(=O)N([H])[H])C([H])([H])C([H])([H])C(=O)N([H])[H])C([H])([H])C([H])([H])C(=O)N([H])[H])N([H])C(=O)[C@@]([H])(N([H])C(=O)C([H])([H])[H])C([H])([H])C([H])([H])C(=O)N([H])[H]


 88 87  0  0  0  0  0  0  0  0999 V2000
   35.7876   15.3006  -10.5965 C   0  0  0  0  0  0  0  0  0  0  0  0
   35.6395   14.5646   -9.3795 N   0  0  0  0  0  0  0  0  0  0  0  0
   34.7811   15.0511   -8.3577 C   0  0  0  0  0  0  0  0  0  0  0  0
   34.2339   16.2020   -8.5913 O   0  0  0  0  0  0  0  0  0  0  0  0
   36.1517   13.6389   -9.2114 H   0  0  0  0  0  0  0  0  0  0  0  0
   34.4198   14.4298   -7.0951 C   0  0  0  0  0  0  0  0  0  0  0  0
   35.2610   14.7857   -6.0026 N   0  0  0  0  0  0  0  0  0  0  0  0
   36.3891   13.9586   -5.6395 C   0  0  0  0  0  0  0  0  0  0  0  0
   36.6314   12.9278   -6.2801 O   0  0  0  0  0  0  0  0  0  0  0  0
   35.1316   15.6441   -5.4295 H   0  0  0  0  0  0  0  0  0  0  0  0
   37.2437   14.3483   -4.4866 C   0  0  0  0  0  0  0  0  0  0  0  0
   37.7434   15.6785   -4.4049 N   0  0  0  0  0  0  0  0  0  0  0  0
   39.0484   16.1451   -4.4922 C   0  0  0  0  0  0  0  0  0  0  0  0
   39.9178   15.1899   -4.7531 O   0  0  0  0  0  0  0  0  0  0  0  0
   36.9852   16.4298   -4.2241 H   0  0  0  0  0  0  0  0  0  0  0  0
   39.6599   17.4361   -4.3600 C   0  0  0  0  0  0  0  0  0  0  0  0
   39.5746   18.0377   -3.0361 N   0  0  0  0  0  0  0  0  0  0  0  0
   38.3888   18.5556   -2.5130 C   0  0  0  0  0  0  0  0  0  0  0  0
   38.4264   19.1551   -1.1605 C   0  0  0  0  0  0  0  0  0  0  0  0
   37.2940   18.5443   -3.1461 O   0  0  0  0  0  0  0  0  0  0  0  0
   40.4591   18.0773   -2.4930 H   0  0  0  0  0  0  0  0  0  0  0  0
   40.8449   17.8670   -5.0846 C   0  0  0  0  0  0  0  0  0  0  0  0
   41.9242   18.6051   -4.3837 C   0  0  0  0  0  0  0  0  0  0  0  0
   42.9842   19.0289   -5.3844 C   0  0  0  0  0  0  0  0  0  0  0  0
   43.7481   18.1364   -6.0932 N   0  0  0  0  0  0  0  0  0  0  0  0
   43.1123   20.2889   -5.5239 O   0  0  0  0  0  0  0  0  0  0  0  0
   43.4504   17.1358   -6.2111 H   0  0  0  0  0  0  0  0  0  0  0  0
   44.6677   18.3787   -6.5672 H   0  0  0  0  0  0  0  0  0  0  0  0
   36.6583   13.8054   -3.2432 C   0  0  0  0  0  0  0  0  0  0  0  0
   36.3297   14.7588   -2.1616 C   0  0  0  0  0  0  0  0  0  0  0  0
   34.9925   15.3549   -2.2117 C   0  0  0  0  0  0  0  0  0  0  0  0
   34.8259   16.7570   -2.5025 N   0  0  0  0  0  0  0  0  0  0  0  0
   33.9322   14.6901   -1.9757 N   0  0  0  0  0  0  0  0  0  0  0  0
   34.1163   16.9955   -3.2283 H   0  0  0  0  0  0  0  0  0  0  0  0
   35.3801   17.4362   -1.9752 H   0  0  0  0  0  0  0  0  0  0  0  0
   32.9918   15.1066   -2.0113 H   0  0  0  0  0  0  0  0  0  0  0  0
   32.9679   14.9787   -6.7183 C   0  0  0  0  0  0  0  0  0  0  0  0
   32.2159   13.9382   -5.9612 C   0  0  0  0  0  0  0  0  0  0  0  0
   30.9653   13.5215   -6.6505 C   0  0  0  0  0  0  0  0  0  0  0  0
   29.9284   14.4672   -6.7223 N   0  0  0  0  0  0  0  0  0  0  0  0
   30.8354   12.3887   -7.1418 O   0  0  0  0  0  0  0  0  0  0  0  0
   30.1220   15.4305   -7.0108 H   0  0  0  0  0  0  0  0  0  0  0  0
   28.9557   14.2329   -6.4692 H   0  0  0  0  0  0  0  0  0  0  0  0
   35.4094   13.7690  -12.5809 N   0  0  0  0  0  0  0  0  0  0  0  0
   35.0214   14.7612  -11.7484 C   0  0  0  0  0  0  0  0  0  0  0  0
   33.8721   15.3786  -11.8898 O   0  0  0  0  0  0  0  0  0  0  0  0
   34.2225   13.8451  -13.2459 H   0  0  0  0  0  0  0  0  0  0  0  0
   35.8003   12.7567  -13.4339 C   0  0  0  0  0  0  0  0  0  0  0  0
   38.0950   13.9060  -13.8407 N   0  0  0  0  0  0  0  0  0  0  0  0
   37.3106   12.7589  -13.5866 C   0  0  0  0  0  0  0  0  0  0  0  0
   37.9025   11.6706  -13.4880 O   0  0  0  0  0  0  0  0  0  0  0  0
   37.6230   14.8018  -13.9478 H   0  0  0  0  0  0  0  0  0  0  0  0
   39.5040   13.8547  -13.9864 C   0  0  0  0  0  0  0  0  0  0  0  0
   41.5401   14.6705  -12.7371 N   0  0  0  0  0  0  0  0  0  0  0  0
   40.2676   14.9599  -13.2766 C   0  0  0  0  0  0  0  0  0  0  0  0
   39.7328   16.0408  -13.2100 O   0  0  0  0  0  0  0  0  0  0  0  0
   41.7664   13.5858  -12.8603 H   0  0  0  0  0  0  0  0  0  0  0  0
   42.5550   15.3693  -12.1034 C   0  0  0  0  0  0  0  0  0  0  0  0
   42.3135   15.4041  -10.6215 C   0  0  0  0  0  0  0  0  0  0  0  0
   42.7215   14.3289   -9.8270 N   0  0  0  0  0  0  0  0  0  0  0  0
   41.7546   16.3989  -10.1114 O   0  0  0  0  0  0  0  0  0  0  0  0
   43.3758   14.5097   -9.0153 H   0  0  0  0  0  0  0  0  0  0  0  0
   42.4068   13.3606  -10.0336 H   0  0  0  0  0  0  0  0  0  0  0  0
   43.1034   16.6783  -12.5061 C   0  0  0  0  0  0  0  0  0  0  0  0
   45.4328   16.8059  -11.7248 C   0  0  0  0  0  0  0  0  0  0  0  0
   44.5338   16.6999  -12.9732 C   0  0  0  0  0  0  0  0  0  0  0  0
   44.9163   15.3917  -13.6568 C   0  0  0  0  0  0  0  0  0  0  0  0
   39.8669   14.0773  -15.4818 C   0  0  0  0  0  0  0  0  0  0  0  0
   40.0241   12.7304  -16.1216 C   0  0  0  0  0  0  0  0  0  0  0  0
   41.3852   12.4587  -16.6419 C   0  0  0  0  0  0  0  0  0  0  0  0
   41.6022   11.9357  -17.9353 N   0  0  0  0  0  0  0  0  0  0  0  0
   42.3765   12.6922  -15.9363 O   0  0  0  0  0  0  0  0  0  0  0  0
   42.1361   12.4133  -18.6808 H   0  0  0  0  0  0  0  0  0  0  0  0
   41.1977   11.0042  -18.1724 H   0  0  0  0  0  0  0  0  0  0  0  0
   35.2439   12.8736  -14.8397 C   0  0  0  0  0  0  0  0  0  0  0  0
   34.1677   11.8733  -15.1557 C   0  0  0  0  0  0  0  0  0  0  0  0
   34.4062   11.0883  -16.3683 C   0  0  0  0  0  0  0  0  0  0  0  0
   33.3389   10.7442  -17.2355 N   0  0  0  0  0  0  0  0  0  0  0  0
   35.5756   10.6873  -16.6923 O   0  0  0  0  0  0  0  0  0  0  0  0
   33.3634   11.0420  -18.2286 H   0  0  0  0  0  0  0  0  0  0  0  0
   32.5321   10.1944  -16.8752 H   0  0  0  0  0  0  0  0  0  0  0  0
   37.0962   15.9101  -10.8116 C   0  0  0  0  0  0  0  0  0  0  0  0
   38.3007   15.4143  -10.0995 C   0  0  0  0  0  0  0  0  0  0  0  0
   38.4688   16.4160   -8.9527 C   0  0  0  0  0  0  0  0  0  0  0  0
   39.0086   17.6884   -9.1142 N   0  0  0  0  0  0  0  0  0  0  0  0
   38.0873   16.0151   -7.8122 O   0  0  0  0  0  0  0  0  0  0  0  0
   39.9766   17.9596   -8.8416 H   0  0  0  0  0  0  0  0  0  0  0  0
   38.4018   18.4486   -9.5296 H   0  0  0  0  0  0  0  0  0  0  0  0
 65 66  1  0  0  0
 66 67  1  0  0  0
 66 64  1  0  0  0
 64 58  1  0  0  0
 58 54  1  0  0  0
 54 55  1  0  0  0
 55 56  2  0  0  0
 55 53  1  0  0  0
 53 68  1  0  0  0
 68 69  1  0  0  0
 69 70  1  0  0  0
 70 71  1  0  0  0
 70 72  2  0  0  0
 53 49  1  0  0  0
 49 50  1  0  0  0
 50 51  2  0  0  0
 50 48  1  0  0  0
 48 75  1  0  0  0
 75 76  1  0  0  0
 76 77  1  0  0  0
 77 78  1  0  0  0
 77 79  2  0  0  0
 48 44  1  0  0  0
 44 45  1  0  0  0
 45 46  2  0  0  0
 45  1  1  0  0  0
  1 82  1  0  0  0
 82 83  1  0  0  0
 83 84  1  0  0  0
 84 85  1  0  0  0
 84 86  2  0  0  0
  1  2  1  0  0  0
  2  3  1  0  0  0
  3  4  2  0  0  0
  3  6  1  0  0  0
  6 37  1  0  0  0
 37 38  1  0  0  0
 38 39  1  0  0  0
 39 40  1  0  0  0
 39 41  2  0  0  0
  6  7  1  0  0  0
  7  8  1  0  0  0
  8  9  2  0  0  0
  8 11  1  0  0  0
 11 29  1  0  0  0
 29 30  1  0  0  0
 30 31  1  0  0  0
 31 32  1  0  0  0
 31 33  2  0  0  0
 11 12  1  0  0  0
 12 13  1  0  0  0
 13 14  2  0  0  0
 13 16  1  0  0  0
 16 22  1  0  0  0
 22 23  1  0  0  0
 23 24  1  0  0  0
 24 25  1  0  0  0
 24 26  2  0  0  0
 16 17  1  0  0  0
 17 18  1  0  0  0
 18 19  1  0  0  0
 18 20  2  0  0  0
 58 59  1  0  0  0
 59 60  1  0  0  0
 59 61  2  0  0  0
 54 57  1  0  0  0
 71 73  1  0  0  0
 71 74  1  0  0  0
 49 52  1  0  0  0
 78 80  1  0  0  0
 78 81  1  0  0  0
 44 47  1  0  0  0
 85 87  1  0  0  0
 85 88  1  0  0  0
  2  5  1  0  0  0
 40 42  1  0  0  0
 40 43  1  0  0  0
  7 10  1  0  0  0
 32 34  1  0  0  0
 32 35  1  0  0  0
 33 36  1  0  0  0
 12 15  1  0  0  0
 25 27  1  0  0  0
 25 28  1  0  0  0
 17 21  1  0  0  0
 60 62  1  0  0  0
 60 63  1  0  0  0
M  END
> <minimizedAffinity>
-7.33553

> <CNNscore>
0.1445558518

> <CNNaffinity>
7.2986955643

> <CNN_VS>
1.0550692081

> <CNNaffinity_variance>
0.6219099760

$$$$
[H]c1nc([H])c(Cl)c(N([H])C(=O)c2c([H])c([H])c(OC([H])([H])[H])c(OC3([H])C([H])([H])C([H])([H])C([H])([H])C3([H])[H])c2[H])c1Cl


 26 28  0  0  0  0  0  0  0  0999 V2000
   43.9772   13.5640  -14.5051 C   0  0  0  0  0  0  0  0  0  0  0  0
   43.5602   13.0827  -15.7407 C   0  0  0  0  0  0  0  0  0  0  0  0
   42.2284   12.9034  -16.0398 C   0  0  0  0  0  0  0  0  0  0  0  0
   41.2411   13.1969  -15.1170 C   0  0  0  0  0  0  0  0  0  0  0  0
   41.6647   13.6703  -13.9038 C   0  0  0  0  0  0  0  0  0  0  0  0
   43.0223   13.8628  -13.5725 C   0  0  0  0  0  0  0  0  0  0  0  0
   39.8224   13.0034  -15.4425 C   0  0  0  0  0  0  0  0  0  0  0  0
   39.1676   14.0515  -15.7697 O   0  0  0  0  0  0  0  0  0  0  0  0
   39.1771   11.7654  -15.4118 N   0  0  0  0  0  0  0  0  0  0  0  0
   39.6812   10.8899  -15.1493 H   0  0  0  0  0  0  0  0  0  0  0  0
   37.7918   11.7006  -15.7489 C   0  0  0  0  0  0  0  0  0  0  0  0
   37.3591   11.3232  -17.0040 C   0  0  0  0  0  0  0  0  0  0  0  0
   38.6155   10.9213  -18.1818 Cl  0  0  0  0  0  0  0  0  0  0  0  0
   36.0232   11.2553  -17.3463 C   0  0  0  0  0  0  0  0  0  0  0  0
   35.1022   11.5747  -16.4030 N   0  0  0  0  0  0  0  0  0  0  0  0
   35.5107   11.9441  -15.1757 C   0  0  0  0  0  0  0  0  0  0  0  0
   36.8213   12.0205  -14.8082 C   0  0  0  0  0  0  0  0  0  0  0  0
   37.3534   12.4995  -13.2162 Cl  0  0  0  0  0  0  0  0  0  0  0  0
   46.0223   14.9065  -14.5272 C   0  0  0  0  0  0  0  0  0  0  0  0
   45.3337   13.7351  -14.2310 O   0  0  0  0  0  0  0  0  0  0  0  0
   43.2858   14.3340  -12.3432 O   0  0  0  0  0  0  0  0  0  0  0  0
   43.3399   15.5323  -11.7120 C   0  0  0  0  0  0  0  0  0  0  0  0
   42.5502   15.3740  -10.3910 C   0  0  0  0  0  0  0  0  0  0  0  0
   43.2068   16.3377   -9.4373 C   0  0  0  0  0  0  0  0  0  0  0  0
   44.6370   16.4925   -9.9044 C   0  0  0  0  0  0  0  0  0  0  0  0
   44.7746   15.6919  -11.1590 C   0  0  0  0  0  0  0  0  0  0  0  0
 19 20  1  0  0  0
 20  1  1  0  0  0
  1  2  2  0  0  0
  2  3  1  0  0  0
  3  4  2  0  0  0
  4  5  1  0  0  0
  5  6  2  0  0  0
  6 21  1  0  0  0
 21 22  1  0  0  0
 22 23  1  0  0  0
 23 24  1  0  0  0
 24 25  1  0  0  0
 25 26  1  0  0  0
  4  7  1  0  0  0
  7  8  2  0  0  0
  7  9  1  0  0  0
  9 11  1  0  0  0
 11 12  2  0  0  0
 12 13  1  0  0  0
 12 14  1  0  0  0
 14 15  2  0  0  0
 15 16  1  0  0  0
 16 17  2  0  0  0
 17 18  1  0  0  0
  6  1  1  0  0  0
 26 22  1  0  0  0
 17 11  1  0  0  0
  9 10  1  0  0  0
M  END
> <minimizedAffinity>
-6.47190

> <CNNscore>
0.4533019662

> <CNNaffinity>
6.4620904922

> <CNN_VS>
2.9292783737

> <CNNaffinity_variance>
0.1768277884

$$$$
[H]c1nc([H])c(Cl)c(N([H])C(=O)c2c([H])c([H])c(OC([H])([H])[H])c(OC3([H])C([H])([H])C([H])([H])C([H])([H])C3([H])[H])c2[H])c1Cl


 26 28  0  0  0  0  0  0  0  0999 V2000
   44.6101   13.3325  -14.7828 C   0  0  0  0  0  0  0  0  0  0  0  0
   44.3131   12.7651  -16.0166 C   0  0  0  0  0  0  0  0  0  0  0  0
   43.0160   12.5801  -16.4390 C   0  0  0  0  0  0  0  0  0  0  0  0
   41.9449   12.9538  -15.6482 C   0  0  0  0  0  0  0  0  0  0  0  0
   42.2505   13.5115  -14.4354 C   0  0  0  0  0  0  0  0  0  0  0  0
   43.5701   13.7118  -13.9793 C   0  0  0  0  0  0  0  0  0  0  0  0
   40.5638   12.7536  -16.1048 C   0  0  0  0  0  0  0  0  0  0  0  0
   40.0509   13.7014  -16.7928 O   0  0  0  0  0  0  0  0  0  0  0  0
   39.8095   11.6110  -15.8302 N   0  0  0  0  0  0  0  0  0  0  0  0
   40.1967   10.8186  -15.2719 H   0  0  0  0  0  0  0  0  0  0  0  0
   38.4745   11.5291  -16.3281 C   0  0  0  0  0  0  0  0  0  0  0  0
   37.3801   11.8450  -15.5487 C   0  0  0  0  0  0  0  0  0  0  0  0
   37.7170   12.3599  -13.8907 Cl  0  0  0  0  0  0  0  0  0  0  0  0
   36.0826   11.7713  -16.0149 C   0  0  0  0  0  0  0  0  0  0  0  0
   35.8827   11.3702  -17.2951 N   0  0  0  0  0  0  0  0  0  0  0  0
   36.9408   11.0593  -18.0655 C   0  0  0  0  0  0  0  0  0  0  0  0
   38.2324   11.1223  -17.6339 C   0  0  0  0  0  0  0  0  0  0  0  0
   39.6067   10.7194  -18.6319 Cl  0  0  0  0  0  0  0  0  0  0  0  0
   46.5965   12.6104  -13.5509 C   0  0  0  0  0  0  0  0  0  0  0  0
   45.9342   13.5073  -14.3820 O   0  0  0  0  0  0  0  0  0  0  0  0
   43.7148   14.2705  -12.7669 O   0  0  0  0  0  0  0  0  0  0  0  0
   43.5352   15.4821  -12.1863 C   0  0  0  0  0  0  0  0  0  0  0  0
   42.7409   15.2354  -10.8816 C   0  0  0  0  0  0  0  0  0  0  0  0
   43.1844   16.3352   -9.9525 C   0  0  0  0  0  0  0  0  0  0  0  0
   44.5801   16.7239  -10.3869 C   0  0  0  0  0  0  0  0  0  0  0  0
   44.8995   15.9143  -11.6019 C   0  0  0  0  0  0  0  0  0  0  0  0
 19 20  1  0  0  0
 20  1  1  0  0  0
  1  2  2  0  0  0
  2  3  1  0  0  0
  3  4  2  0  0  0
  4  5  1  0  0  0
  5  6  2  0  0  0
  6 21  1  0  0  0
 21 22  1  0  0  0
 22 23  1  0  0  0
 23 24  1  0  0  0
 24 25  1  0  0  0
 25 26  1  0  0  0
  4  7  1  0  0  0
  7  8  2  0  0  0
  7  9  1  0  0  0
  9 11  1  0  0  0
 11 12  2  0  0  0
 12 13  1  0  0  0
 12 14  1  0  0  0
 14 15  2  0  0  0
 15 16  1  0  0  0
 16 17  2  0  0  0
 17 18  1  0  0  0
  6  1  1  0  0  0
 26 22  1  0  0  0
 17 11  1  0  0  0
  9 10  1  0  0  0
M  END
> <minimizedAffinity>
-6.50518

> <CNNscore>
0.3392296731

> <CNNaffinity>
6.3135461807

> <CNN_VS>
2.1417422295

> <CNNaffinity_variance>
0.0770732611

$$$$
[H]c1nc([H])c(Cl)c(N([H])C(=O)c2c([H])c([H])c(OC([H])([H])[H])c(OC3([H])C([H])([H])C([H])([H])C([H])([H])C3([H])[H])c2[H])c1Cl


 26 28  0  0  0  0  0  0  0  0999 V2000
   42.5382   13.6271  -15.1628 C   0  0  0  0  0  0  0  0  0  0  0  0
   42.0057   12.7721  -16.1207 C   0  0  0  0  0  0  0  0  0  0  0  0
   40.6869   12.3782  -16.0916 C   0  0  0  0  0  0  0  0  0  0  0  0
   39.8290   12.8196  -15.1009 C   0  0  0  0  0  0  0  0  0  0  0  0
   40.3656   13.6613  -14.1633 C   0  0  0  0  0  0  0  0  0  0  0  0
   41.7126   14.0798  -14.1706 C   0  0  0  0  0  0  0  0  0  0  0  0
   38.4235   12.3955  -15.0758 C   0  0  0  0  0  0  0  0  0  0  0  0
   38.0819   11.6208  -14.1179 O   0  0  0  0  0  0  0  0  0  0  0  0
   37.4735   12.7881  -16.0210 N   0  0  0  0  0  0  0  0  0  0  0  0
   37.7178   13.4195  -16.8154 H   0  0  0  0  0  0  0  0  0  0  0  0
   36.1346   12.3108  -15.8932 C   0  0  0  0  0  0  0  0  0  0  0  0
   35.2281   12.8911  -15.0290 C   0  0  0  0  0  0  0  0  0  0  0  0
   35.8128   14.2650  -14.0814 Cl  0  0  0  0  0  0  0  0  0  0  0  0
   33.9297   12.4417  -14.8935 C   0  0  0  0  0  0  0  0  0  0  0  0
   33.5351   11.3840  -15.6454 N   0  0  0  0  0  0  0  0  0  0  0  0
   34.4087   10.8093  -16.4917 C   0  0  0  0  0  0  0  0  0  0  0  0
   35.6960   11.2300  -16.6473 C   0  0  0  0  0  0  0  0  0  0  0  0
   36.8312   10.4857  -17.7449 Cl  0  0  0  0  0  0  0  0  0  0  0  0
   44.9211   13.1578  -14.8689 C   0  0  0  0  0  0  0  0  0  0  0  0
   43.8782   14.0087  -15.2183 O   0  0  0  0  0  0  0  0  0  0  0  0
   42.0961   14.9075  -13.1854 O   0  0  0  0  0  0  0  0  0  0  0  0
   42.8428   14.8534  -12.0554 C   0  0  0  0  0  0  0  0  0  0  0  0
   44.0085   15.8528  -12.2458 C   0  0  0  0  0  0  0  0  0  0  0  0
   44.3358   16.3253  -10.8532 C   0  0  0  0  0  0  0  0  0  0  0  0
   43.0632   16.1911  -10.0470 C   0  0  0  0  0  0  0  0  0  0  0  0
   42.0419   15.5710  -10.9450 C   0  0  0  0  0  0  0  0  0  0  0  0
 19 20  1  0  0  0
 20  1  1  0  0  0
  1  2  2  0  0  0
  2  3  1  0  0  0
  3  4  2  0  0  0
  4  5  1  0  0  0
  5  6  2  0  0  0
  6 21  1  0  0  0
 21 22  1  0  0  0
 22 23  1  0  0  0
 23 24  1  0  0  0
 24 25  1  0  0  0
 25 26  1  0  0  0
  4  7  1  0  0  0
  7  8  2  0  0  0
  7  9  1  0  0  0
  9 11  1  0  0  0
 11 12  2  0  0  0
 12 13  1  0  0  0
 12 14  1  0  0  0
 14 15  2  0  0  0
 15 16  1  0  0  0
 16 17  2  0  0  0
 17 18  1  0  0  0
  6  1  1  0  0  0
 26 22  1  0  0  0
 17 11  1  0  0  0
  9 10  1  0  0  0
M  END
> <minimizedAffinity>
-7.17188

> <CNNscore>
0.2993199825

> <CNNaffinity>
6.4794793129

> <CNN_VS>
1.9394376278

> <CNNaffinity_variance>
0.1355409771

$$$$
[H]c1nc([H])c(Cl)c(N([H])C(=O)c2c([H])c([H])c(OC([H])([H])[H])c(OC3([H])C([H])([H])C([H])([H])C([H])([H])C3([H])[H])c2[H])c1Cl


 26 28  0  0  0  0  0  0  0  0999 V2000
   39.1594   11.2989  -17.5485 C   0  0  0  0  0  0  0  0  0  0  0  0
   40.4471   11.3423  -18.0702 C   0  0  0  0  0  0  0  0  0  0  0  0
   41.4659   12.0182  -17.4377 C   0  0  0  0  0  0  0  0  0  0  0  0
   41.2505   12.6878  -16.2470 C   0  0  0  0  0  0  0  0  0  0  0  0
   39.9780   12.6375  -15.7433 C   0  0  0  0  0  0  0  0  0  0  0  0
   38.9170   11.9524  -16.3715 C   0  0  0  0  0  0  0  0  0  0  0  0
   42.3417   13.4068  -15.5775 C   0  0  0  0  0  0  0  0  0  0  0  0
   43.0654   14.1565  -16.3183 O   0  0  0  0  0  0  0  0  0  0  0  0
   42.6157   13.3115  -14.2115 N   0  0  0  0  0  0  0  0  0  0  0  0
   42.0454   12.7093  -13.5779 H   0  0  0  0  0  0  0  0  0  0  0  0
   43.7053   14.0592  -13.6723 C   0  0  0  0  0  0  0  0  0  0  0  0
   45.0197   13.6880  -13.8717 C   0  0  0  0  0  0  0  0  0  0  0  0
   45.2880   12.2296  -14.8353 Cl  0  0  0  0  0  0  0  0  0  0  0  0
   46.0850   14.3999  -13.3574 C   0  0  0  0  0  0  0  0  0  0  0  0
   45.8205   15.5110  -12.6256 N   0  0  0  0  0  0  0  0  0  0  0  0
   44.5439   15.8838  -12.4237 C   0  0  0  0  0  0  0  0  0  0  0  0
   43.4719   15.2020  -12.9182 C   0  0  0  0  0  0  0  0  0  0  0  0
   41.8146   15.6841  -12.6575 Cl  0  0  0  0  0  0  0  0  0  0  0  0
   37.9220   10.7243  -19.5791 C   0  0  0  0  0  0  0  0  0  0  0  0
   38.1475   10.6060  -18.2120 O   0  0  0  0  0  0  0  0  0  0  0  0
   37.7228   11.9911  -15.7590 O   0  0  0  0  0  0  0  0  0  0  0  0
   37.0849   12.7554  -14.8390 C   0  0  0  0  0  0  0  0  0  0  0  0
   35.5689   12.5925  -15.1013 C   0  0  0  0  0  0  0  0  0  0  0  0
   34.9272   12.7764  -13.7508 C   0  0  0  0  0  0  0  0  0  0  0  0
   35.9623   12.3663  -12.7271 C   0  0  0  0  0  0  0  0  0  0  0  0
   37.2097   12.0309  -13.4791 C   0  0  0  0  0  0  0  0  0  0  0  0
 19 20  1  0  0  0
 20  1  1  0  0  0
  1  2  2  0  0  0
  2  3  1  0  0  0
  3  4  2  0  0  0
  4  5  1  0  0  0
  5  6  2  0  0  0
  6 21  1  0  0  0
 21 22  1  0  0  0
 22 23  1  0  0  0
 23 24  1  0  0  0
 24 25  1  0  0  0
 25 26  1  0  0  0
  4  7  1  0  0  0
  7  8  2  0  0  0
  7  9  1  0  0  0
  9 11  1  0  0  0
 11 12  2  0  0  0
 12 13  1  0  0  0
 12 14  1  0  0  0
 14 15  2  0  0  0
 15 16  1  0  0  0
 16 17  2  0  0  0
 17 18  1  0  0  0
  6  1  1  0  0  0
 26 22  1  0  0  0
 17 11  1  0  0  0
  9 10  1  0  0  0
M  END
> <minimizedAffinity>
-7.22803

> <CNNscore>
0.2677664161

> <CNNaffinity>
6.4587988853

> <CNN_VS>
1.7294493914

> <CNNaffinity_variance>
0.0481236465

$$$$
[H]c1nc([H])c(Cl)c(N([H])C(=O)c2c([H])c([H])c(OC([H])([H])[H])c(OC3([H])C([H])([H])C([H])([H])C([H])([H])C3([H])[H])c2[H])c1Cl


 26 28  0  0  0  0  0  0  0  0999 V2000
   42.3967   13.0822  -15.8436 C   0  0  0  0  0  0  0  0  0  0  0  0
   41.3868   12.5284  -16.6218 C   0  0  0  0  0  0  0  0  0  0  0  0
   40.0813   12.4741  -16.1885 C   0  0  0  0  0  0  0  0  0  0  0  0
   39.7158   12.9723  -14.9514 C   0  0  0  0  0  0  0  0  0  0  0  0
   40.7195   13.5153  -14.1944 C   0  0  0  0  0  0  0  0  0  0  0  0
   42.0642   13.5830  -14.6149 C   0  0  0  0  0  0  0  0  0  0  0  0
   38.3214   12.9113  -14.4953 C   0  0  0  0  0  0  0  0  0  0  0  0
   38.0597   12.0537  -13.5840 O   0  0  0  0  0  0  0  0  0  0  0  0
   37.3009   13.7222  -14.9964 N   0  0  0  0  0  0  0  0  0  0  0  0
   37.4792   14.4324  -15.7402 H   0  0  0  0  0  0  0  0  0  0  0  0
   35.9810   13.5721  -14.4747 C   0  0  0  0  0  0  0  0  0  0  0  0
   35.5297   14.3078  -13.3976 C   0  0  0  0  0  0  0  0  0  0  0  0
   36.6767   15.4538  -12.6914 Cl  0  0  0  0  0  0  0  0  0  0  0  0
   34.2563   14.1748  -12.8808 C   0  0  0  0  0  0  0  0  0  0  0  0
   33.4183   13.2805  -13.4620 N   0  0  0  0  0  0  0  0  0  0  0  0
   33.8457   12.5570  -14.5125 C   0  0  0  0  0  0  0  0  0  0  0  0
   35.0960   12.6659  -15.0447 C   0  0  0  0  0  0  0  0  0  0  0  0
   35.6525   11.7281  -16.4078 Cl  0  0  0  0  0  0  0  0  0  0  0  0
   44.4514   11.9782  -16.5812 C   0  0  0  0  0  0  0  0  0  0  0  0
   43.7104   13.1231  -16.3093 O   0  0  0  0  0  0  0  0  0  0  0  0
   42.9385   14.1439  -13.7641 O   0  0  0  0  0  0  0  0  0  0  0  0
   42.9240   14.7231  -12.5386 C   0  0  0  0  0  0  0  0  0  0  0  0
   43.7181   13.7874  -11.5964 C   0  0  0  0  0  0  0  0  0  0  0  0
   44.3128   14.7058  -10.5609 C   0  0  0  0  0  0  0  0  0  0  0  0
   44.4613   16.0571  -11.2238 C   0  0  0  0  0  0  0  0  0  0  0  0
   43.8815   15.9353  -12.5960 C   0  0  0  0  0  0  0  0  0  0  0  0
 19 20  1  0  0  0
 20  1  1  0  0  0
  1  2  2  0  0  0
  2  3  1  0  0  0
  3  4  2  0  0  0
  4  5  1  0  0  0
  5  6  2  0  0  0
  6 21  1  0  0  0
 21 22  1  0  0  0
 22 23  1  0  0  0
 23 24  1  0  0  0
 24 25  1  0  0  0
 25 26  1  0  0  0
  4  7  1  0  0  0
  7  8  2  0  0  0
  7  9  1  0  0  0
  9 11  1  0  0  0
 11 12  2  0  0  0
 12 13  1  0  0  0
 12 14  1  0  0  0
 14 15  2  0  0  0
 15 16  1  0  0  0
 16 17  2  0  0  0
 17 18  1  0  0  0
  6  1  1  0  0  0
 26 22  1  0  0  0
 17 11  1  0  0  0
  9 10  1  0  0  0
M  END
> <minimizedAffinity>
-7.22869

> <CNNscore>
0.2640484869

> <CNNaffinity>
6.3477301598

> <CNN_VS>
1.6761085987

> <CNNaffinity_variance>
0.0757252946

$$$$
[H]c1nc([H])c(Cl)c(N([H])C(=O)c2c([H])c([H])c(OC([H])([H])[H])c(OC3([H])C([H])([H])C([H])([H])C([H])([H])C3([H])[H])c2[H])c1Cl


 26 28  0  0  0  0  0  0  0  0999 V2000
   37.3387   11.3680  -16.4094 C   0  0  0  0  0  0  0  0  0  0  0  0
   38.4331   11.1170  -17.2288 C   0  0  0  0  0  0  0  0  0  0  0  0
   39.6520   11.7218  -17.0202 C   0  0  0  0  0  0  0  0  0  0  0  0
   39.8414   12.6115  -15.9786 C   0  0  0  0  0  0  0  0  0  0  0  0
   38.7559   12.8503  -15.1786 C   0  0  0  0  0  0  0  0  0  0  0  0
   37.4968   12.2439  -15.3708 C   0  0  0  0  0  0  0  0  0  0  0  0
   41.1442   13.2531  -15.7617 C   0  0  0  0  0  0  0  0  0  0  0  0
   41.4475   14.2049  -16.5596 O   0  0  0  0  0  0  0  0  0  0  0  0
   42.0382   12.8822  -14.7551 N   0  0  0  0  0  0  0  0  0  0  0  0
   41.8227   12.1101  -14.0866 H   0  0  0  0  0  0  0  0  0  0  0  0
   43.2778   13.5803  -14.6413 C   0  0  0  0  0  0  0  0  0  0  0  0
   43.4540   14.6228  -13.7541 C   0  0  0  0  0  0  0  0  0  0  0  0
   42.0574   15.0534  -12.7584 Cl  0  0  0  0  0  0  0  0  0  0  0  0
   44.6463   15.3082  -13.6316 C   0  0  0  0  0  0  0  0  0  0  0  0
   45.6847   14.9352  -14.4206 N   0  0  0  0  0  0  0  0  0  0  0  0
   45.5262   13.9207  -15.2896 C   0  0  0  0  0  0  0  0  0  0  0  0
   44.3623   13.2255  -15.4332 C   0  0  0  0  0  0  0  0  0  0  0  0
   44.1546   11.9087  -16.5602 Cl  0  0  0  0  0  0  0  0  0  0  0  0
   35.1055   11.3169  -17.4069 C   0  0  0  0  0  0  0  0  0  0  0  0
   36.1162   10.7402  -16.6455 O   0  0  0  0  0  0  0  0  0  0  0  0
   36.5253   12.5755  -14.5053 O   0  0  0  0  0  0  0  0  0  0  0  0
   35.6234   13.5729  -14.3344 C   0  0  0  0  0  0  0  0  0  0  0  0
   34.2595   12.8956  -14.0610 C   0  0  0  0  0  0  0  0  0  0  0  0
   33.5183   13.8724  -13.1859 C   0  0  0  0  0  0  0  0  0  0  0  0
   34.5714   14.6656  -12.4448 C   0  0  0  0  0  0  0  0  0  0  0  0
   35.9001   14.2056  -12.9514 C   0  0  0  0  0  0  0  0  0  0  0  0
 19 20  1  0  0  0
 20  1  1  0  0  0
  1  2  2  0  0  0
  2  3  1  0  0  0
  3  4  2  0  0  0
  4  5  1  0  0  0
  5  6  2  0  0  0
  6 21  1  0  0  0
 21 22  1  0  0  0
 22 23  1  0  0  0
 23 24  1  0  0  0
 24 25  1  0  0  0
 25 26  1  0  0  0
  4  7  1  0  0  0
  7  8  2  0  0  0
  7  9  1  0  0  0
  9 11  1  0  0  0
 11 12  2  0  0  0
 12 13  1  0  0  0
 12 14  1  0  0  0
 14 15  2  0  0  0
 15 16  1  0  0  0
 16 17  2  0  0  0
 17 18  1  0  0  0
  6  1  1  0  0  0
 26 22  1  0  0  0
 17 11  1  0  0  0
  9 10  1  0  0  0
M  END
> <minimizedAffinity>
-7.18632

> <CNNscore>
0.2573933303

> <CNNaffinity>
6.4567213058

> <CNN_VS>
1.6619169712

> <CNNaffinity_variance>
0.0813004449

$$$$
[H]c1nc([H])c(Cl)c(N([H])C(=O)c2c([H])c([H])c(OC([H])([H])[H])c(OC3([H])C([H])([H])C([H])([H])C([H])([H])C3([H])[H])c2[H])c1Cl


 26 28  0  0  0  0  0  0  0  0999 V2000
   42.4942   13.1325  -15.7426 C   0  0  0  0  0  0  0  0  0  0  0  0
   41.5079   12.5540  -16.5330 C   0  0  0  0  0  0  0  0  0  0  0  0
   40.1945   12.4888  -16.1258 C   0  0  0  0  0  0  0  0  0  0  0  0
   39.7971   12.9999  -14.9038 C   0  0  0  0  0  0  0  0  0  0  0  0
   40.7779   13.5671  -14.1346 C   0  0  0  0  0  0  0  0  0  0  0  0
   42.1300   13.6465  -14.5284 C   0  0  0  0  0  0  0  0  0  0  0  0
   38.3945   12.9270  -14.4755 C   0  0  0  0  0  0  0  0  0  0  0  0
   38.1123   12.0318  -13.6076 O   0  0  0  0  0  0  0  0  0  0  0  0
   37.3872   13.7651  -14.9583 N   0  0  0  0  0  0  0  0  0  0  0  0
   37.5823   14.5063  -15.6669 H   0  0  0  0  0  0  0  0  0  0  0  0
   36.0575   13.5999  -14.4670 C   0  0  0  0  0  0  0  0  0  0  0  0
   35.1652   12.7206  -15.0465 C   0  0  0  0  0  0  0  0  0  0  0  0
   35.7559   11.8027  -16.4378 Cl  0  0  0  0  0  0  0  0  0  0  0  0
   33.8758   12.5488  -14.5836 C   0  0  0  0  0  0  0  0  0  0  0  0
   33.4759   13.2792  -13.5128 N   0  0  0  0  0  0  0  0  0  0  0  0
   34.3358   14.1397  -12.9387 C   0  0  0  0  0  0  0  0  0  0  0  0
   35.6139   14.3310  -13.3726 C   0  0  0  0  0  0  0  0  0  0  0  0
   36.7313   15.4472  -12.6289 Cl  0  0  0  0  0  0  0  0  0  0  0  0
   44.4415   12.1200  -16.8233 C   0  0  0  0  0  0  0  0  0  0  0  0
   43.8166   13.1840  -16.1820 O   0  0  0  0  0  0  0  0  0  0  0  0
   42.9792   14.2313  -13.6683 O   0  0  0  0  0  0  0  0  0  0  0  0
   42.9893   15.2917  -12.8241 C   0  0  0  0  0  0  0  0  0  0  0  0
   43.2422   14.7273  -11.4059 C   0  0  0  0  0  0  0  0  0  0  0  0
   43.9638   15.8325  -10.6798 C   0  0  0  0  0  0  0  0  0  0  0  0
   44.6863   16.6372  -11.7371 C   0  0  0  0  0  0  0  0  0  0  0  0
   44.3155   16.0499  -13.0606 C   0  0  0  0  0  0  0  0  0  0  0  0
 19 20  1  0  0  0
 20  1  1  0  0  0
  1  2  2  0  0  0
  2  3  1  0  0  0
  3  4  2  0  0  0
  4  5  1  0  0  0
  5  6  2  0  0  0
  6 21  1  0  0  0
 21 22  1  0  0  0
 22 23  1  0  0  0
 23 24  1  0  0  0
 24 25  1  0  0  0
 25 26  1  0  0  0
  4  7  1  0  0  0
  7  8  2  0  0  0
  7  9  1  0  0  0
  9 11  1  0  0  0
 11 12  2  0  0  0
 12 13  1  0  0  0
 12 14  1  0  0  0
 14 15  2  0  0  0
 15 16  1  0  0  0
 16 17  2  0  0  0
 17 18  1  0  0  0
  6  1  1  0  0  0
 26 22  1  0  0  0
 17 11  1  0  0  0
  9 10  1  0  0  0
M  END
> <minimizedAffinity>
-7.16896

> <CNNscore>
0.2150182426

> <CNNaffinity>
6.2534756660

> <CNN_VS>
1.3446114063

> <CNNaffinity_variance>
0.0676352456

$$$$
[H]c1nc([H])c(Cl)c(N([H])C(=O)c2c([H])c([H])c(OC([H])([H])[H])c(OC3([H])C([H])([H])C([H])([H])C([H])([H])C3([H])[H])c2[H])c1Cl


 26 28  0  0  0  0  0  0  0  0999 V2000
   45.2258   12.8302  -15.4073 C   0  0  0  0  0  0  0  0  0  0  0  0
   44.5164   12.2626  -16.4594 C   0  0  0  0  0  0  0  0  0  0  0  0
   43.1489   12.3823  -16.5631 C   0  0  0  0  0  0  0  0  0  0  0  0
   42.4169   13.0777  -15.6181 C   0  0  0  0  0  0  0  0  0  0  0  0
   43.1272   13.6321  -14.5868 C   0  0  0  0  0  0  0  0  0  0  0  0
   44.5277   13.5241  -14.4575 C   0  0  0  0  0  0  0  0  0  0  0  0
   40.9585   13.2016  -15.7348 C   0  0  0  0  0  0  0  0  0  0  0  0
   40.5275   14.0091  -16.6273 O   0  0  0  0  0  0  0  0  0  0  0  0
   40.0502   12.4993  -14.9399 N   0  0  0  0  0  0  0  0  0  0  0  0
   40.3673   11.8324  -14.2022 H   0  0  0  0  0  0  0  0  0  0  0  0
   38.6525   12.7022  -15.1453 C   0  0  0  0  0  0  0  0  0  0  0  0
   37.9422   12.0035  -16.1005 C   0  0  0  0  0  0  0  0  0  0  0  0
   38.8570   10.8361  -17.0638 Cl  0  0  0  0  0  0  0  0  0  0  0  0
   36.5903   12.1877  -16.3119 C   0  0  0  0  0  0  0  0  0  0  0  0
   35.9389   13.0963  -15.5438 N   0  0  0  0  0  0  0  0  0  0  0  0
   36.6194   13.7841  -14.6092 C   0  0  0  0  0  0  0  0  0  0  0  0
   37.9532   13.6243  -14.3772 C   0  0  0  0  0  0  0  0  0  0  0  0
   38.8381   14.5157  -13.1650 Cl  0  0  0  0  0  0  0  0  0  0  0  0
   47.2750   12.3975  -14.1430 C   0  0  0  0  0  0  0  0  0  0  0  0
   46.6112   12.6920  -15.3289 O   0  0  0  0  0  0  0  0  0  0  0  0
   45.0864   14.1204  -13.3921 O   0  0  0  0  0  0  0  0  0  0  0  0
   45.4921   15.3614  -13.0279 C   0  0  0  0  0  0  0  0  0  0  0  0
   45.7110   16.1583  -14.3360 C   0  0  0  0  0  0  0  0  0  0  0  0
   45.4194   17.5885  -13.9634 C   0  0  0  0  0  0  0  0  0  0  0  0
   44.4519   17.5383  -12.8020 C   0  0  0  0  0  0  0  0  0  0  0  0
   44.2567   16.0965  -12.4597 C   0  0  0  0  0  0  0  0  0  0  0  0
 19 20  1  0  0  0
 20  1  1  0  0  0
  1  2  2  0  0  0
  2  3  1  0  0  0
  3  4  2  0  0  0
  4  5  1  0  0  0
  5  6  2  0  0  0
  6 21  1  0  0  0
 21 22  1  0  0  0
 22 23  1  0  0  0
 23 24  1  0  0  0
 24 25  1  0  0  0
 25 26  1  0  0  0
  4  7  1  0  0  0
  7  8  2  0  0  0
  7  9  1  0  0  0
  9 11  1  0  0  0
 11 12  2  0  0  0
 12 13  1  0  0  0
 12 14  1  0  0  0
 14 15  2  0  0  0
 15 16  1  0  0  0
 16 17  2  0  0  0
 17 18  1  0  0  0
  6  1  1  0  0  0
 26 22  1  0  0  0
 17 11  1  0  0  0
  9 10  1  0  0  0
M  END
> <minimizedAffinity>
-6.85756

> <CNNscore>
0.2011440247

> <CNNaffinity>
6.1871824265

> <CNN_VS>
1.2445148230

> <CNNaffinity_variance>
0.1299673319

$$$$
[H]c1nc([H])c(Cl)c(N([H])C(=O)c2c([H])c([H])c(OC([H])([H])[H])c(OC3([H])C([H])([H])C([H])([H])C([H])([H])C3([H])[H])c2[H])c1Cl


 26 28  0  0  0  0  0  0  0  0999 V2000
   39.4842   11.8237  -16.7844 C   0  0  0  0  0  0  0  0  0  0  0  0
   38.1584   11.4074  -16.7509 C   0  0  0  0  0  0  0  0  0  0  0  0
   37.2765   11.8634  -15.7973 C   0  0  0  0  0  0  0  0  0  0  0  0
   37.6747   12.7623  -14.8247 C   0  0  0  0  0  0  0  0  0  0  0  0
   38.9829   13.1648  -14.8685 C   0  0  0  0  0  0  0  0  0  0  0  0
   39.9062   12.7128  -15.8344 C   0  0  0  0  0  0  0  0  0  0  0  0
   36.7289   13.2448  -13.8105 C   0  0  0  0  0  0  0  0  0  0  0  0
   36.4951   12.4557  -12.8321 O   0  0  0  0  0  0  0  0  0  0  0  0
   36.0937   14.4872  -13.8649 N   0  0  0  0  0  0  0  0  0  0  0  0
   36.2614   15.1557  -14.6488 H   0  0  0  0  0  0  0  0  0  0  0  0
   35.1922   14.8479  -12.8189 C   0  0  0  0  0  0  0  0  0  0  0  0
   35.6138   15.5073  -11.6819 C   0  0  0  0  0  0  0  0  0  0  0  0
   37.3386   15.8854  -11.5854 Cl  0  0  0  0  0  0  0  0  0  0  0  0
   34.7550   15.8634  -10.6612 C   0  0  0  0  0  0  0  0  0  0  0  0
   33.4418   15.5482  -10.7883 N   0  0  0  0  0  0  0  0  0  0  0  0
   33.0179   14.9056  -11.8914 C   0  0  0  0  0  0  0  0  0  0  0  0
   33.8410   14.5412  -12.9152 C   0  0  0  0  0  0  0  0  0  0  0  0
   33.2929   13.7074  -14.3475 Cl  0  0  0  0  0  0  0  0  0  0  0  0
   39.9880   11.2050  -19.0970 C   0  0  0  0  0  0  0  0  0  0  0  0
   40.3544   11.3442  -17.7628 O   0  0  0  0  0  0  0  0  0  0  0  0
   41.1563   13.1956  -15.7514 O   0  0  0  0  0  0  0  0  0  0  0  0
   42.3361   12.8489  -15.1811 C   0  0  0  0  0  0  0  0  0  0  0  0
   43.4495   13.2978  -16.1572 C   0  0  0  0  0  0  0  0  0  0  0  0
   44.6306   13.6020  -15.2730 C   0  0  0  0  0  0  0  0  0  0  0  0
   44.0657   13.9898  -13.9247 C   0  0  0  0  0  0  0  0  0  0  0  0
   42.5823   13.8290  -14.0113 C   0  0  0  0  0  0  0  0  0  0  0  0
 19 20  1  0  0  0
 20  1  1  0  0  0
  1  2  2  0  0  0
  2  3  1  0  0  0
  3  4  2  0  0  0
  4  5  1  0  0  0
  5  6  2  0  0  0
  6 21  1  0  0  0
 21 22  1  0  0  0
 22 23  1  0  0  0
 23 24  1  0  0  0
 24 25  1  0  0  0
 25 26  1  0  0  0
  4  7  1  0  0  0
  7  8  2  0  0  0
  7  9  1  0  0  0
  9 11  1  0  0  0
 11 12  2  0  0  0
 12 13  1  0  0  0
 12 14  1  0  0  0
 14 15  2  0  0  0
 15 16  1  0  0  0
 16 17  2  0  0  0
 17 18  1  0  0  0
  6  1  1  0  0  0
 26 22  1  0  0  0
 17 11  1  0  0  0
  9 10  1  0  0  0
M  END
> <minimizedAffinity>
-7.65187

> <CNNscore>
0.1881967783

> <CNNaffinity>
6.5530309677

> <CNN_VS>
1.2332593203

> <CNNaffinity_variance>
0.0754833221

$$$$
[H]c1c([H])c(N([H])C(=O)C2(C(=O)N([H])c3c([H])c([H])c(-c4c([H])c([H])c([H])c5c4c(N([H])[H])nn5[H])c([H])c3[H])C([H])([H])C2([H])[H])c([H])c([H])c1F


 37 41  0  0  0  0  0  0  0  0999 V2000
   40.1602   13.0253  -15.1680 C   0  0  0  0  0  0  0  0  0  0  0  0
   41.4964   12.7311  -15.2907 C   0  0  0  0  0  0  0  0  0  0  0  0
   42.4429   13.3782  -14.5313 C   0  0  0  0  0  0  0  0  0  0  0  0
   42.1137   14.3676  -13.5932 C   0  0  0  0  0  0  0  0  0  0  0  0
   40.7896   14.6617  -13.4679 C   0  0  0  0  0  0  0  0  0  0  0  0
   39.8300   13.9960  -14.2483 C   0  0  0  0  0  0  0  0  0  0  0  0
   41.7174   12.2416  -17.7288 N   0  0  0  0  0  0  0  0  0  0  0  0
   40.4157   11.7387  -17.9370 C   0  0  0  0  0  0  0  0  0  0  0  0
   40.0459   11.0583  -19.0630 N   0  0  0  0  0  0  0  0  0  0  0  0
   38.7824   10.7350  -18.9888 N   0  0  0  0  0  0  0  0  0  0  0  0
   38.2573   11.1713  -17.8398 C   0  0  0  0  0  0  0  0  0  0  0  0
   37.0212   11.1267  -17.2706 C   0  0  0  0  0  0  0  0  0  0  0  0
   36.7842   11.7075  -16.0332 C   0  0  0  0  0  0  0  0  0  0  0  0
   37.8061   12.3352  -15.3705 C   0  0  0  0  0  0  0  0  0  0  0  0
   39.0913   12.3951  -15.9340 C   0  0  0  0  0  0  0  0  0  0  0  0
   39.2868   11.8180  -17.1464 C   0  0  0  0  0  0  0  0  0  0  0  0
   41.8970   13.2538  -17.7959 H   0  0  0  0  0  0  0  0  0  0  0  0
   42.4874   11.5937  -17.5093 H   0  0  0  0  0  0  0  0  0  0  0  0
   38.2654   10.2043  -19.7389 H   0  0  0  0  0  0  0  0  0  0  0  0
   43.1753   14.9692  -12.8365 N   0  0  0  0  0  0  0  0  0  0  0  0
   43.3561   16.3071  -12.5535 C   0  0  0  0  0  0  0  0  0  0  0  0
   42.5429   17.1668  -13.0132 O   0  0  0  0  0  0  0  0  0  0  0  0
   43.9519   14.3145  -12.4880 H   0  0  0  0  0  0  0  0  0  0  0  0
   44.4503   16.8643  -11.7426 C   0  0  0  0  0  0  0  0  0  0  0  0
   45.1472   18.0830  -12.2939 C   0  0  0  0  0  0  0  0  0  0  0  0
   45.7821   16.7756  -12.4644 C   0  0  0  0  0  0  0  0  0  0  0  0
   44.5173   16.8058  -10.2714 C   0  0  0  0  0  0  0  0  0  0  0  0
   45.0569   17.8550   -9.7392 O   0  0  0  0  0  0  0  0  0  0  0  0
   44.0978   15.8357   -9.3866 N   0  0  0  0  0  0  0  0  0  0  0  0
   43.5817   14.9850   -9.7570 H   0  0  0  0  0  0  0  0  0  0  0  0
   44.2022   15.8470   -7.9688 C   0  0  0  0  0  0  0  0  0  0  0  0
   43.2969   16.4257   -7.1196 C   0  0  0  0  0  0  0  0  0  0  0  0
   43.4919   16.4238   -5.7470 C   0  0  0  0  0  0  0  0  0  0  0  0
   44.6043   15.8358   -5.2157 C   0  0  0  0  0  0  0  0  0  0  0  0
   44.7931   15.8349   -3.8801 F   0  0  0  0  0  0  0  0  0  0  0  0
   45.5017   15.2611   -6.0557 C   0  0  0  0  0  0  0  0  0  0  0  0
   45.3322   15.2513   -7.4023 C   0  0  0  0  0  0  0  0  0  0  0  0
  7  8  1  0  0  0
  8  9  2  0  0  0
  9 10  1  0  0  0
 10 11  1  0  0  0
 11 12  2  0  0  0
 12 13  1  0  0  0
 13 14  2  0  0  0
 14 15  1  0  0  0
 15  1  1  0  0  0
  1  2  2  0  0  0
  2  3  1  0  0  0
  3  4  2  0  0  0
  4 20  1  0  0  0
 20 21  1  0  0  0
 21 22  2  0  0  0
 21 24  1  0  0  0
 24 25  1  0  0  0
 25 26  1  0  0  0
 24 27  1  0  0  0
 27 28  2  0  0  0
 27 29  1  0  0  0
 29 31  1  0  0  0
 31 32  2  0  0  0
 32 33  1  0  0  0
 33 34  2  0  0  0
 34 35  1  0  0  0
 34 36  1  0  0  0
 36 37  2  0  0  0
  4  5  1  0  0  0
  5  6  2  0  0  0
 15 16  2  0  0  0
 16  8  1  0  0  0
 16 11  1  0  0  0
  6  1  1  0  0  0
 26 24  1  0  0  0
 37 31  1  0  0  0
  7 17  1  0  0  0
  7 18  1  0  0  0
 10 19  1  0  0  0
 20 23  1  0  0  0
 29 30  1  0  0  0
M  END
> <minimizedAffinity>
-8.14526

> <CNNscore>
0.6346449256

> <CNNaffinity>
6.4036903381

> <CNN_VS>
4.0640697479

> <CNNaffinity_variance>
0.2715875804

$$$$
[H]c1c([H])c(N([H])C(=O)C2(C(=O)N([H])c3c([H])c([H])c(-c4c([H])c([H])c([H])c5c4c(N([H])[H])nn5[H])c([H])c3[H])C([H])([H])C2([H])[H])c([H])c([H])c1F


 37 41  0  0  0  0  0  0  0  0999 V2000
   38.0059   13.0412  -15.0566 C   0  0  0  0  0  0  0  0  0  0  0  0
   39.1007   13.0697  -14.2274 C   0  0  0  0  0  0  0  0  0  0  0  0
   39.1759   13.9503  -13.1737 C   0  0  0  0  0  0  0  0  0  0  0  0
   38.1551   14.8656  -12.8778 C   0  0  0  0  0  0  0  0  0  0  0  0
   37.0673   14.8399  -13.6972 C   0  0  0  0  0  0  0  0  0  0  0  0
   36.9996   13.9374  -14.7714 C   0  0  0  0  0  0  0  0  0  0  0  0
   40.6892   13.5405  -16.5219 N   0  0  0  0  0  0  0  0  0  0  0  0
   40.0441   12.5486  -17.2906 C   0  0  0  0  0  0  0  0  0  0  0  0
   40.5924   11.9959  -18.4137 N   0  0  0  0  0  0  0  0  0  0  0  0
   39.7643   11.1257  -18.9272 N   0  0  0  0  0  0  0  0  0  0  0  0
   38.6500   11.0544  -18.1926 C   0  0  0  0  0  0  0  0  0  0  0  0
   37.4890   10.3480  -18.2750 C   0  0  0  0  0  0  0  0  0  0  0  0
   36.4826   10.5173  -17.3352 C   0  0  0  0  0  0  0  0  0  0  0  0
   36.6558   11.4065  -16.3072 C   0  0  0  0  0  0  0  0  0  0  0  0
   37.8439   12.1476  -16.1975 C   0  0  0  0  0  0  0  0  0  0  0  0
   38.8061   11.9579  -17.1352 C   0  0  0  0  0  0  0  0  0  0  0  0
   40.3610   14.5163  -16.5573 H   0  0  0  0  0  0  0  0  0  0  0  0
   41.4891   13.2858  -15.9251 H   0  0  0  0  0  0  0  0  0  0  0  0
   39.9631   10.5670  -19.7988 H   0  0  0  0  0  0  0  0  0  0  0  0
   38.3224   15.7293  -11.7432 N   0  0  0  0  0  0  0  0  0  0  0  0
   37.5862   15.7417  -10.5767 C   0  0  0  0  0  0  0  0  0  0  0  0
   36.6090   14.9435  -10.4365 O   0  0  0  0  0  0  0  0  0  0  0  0
   39.0742   16.4920  -11.8227 H   0  0  0  0  0  0  0  0  0  0  0  0
   37.8249   16.6325   -9.4300 C   0  0  0  0  0  0  0  0  0  0  0  0
   36.6850   17.5332   -9.0250 C   0  0  0  0  0  0  0  0  0  0  0  0
   37.7668   18.0935   -9.8356 C   0  0  0  0  0  0  0  0  0  0  0  0
   38.7139   16.3202   -8.2966 C   0  0  0  0  0  0  0  0  0  0  0  0
   38.6711   15.0777   -7.9369 O   0  0  0  0  0  0  0  0  0  0  0  0
   39.5740   17.1215   -7.5768 N   0  0  0  0  0  0  0  0  0  0  0  0
   39.7081   18.1328   -7.8707 H   0  0  0  0  0  0  0  0  0  0  0  0
   40.4020   16.7475   -6.4834 C   0  0  0  0  0  0  0  0  0  0  0  0
   40.0182   16.7574   -5.1687 C   0  0  0  0  0  0  0  0  0  0  0  0
   40.9006   16.4113   -4.1569 C   0  0  0  0  0  0  0  0  0  0  0  0
   42.1821   16.0499   -4.4619 C   0  0  0  0  0  0  0  0  0  0  0  0
   43.0397   15.7138   -3.4765 F   0  0  0  0  0  0  0  0  0  0  0  0
   42.5635   16.0387   -5.7640 C   0  0  0  0  0  0  0  0  0  0  0  0
   41.7175   16.3741   -6.7709 C   0  0  0  0  0  0  0  0  0  0  0  0
  7  8  1  0  0  0
  8  9  2  0  0  0
  9 10  1  0  0  0
 10 11  1  0  0  0
 11 12  2  0  0  0
 12 13  1  0  0  0
 13 14  2  0  0  0
 14 15  1  0  0  0
 15  1  1  0  0  0
  1  2  2  0  0  0
  2  3  1  0  0  0
  3  4  2  0  0  0
  4 20  1  0  0  0
 20 21  1  0  0  0
 21 22  2  0  0  0
 21 24  1  0  0  0
 24 25  1  0  0  0
 25 26  1  0  0  0
 24 27  1  0  0  0
 27 28  2  0  0  0
 27 29  1  0  0  0
 29 31  1  0  0  0
 31 32  2  0  0  0
 32 33  1  0  0  0
 33 34  2  0  0  0
 34 35  1  0  0  0
 34 36  1  0  0  0
 36 37  2  0  0  0
  4  5  1  0  0  0
  5  6  2  0  0  0
 15 16  2  0  0  0
 16  8  1  0  0  0
 16 11  1  0  0  0
  6  1  1  0  0  0
 26 24  1  0  0  0
 37 31  1  0  0  0
  7 17  1  0  0  0
  7 18  1  0  0  0
 10 19  1  0  0  0
 20 23  1  0  0  0
 29 30  1  0  0  0
M  END
> <minimizedAffinity>
-8.41966

> <CNNscore>
0.4626146555

> <CNNaffinity>
6.4699578285

> <CNN_VS>
2.9930973053

> <CNNaffinity_variance>
0.4544492662

$$$$
[H]c1c([H])c(N([H])C(=O)C2(C(=O)N([H])c3c([H])c([H])c(-c4c([H])c([H])c([H])c5c4c(N([H])[H])nn5[H])c([H])c3[H])C([H])([H])C2([H])[H])c([H])c([H])c1F


 37 41  0  0  0  0  0  0  0  0999 V2000
   36.7058   12.9256  -14.6297 C   0  0  0  0  0  0  0  0  0  0  0  0
   36.3401   12.3310  -13.4467 C   0  0  0  0  0  0  0  0  0  0  0  0
   35.1668   12.6656  -12.8119 C   0  0  0  0  0  0  0  0  0  0  0  0
   34.2765   13.6221  -13.3216 C   0  0  0  0  0  0  0  0  0  0  0  0
   34.6351   14.2135  -14.4950 C   0  0  0  0  0  0  0  0  0  0  0  0
   35.8357   13.8658  -15.1359 C   0  0  0  0  0  0  0  0  0  0  0  0
   35.6064   10.9653  -16.7617 N   0  0  0  0  0  0  0  0  0  0  0  0
   36.9703   11.1177  -17.0893 C   0  0  0  0  0  0  0  0  0  0  0  0
   37.5610   10.4915  -18.1506 N   0  0  0  0  0  0  0  0  0  0  0  0
   38.8295   10.8003  -18.1955 N   0  0  0  0  0  0  0  0  0  0  0  0
   39.1428   11.6268  -17.1931 C   0  0  0  0  0  0  0  0  0  0  0  0
   40.2869   12.2301  -16.7677 C   0  0  0  0  0  0  0  0  0  0  0  0
   40.2891   13.0438  -15.6439 C   0  0  0  0  0  0  0  0  0  0  0  0
   39.1252   13.2465  -14.9499 C   0  0  0  0  0  0  0  0  0  0  0  0
   37.9303   12.6373  -15.3671 C   0  0  0  0  0  0  0  0  0  0  0  0
   37.9653   11.8466  -16.4692 C   0  0  0  0  0  0  0  0  0  0  0  0
   35.3313   10.4036  -15.9431 H   0  0  0  0  0  0  0  0  0  0  0  0
   34.8866   11.4176  -17.3433 H   0  0  0  0  0  0  0  0  0  0  0  0
   39.4978   10.4394  -18.9267 H   0  0  0  0  0  0  0  0  0  0  0  0
   33.0683   13.8853  -12.5919 N   0  0  0  0  0  0  0  0  0  0  0  0
   32.8462   14.8749  -11.6570 C   0  0  0  0  0  0  0  0  0  0  0  0
   33.7885   15.6608  -11.3312 O   0  0  0  0  0  0  0  0  0  0  0  0
   32.2511   13.2063  -12.7485 H   0  0  0  0  0  0  0  0  0  0  0  0
   31.5720   15.1175  -10.9620 C   0  0  0  0  0  0  0  0  0  0  0  0
   30.3951   14.2802  -11.3964 C   0  0  0  0  0  0  0  0  0  0  0  0
   30.5106   15.6458  -11.9090 C   0  0  0  0  0  0  0  0  0  0  0  0
   31.4519   15.5572   -9.5604 C   0  0  0  0  0  0  0  0  0  0  0  0
   31.0218   14.6304   -8.7660 O   0  0  0  0  0  0  0  0  0  0  0  0
   31.7270   16.7713   -8.9686 N   0  0  0  0  0  0  0  0  0  0  0  0
   32.1517   17.5486   -9.5539 H   0  0  0  0  0  0  0  0  0  0  0  0
   31.5795   17.1255   -7.5997 C   0  0  0  0  0  0  0  0  0  0  0  0
   30.4051   17.5130   -7.0112 C   0  0  0  0  0  0  0  0  0  0  0  0
   30.3539   17.8776   -5.6745 C   0  0  0  0  0  0  0  0  0  0  0  0
   31.4895   17.8540   -4.9159 C   0  0  0  0  0  0  0  0  0  0  0  0
   31.4384   18.2093   -3.6157 F   0  0  0  0  0  0  0  0  0  0  0  0
   32.6536   17.4694   -5.4973 C   0  0  0  0  0  0  0  0  0  0  0  0
   32.7279   17.1089   -6.8037 C   0  0  0  0  0  0  0  0  0  0  0  0
  7  8  1  0  0  0
  8  9  2  0  0  0
  9 10  1  0  0  0
 10 11  1  0  0  0
 11 12  2  0  0  0
 12 13  1  0  0  0
 13 14  2  0  0  0
 14 15  1  0  0  0
 15  1  1  0  0  0
  1  2  2  0  0  0
  2  3  1  0  0  0
  3  4  2  0  0  0
  4 20  1  0  0  0
 20 21  1  0  0  0
 21 22  2  0  0  0
 21 24  1  0  0  0
 24 25  1  0  0  0
 25 26  1  0  0  0
 24 27  1  0  0  0
 27 28  2  0  0  0
 27 29  1  0  0  0
 29 31  1  0  0  0
 31 32  2  0  0  0
 32 33  1  0  0  0
 33 34  2  0  0  0
 34 35  1  0  0  0
 34 36  1  0  0  0
 36 37  2  0  0  0
  4  5  1  0  0  0
  5  6  2  0  0  0
 15 16  2  0  0  0
 16  8  1  0  0  0
 16 11  1  0  0  0
  6  1  1  0  0  0
 26 24  1  0  0  0
 37 31  1  0  0  0
  7 17  1  0  0  0
  7 18  1  0  0  0
 10 19  1  0  0  0
 20 23  1  0  0  0
 29 30  1  0  0  0
M  END
> <minimizedAffinity>
-9.13709

> <CNNscore>
0.3530308902

> <CNNaffinity>
6.4336028099

> <CNN_VS>
2.2712605000

> <CNNaffinity_variance>
0.4859165549

$$$$
[H]c1c([H])c(N([H])C(=O)C2(C(=O)N([H])c3c([H])c([H])c(-c4c([H])c([H])c([H])c5c4c(N([H])[H])nn5[H])c([H])c3[H])C([H])([H])C2([H])[H])c([H])c([H])c1F


 37 41  0  0  0  0  0  0  0  0999 V2000
   36.4277   13.1453  -14.0104 C   0  0  0  0  0  0  0  0  0  0  0  0
   36.2989   12.6830  -12.7233 C   0  0  0  0  0  0  0  0  0  0  0  0
   36.2560   13.5477  -11.6547 C   0  0  0  0  0  0  0  0  0  0  0  0
   36.3393   14.9399  -11.8037 C   0  0  0  0  0  0  0  0  0  0  0  0
   36.4663   15.4024  -13.0787 C   0  0  0  0  0  0  0  0  0  0  0  0
   36.5098   14.5116  -14.1638 C   0  0  0  0  0  0  0  0  0  0  0  0
   33.4203   12.4907  -14.3623 N   0  0  0  0  0  0  0  0  0  0  0  0
   34.0502   11.8675  -15.4604 C   0  0  0  0  0  0  0  0  0  0  0  0
   33.3703   11.1641  -16.4145 N   0  0  0  0  0  0  0  0  0  0  0  0
   34.2106   10.6840  -17.2920 N   0  0  0  0  0  0  0  0  0  0  0  0
   35.4617   11.0331  -16.9773 C   0  0  0  0  0  0  0  0  0  0  0  0
   36.6891   10.7990  -17.5183 C   0  0  0  0  0  0  0  0  0  0  0  0
   37.8380   11.3015  -16.9249 C   0  0  0  0  0  0  0  0  0  0  0  0
   37.7406   12.0455  -15.7784 C   0  0  0  0  0  0  0  0  0  0  0  0
   36.4871   12.3032  -15.1994 C   0  0  0  0  0  0  0  0  0  0  0  0
   35.3848   11.7946  -15.8055 C   0  0  0  0  0  0  0  0  0  0  0  0
   33.5110   12.0886  -13.4182 H   0  0  0  0  0  0  0  0  0  0  0  0
   32.8699   13.3491  -14.5075 H   0  0  0  0  0  0  0  0  0  0  0  0
   33.9249   10.1048  -18.1252 H   0  0  0  0  0  0  0  0  0  0  0  0
   36.2653   15.7568  -10.6254 N   0  0  0  0  0  0  0  0  0  0  0  0
   37.1447   16.7414  -10.2250 C   0  0  0  0  0  0  0  0  0  0  0  0
   38.1814   16.9834  -10.9166 O   0  0  0  0  0  0  0  0  0  0  0  0
   35.4617   15.5506   -9.9436 H   0  0  0  0  0  0  0  0  0  0  0  0
   36.9998   17.5715   -9.0187 C   0  0  0  0  0  0  0  0  0  0  0  0
   37.6165   18.9471   -9.0667 C   0  0  0  0  0  0  0  0  0  0  0  0
   38.3445   17.8762   -8.3851 C   0  0  0  0  0  0  0  0  0  0  0  0
   35.8569   17.5089   -8.0901 C   0  0  0  0  0  0  0  0  0  0  0  0
   35.6586   16.3285   -7.5978 O   0  0  0  0  0  0  0  0  0  0  0  0
   34.9867   18.4886   -7.6626 N   0  0  0  0  0  0  0  0  0  0  0  0
   35.1425   19.4917   -7.9737 H   0  0  0  0  0  0  0  0  0  0  0  0
   33.8952   18.3506   -6.7623 C   0  0  0  0  0  0  0  0  0  0  0  0
   32.7968   17.5607   -6.9754 C   0  0  0  0  0  0  0  0  0  0  0  0
   31.7563   17.5099   -6.0605 C   0  0  0  0  0  0  0  0  0  0  0  0
   31.8138   18.2564   -4.9182 C   0  0  0  0  0  0  0  0  0  0  0  0
   30.8007   18.2063   -4.0290 F   0  0  0  0  0  0  0  0  0  0  0  0
   32.9018   19.0387   -4.7052 C   0  0  0  0  0  0  0  0  0  0  0  0
   33.9318   19.1049   -5.5865 C   0  0  0  0  0  0  0  0  0  0  0  0
  7  8  1  0  0  0
  8  9  2  0  0  0
  9 10  1  0  0  0
 10 11  1  0  0  0
 11 12  2  0  0  0
 12 13  1  0  0  0
 13 14  2  0  0  0
 14 15  1  0  0  0
 15  1  1  0  0  0
  1  2  2  0  0  0
  2  3  1  0  0  0
  3  4  2  0  0  0
  4 20  1  0  0  0
 20 21  1  0  0  0
 21 22  2  0  0  0
 21 24  1  0  0  0
 24 25  1  0  0  0
 25 26  1  0  0  0
 24 27  1  0  0  0
 27 28  2  0  0  0
 27 29  1  0  0  0
 29 31  1  0  0  0
 31 32  2  0  0  0
 32 33  1  0  0  0
 33 34  2  0  0  0
 34 35  1  0  0  0
 34 36  1  0  0  0
 36 37  2  0  0  0
  4  5  1  0  0  0
  5  6  2  0  0  0
 15 16  2  0  0  0
 16  8  1  0  0  0
 16 11  1  0  0  0
  6  1  1  0  0  0
 26 24  1  0  0  0
 37 31  1  0  0  0
  7 17  1  0  0  0
  7 18  1  0  0  0
 10 19  1  0  0  0
 20 23  1  0  0  0
 29 30  1  0  0  0
M  END
> <minimizedAffinity>
-9.18512

> <CNNscore>
0.3521953225

> <CNNaffinity>
6.3822865486

> <CNN_VS>
2.2478115559

> <CNNaffinity_variance>
0.1348394454

$$$$
[H]c1c([H])c(N([H])C(=O)C2(C(=O)N([H])c3c([H])c([H])c(-c4c([H])c([H])c([H])c5c4c(N([H])[H])nn5[H])c([H])c3[H])C([H])([H])C2([H])[H])c([H])c([H])c1F


 37 41  0  0  0  0  0  0  0  0999 V2000
   37.0575   12.6449  -14.8282 C   0  0  0  0  0  0  0  0  0  0  0  0
   36.6012   13.9350  -14.7087 C   0  0  0  0  0  0  0  0  0  0  0  0
   36.1545   14.4259  -13.5041 C   0  0  0  0  0  0  0  0  0  0  0  0
   36.1349   13.6547  -12.3327 C   0  0  0  0  0  0  0  0  0  0  0  0
   36.5874   12.3750  -12.4469 C   0  0  0  0  0  0  0  0  0  0  0  0
   37.0412   11.8821  -13.6814 C   0  0  0  0  0  0  0  0  0  0  0  0
   40.0180   13.5535  -14.7494 N   0  0  0  0  0  0  0  0  0  0  0  0
   39.9233   12.7521  -15.9067 C   0  0  0  0  0  0  0  0  0  0  0  0
   40.9835   12.4956  -16.7299 N   0  0  0  0  0  0  0  0  0  0  0  0
   40.5967   11.7469  -17.7281 N   0  0  0  0  0  0  0  0  0  0  0  0
   39.2929   11.4721  -17.6254 C   0  0  0  0  0  0  0  0  0  0  0  0
   38.3972   10.7712  -18.3740 C   0  0  0  0  0  0  0  0  0  0  0  0
   37.0649   10.6849  -17.9969 C   0  0  0  0  0  0  0  0  0  0  0  0
   36.6403   11.3117  -16.8549 C   0  0  0  0  0  0  0  0  0  0  0  0
   37.5430   12.0406  -16.0633 C   0  0  0  0  0  0  0  0  0  0  0  0
   38.8380   12.1054  -16.4631 C   0  0  0  0  0  0  0  0  0  0  0  0
   39.6119   14.5002  -14.7419 H   0  0  0  0  0  0  0  0  0  0  0  0
   40.4942   13.1891  -13.9119 H   0  0  0  0  0  0  0  0  0  0  0  0
   41.2364   11.4151  -18.4976 H   0  0  0  0  0  0  0  0  0  0  0  0
   35.6674   14.2674  -11.1214 N   0  0  0  0  0  0  0  0  0  0  0  0
   36.4192   14.8878  -10.1453 C   0  0  0  0  0  0  0  0  0  0  0  0
   37.6837   14.9288  -10.2509 O   0  0  0  0  0  0  0  0  0  0  0  0
   34.6155   14.1954  -10.9178 H   0  0  0  0  0  0  0  0  0  0  0  0
   35.8798   15.5288   -8.9356 C   0  0  0  0  0  0  0  0  0  0  0  0
   34.5000   15.1008   -8.5020 C   0  0  0  0  0  0  0  0  0  0  0  0
   34.6441   16.3539   -9.2439 C   0  0  0  0  0  0  0  0  0  0  0  0
   36.6952   16.0006   -7.8021 C   0  0  0  0  0  0  0  0  0  0  0  0
   36.3686   15.4588   -6.6731 O   0  0  0  0  0  0  0  0  0  0  0  0
   37.7360   16.9030   -7.7530 N   0  0  0  0  0  0  0  0  0  0  0  0
   38.0983   17.3258   -8.6570 H   0  0  0  0  0  0  0  0  0  0  0  0
   38.4768   17.3158   -6.6120 C   0  0  0  0  0  0  0  0  0  0  0  0
   38.0318   18.1992   -5.6646 C   0  0  0  0  0  0  0  0  0  0  0  0
   38.8330   18.5777   -4.5983 C   0  0  0  0  0  0  0  0  0  0  0  0
   40.0938   18.0669   -4.4760 C   0  0  0  0  0  0  0  0  0  0  0  0
   40.8725   18.4363   -3.4383 F   0  0  0  0  0  0  0  0  0  0  0  0
   40.5357   17.1909   -5.4132 C   0  0  0  0  0  0  0  0  0  0  0  0
   39.7697   16.8064   -6.4656 C   0  0  0  0  0  0  0  0  0  0  0  0
  7  8  1  0  0  0
  8  9  2  0  0  0
  9 10  1  0  0  0
 10 11  1  0  0  0
 11 12  2  0  0  0
 12 13  1  0  0  0
 13 14  2  0  0  0
 14 15  1  0  0  0
 15  1  1  0  0  0
  1  2  2  0  0  0
  2  3  1  0  0  0
  3  4  2  0  0  0
  4 20  1  0  0  0
 20 21  1  0  0  0
 21 22  2  0  0  0
 21 24  1  0  0  0
 24 25  1  0  0  0
 25 26  1  0  0  0
 24 27  1  0  0  0
 27 28  2  0  0  0
 27 29  1  0  0  0
 29 31  1  0  0  0
 31 32  2  0  0  0
 32 33  1  0  0  0
 33 34  2  0  0  0
 34 35  1  0  0  0
 34 36  1  0  0  0
 36 37  2  0  0  0
  4  5  1  0  0  0
  5  6  2  0  0  0
 15 16  2  0  0  0
 16  8  1  0  0  0
 16 11  1  0  0  0
  6  1  1  0  0  0
 26 24  1  0  0  0
 37 31  1  0  0  0
  7 17  1  0  0  0
  7 18  1  0  0  0
 10 19  1  0  0  0
 20 23  1  0  0  0
 29 30  1  0  0  0
M  END
> <minimizedAffinity>
-8.49107

> <CNNscore>
0.3091751635

> <CNNaffinity>
6.3052926064

> <CNN_VS>
1.9494398832

> <CNNaffinity_variance>
0.4379993081

$$$$
[H]c1c([H])c(N([H])C(=O)C2(C(=O)N([H])c3c([H])c([H])c(-c4c([H])c([H])c([H])c5c4c(N([H])[H])nn5[H])c([H])c3[H])C([H])([H])C2([H])[H])c([H])c([H])c1F


 37 41  0  0  0  0  0  0  0  0999 V2000
   35.9905   14.5687  -11.8934 C   0  0  0  0  0  0  0  0  0  0  0  0
   36.8496   15.2815  -12.6939 C   0  0  0  0  0  0  0  0  0  0  0  0
   37.6640   14.6520  -13.6061 C   0  0  0  0  0  0  0  0  0  0  0  0
   37.6727   13.2601  -13.7791 C   0  0  0  0  0  0  0  0  0  0  0  0
   36.8215   12.5497  -12.9877 C   0  0  0  0  0  0  0  0  0  0  0  0
   35.9939   13.2012  -12.0584 C   0  0  0  0  0  0  0  0  0  0  0  0
   33.3445   14.6224  -13.5035 N   0  0  0  0  0  0  0  0  0  0  0  0
   32.9928   15.1078  -12.2263 C   0  0  0  0  0  0  0  0  0  0  0  0
   31.7216   15.4791  -11.8893 N   0  0  0  0  0  0  0  0  0  0  0  0
   31.6988   15.9065  -10.6550 N   0  0  0  0  0  0  0  0  0  0  0  0
   32.9213   15.8441  -10.1186 C   0  0  0  0  0  0  0  0  0  0  0  0
   33.4571   16.1674   -8.9093 C   0  0  0  0  0  0  0  0  0  0  0  0
   34.8111   15.9960   -8.6601 C   0  0  0  0  0  0  0  0  0  0  0  0
   35.6242   15.4936   -9.6419 C   0  0  0  0  0  0  0  0  0  0  0  0
   35.0977   15.1508  -10.8982 C   0  0  0  0  0  0  0  0  0  0  0  0
   33.7696   15.3332  -11.1076 C   0  0  0  0  0  0  0  0  0  0  0  0
   33.8806   15.2165  -14.1524 H   0  0  0  0  0  0  0  0  0  0  0  0
   33.0640   13.6722  -13.7851 H   0  0  0  0  0  0  0  0  0  0  0  0
   30.8295   16.2487  -10.1664 H   0  0  0  0  0  0  0  0  0  0  0  0
   38.5467   12.7025  -14.7724 N   0  0  0  0  0  0  0  0  0  0  0  0
   38.2252   12.3141  -16.0564 C   0  0  0  0  0  0  0  0  0  0  0  0
   37.0256   12.4019  -16.4625 O   0  0  0  0  0  0  0  0  0  0  0  0
   39.5611   12.5154  -14.4738 H   0  0  0  0  0  0  0  0  0  0  0  0
   39.1737   11.7766  -17.0447 C   0  0  0  0  0  0  0  0  0  0  0  0
   38.6460   11.5634  -18.4414 C   0  0  0  0  0  0  0  0  0  0  0  0
   38.7442   10.4103  -17.5459 C   0  0  0  0  0  0  0  0  0  0  0  0
   40.6266   12.0239  -17.0331 C   0  0  0  0  0  0  0  0  0  0  0  0
   41.1745   11.9233  -18.2013 O   0  0  0  0  0  0  0  0  0  0  0  0
   41.4788   12.3477  -15.9992 N   0  0  0  0  0  0  0  0  0  0  0  0
   41.0778   12.5163  -15.0308 H   0  0  0  0  0  0  0  0  0  0  0  0
   42.8819   12.5671  -16.0643 C   0  0  0  0  0  0  0  0  0  0  0  0
   43.7373   11.9291  -16.9228 C   0  0  0  0  0  0  0  0  0  0  0  0
   45.1015   12.1752  -16.8973 C   0  0  0  0  0  0  0  0  0  0  0  0
   45.6178   13.0703  -16.0041 C   0  0  0  0  0  0  0  0  0  0  0  0
   46.9452   13.3085  -15.9801 F   0  0  0  0  0  0  0  0  0  0  0  0
   44.7714   13.7039  -15.1535 C   0  0  0  0  0  0  0  0  0  0  0  0
   43.4330   13.4786  -15.1598 C   0  0  0  0  0  0  0  0  0  0  0  0
  7  8  1  0  0  0
  8  9  2  0  0  0
  9 10  1  0  0  0
 10 11  1  0  0  0
 11 12  2  0  0  0
 12 13  1  0  0  0
 13 14  2  0  0  0
 14 15  1  0  0  0
 15  1  1  0  0  0
  1  2  2  0  0  0
  2  3  1  0  0  0
  3  4  2  0  0  0
  4 20  1  0  0  0
 20 21  1  0  0  0
 21 22  2  0  0  0
 21 24  1  0  0  0
 24 25  1  0  0  0
 25 26  1  0  0  0
 24 27  1  0  0  0
 27 28  2  0  0  0
 27 29  1  0  0  0
 29 31  1  0  0  0
 31 32  2  0  0  0
 32 33  1  0  0  0
 33 34  2  0  0  0
 34 35  1  0  0  0
 34 36  1  0  0  0
 36 37  2  0  0  0
  4  5  1  0  0  0
  5  6  2  0  0  0
 15 16  2  0  0  0
 16  8  1  0  0  0
 16 11  1  0  0  0
  6  1  1  0  0  0
 26 24  1  0  0  0
 37 31  1  0  0  0
  7 17  1  0  0  0
  7 18  1  0  0  0
 10 19  1  0  0  0
 20 23  1  0  0  0
 29 30  1  0  0  0
M  END
> <minimizedAffinity>
-8.85626

> <CNNscore>
0.2971483767

> <CNNaffinity>
6.6439805031

> <CNN_VS>
1.9742480516

> <CNNaffinity_variance>
0.1694619805

$$$$
[H]c1c([H])c(N([H])C(=O)C2(C(=O)N([H])c3c([H])c([H])c(-c4c([H])c([H])c([H])c5c4c(N([H])[H])nn5[H])c([H])c3[H])C([H])([H])C2([H])[H])c([H])c([H])c1F


 37 41  0  0  0  0  0  0  0  0999 V2000
   37.2198   12.8136  -14.7775 C   0  0  0  0  0  0  0  0  0  0  0  0
   37.4750   12.3740  -13.5013 C   0  0  0  0  0  0  0  0  0  0  0  0
   37.3611   13.2157  -12.4197 C   0  0  0  0  0  0  0  0  0  0  0  0
   36.9819   14.5604  -12.5436 C   0  0  0  0  0  0  0  0  0  0  0  0
   36.7271   15.0001  -13.8074 C   0  0  0  0  0  0  0  0  0  0  0  0
   36.8466   14.1333  -14.9061 C   0  0  0  0  0  0  0  0  0  0  0  0
   40.1905   13.2930  -15.5133 N   0  0  0  0  0  0  0  0  0  0  0  0
   39.7296   12.3733  -16.4789 C   0  0  0  0  0  0  0  0  0  0  0  0
   40.5223   11.8661  -17.4697 N   0  0  0  0  0  0  0  0  0  0  0  0
   39.8244   11.0599  -18.2246 N   0  0  0  0  0  0  0  0  0  0  0  0
   38.5632   10.9892  -17.7880 C   0  0  0  0  0  0  0  0  0  0  0  0
   37.4412   10.3342  -18.1954 C   0  0  0  0  0  0  0  0  0  0  0  0
   36.2401   10.4875  -17.5182 C   0  0  0  0  0  0  0  0  0  0  0  0
   36.1779   11.3079  -16.4226 C   0  0  0  0  0  0  0  0  0  0  0  0
   37.3203   11.9948  -15.9799 C   0  0  0  0  0  0  0  0  0  0  0  0
   38.4776   11.8230  -16.6671 C   0  0  0  0  0  0  0  0  0  0  0  0
   39.9038   14.2813  -15.5628 H   0  0  0  0  0  0  0  0  0  0  0  0
   40.8144   12.9733  -14.7586 H   0  0  0  0  0  0  0  0  0  0  0  0
   40.2168   10.5456  -19.0569 H   0  0  0  0  0  0  0  0  0  0  0  0
   36.8735   15.3504  -11.3496 N   0  0  0  0  0  0  0  0  0  0  0  0
   37.7774   16.2719  -10.8631 C   0  0  0  0  0  0  0  0  0  0  0  0
   38.8710   16.4705  -11.4765 O   0  0  0  0  0  0  0  0  0  0  0  0
   36.0148   15.1741  -10.7294 H   0  0  0  0  0  0  0  0  0  0  0  0
   37.5973   17.0785   -9.6456 C   0  0  0  0  0  0  0  0  0  0  0  0
   37.8184   18.5644   -9.7804 C   0  0  0  0  0  0  0  0  0  0  0  0
   38.8926   17.7442   -9.2195 C   0  0  0  0  0  0  0  0  0  0  0  0
   36.6584   16.7547   -8.5566 C   0  0  0  0  0  0  0  0  0  0  0  0
   35.4160   16.9013   -8.8883 O   0  0  0  0  0  0  0  0  0  0  0  0
   36.8858   16.3206   -7.2682 N   0  0  0  0  0  0  0  0  0  0  0  0
   37.8799   16.1114   -6.9598 H   0  0  0  0  0  0  0  0  0  0  0  0
   35.9215   16.0321   -6.2642 C   0  0  0  0  0  0  0  0  0  0  0  0
   35.4028   16.9477   -5.3876 C   0  0  0  0  0  0  0  0  0  0  0  0
   34.4904   16.5761   -4.4121 C   0  0  0  0  0  0  0  0  0  0  0  0
   34.0903   15.2741   -4.3113 C   0  0  0  0  0  0  0  0  0  0  0  0
   33.2029   14.9137   -3.3615 F   0  0  0  0  0  0  0  0  0  0  0  0
   34.6026   14.3659   -5.1796 C   0  0  0  0  0  0  0  0  0  0  0  0
   35.4971   14.7064   -6.1420 C   0  0  0  0  0  0  0  0  0  0  0  0
  7  8  1  0  0  0
  8  9  2  0  0  0
  9 10  1  0  0  0
 10 11  1  0  0  0
 11 12  2  0  0  0
 12 13  1  0  0  0
 13 14  2  0  0  0
 14 15  1  0  0  0
 15  1  1  0  0  0
  1  2  2  0  0  0
  2  3  1  0  0  0
  3  4  2  0  0  0
  4 20  1  0  0  0
 20 21  1  0  0  0
 21 22  2  0  0  0
 21 24  1  0  0  0
 24 25  1  0  0  0
 25 26  1  0  0  0
 24 27  1  0  0  0
 27 28  2  0  0  0
 27 29  1  0  0  0
 29 31  1  0  0  0
 31 32  2  0  0  0
 32 33  1  0  0  0
 33 34  2  0  0  0
 34 35  1  0  0  0
 34 36  1  0  0  0
 36 37  2  0  0  0
  4  5  1  0  0  0
  5  6  2  0  0  0
 15 16  2  0  0  0
 16  8  1  0  0  0
 16 11  1  0  0  0
  6  1  1  0  0  0
 26 24  1  0  0  0
 37 31  1  0  0  0
  7 17  1  0  0  0
  7 18  1  0  0  0
 10 19  1  0  0  0
 20 23  1  0  0  0
 29 30  1  0  0  0
M  END
> <minimizedAffinity>
-8.61268

> <CNNscore>
0.2703554034

> <CNNaffinity>
6.2734670639

> <CNN_VS>
1.6960656643

> <CNNaffinity_variance>
0.4311874807

$$$$
[H]c1c([H])c(N([H])C(=O)C2(C(=O)N([H])c3c([H])c([H])c(-c4c([H])c([H])c([H])c5c4c(N([H])[H])nn5[H])c([H])c3[H])C([H])([H])C2([H])[H])c([H])c([H])c1F


 37 41  0  0  0  0  0  0  0  0999 V2000
   36.6788   13.1585  -14.2491 C   0  0  0  0  0  0  0  0  0  0  0  0
   36.5484   14.5258  -14.2741 C   0  0  0  0  0  0  0  0  0  0  0  0
   36.6622   15.2752  -13.1265 C   0  0  0  0  0  0  0  0  0  0  0  0
   36.9158   14.7035  -11.8711 C   0  0  0  0  0  0  0  0  0  0  0  0
   37.0467   13.3480  -11.8422 C   0  0  0  0  0  0  0  0  0  0  0  0
   36.9283   12.5907  -13.0193 C   0  0  0  0  0  0  0  0  0  0  0  0
   33.6342   12.5880  -14.2119 N   0  0  0  0  0  0  0  0  0  0  0  0
   34.1066   11.9194  -15.3610 C   0  0  0  0  0  0  0  0  0  0  0  0
   33.2954   11.2143  -16.2048 N   0  0  0  0  0  0  0  0  0  0  0  0
   34.0077   10.6876  -17.1650 N   0  0  0  0  0  0  0  0  0  0  0  0
   35.2972   11.0058  -17.0156 C   0  0  0  0  0  0  0  0  0  0  0  0
   36.4416   10.7212  -17.6961 C   0  0  0  0  0  0  0  0  0  0  0  0
   37.6683   11.2026  -17.2620 C   0  0  0  0  0  0  0  0  0  0  0  0
   37.7333   11.9767  -16.1333 C   0  0  0  0  0  0  0  0  0  0  0  0
   36.5682   12.2865  -15.4126 C   0  0  0  0  0  0  0  0  0  0  0  0
   35.3861   11.7974  -15.8649 C   0  0  0  0  0  0  0  0  0  0  0  0
   33.8294   12.2062  -13.2752 H   0  0  0  0  0  0  0  0  0  0  0  0
   33.0938   13.4591  -14.3123 H   0  0  0  0  0  0  0  0  0  0  0  0
   33.6058   10.0975  -17.9405 H   0  0  0  0  0  0  0  0  0  0  0  0
   37.0361   15.5758  -10.7371 N   0  0  0  0  0  0  0  0  0  0  0  0
   36.6031   15.3472   -9.4475 C   0  0  0  0  0  0  0  0  0  0  0  0
   35.9881   14.2724   -9.1675 O   0  0  0  0  0  0  0  0  0  0  0  0
   37.4676   16.5430  -10.9145 H   0  0  0  0  0  0  0  0  0  0  0  0
   36.7832   16.2684   -8.3142 C   0  0  0  0  0  0  0  0  0  0  0  0
   35.5929   16.4679   -7.4096 C   0  0  0  0  0  0  0  0  0  0  0  0
   35.8758   17.4793   -8.4286 C   0  0  0  0  0  0  0  0  0  0  0  0
   38.0583   16.4913   -7.6094 C   0  0  0  0  0  0  0  0  0  0  0  0
   39.0846   16.5121   -8.3975 O   0  0  0  0  0  0  0  0  0  0  0  0
   38.3279   16.6863   -6.2717 N   0  0  0  0  0  0  0  0  0  0  0  0
   37.5211   16.7529   -5.5849 H   0  0  0  0  0  0  0  0  0  0  0  0
   39.5950   16.8907   -5.6602 C   0  0  0  0  0  0  0  0  0  0  0  0
   40.4301   15.8932   -5.2320 C   0  0  0  0  0  0  0  0  0  0  0  0
   41.6363   16.1790   -4.6111 C   0  0  0  0  0  0  0  0  0  0  0  0
   42.0137   17.4772   -4.4163 C   0  0  0  0  0  0  0  0  0  0  0  0
   43.1873   17.7540   -3.8117 F   0  0  0  0  0  0  0  0  0  0  0  0
   41.1878   18.4665   -4.8408 C   0  0  0  0  0  0  0  0  0  0  0  0
   40.0024   18.2107   -5.4503 C   0  0  0  0  0  0  0  0  0  0  0  0
  7  8  1  0  0  0
  8  9  2  0  0  0
  9 10  1  0  0  0
 10 11  1  0  0  0
 11 12  2  0  0  0
 12 13  1  0  0  0
 13 14  2  0  0  0
 14 15  1  0  0  0
 15  1  1  0  0  0
  1  2  2  0  0  0
  2  3  1  0  0  0
  3  4  2  0  0  0
  4 20  1  0  0  0
 20 21  1  0  0  0
 21 22  2  0  0  0
 21 24  1  0  0  0
 24 25  1  0  0  0
 25 26  1  0  0  0
 24 27  1  0  0  0
 27 28  2  0  0  0
 27 29  1  0  0  0
 29 31  1  0  0  0
 31 32  2  0  0  0
 32 33  1  0  0  0
 33 34  2  0  0  0
 34 35  1  0  0  0
 34 36  1  0  0  0
 36 37  2  0  0  0
  4  5  1  0  0  0
  5  6  2  0  0  0
 15 16  2  0  0  0
 16  8  1  0  0  0
 16 11  1  0  0  0
  6  1  1  0  0  0
 26 24  1  0  0  0
 37 31  1  0  0  0
  7 17  1  0  0  0
  7 18  1  0  0  0
 10 19  1  0  0  0
 20 23  1  0  0  0
 29 30  1  0  0  0
M  END
> <minimizedAffinity>
-8.36215

> <CNNscore>
0.2654242814

> <CNNaffinity>
6.2060909271

> <CNN_VS>
1.6472471952

> <CNNaffinity_variance>
0.2517959177

$$$$
[H]c1c([H])c(N([H])C(=O)C2(C(=O)N([H])c3c([H])c([H])c(-c4c([H])c([H])c([H])c5c4c(N([H])[H])nn5[H])c([H])c3[H])C([H])([H])C2([H])[H])c([H])c([H])c1F


 37 41  0  0  0  0  0  0  0  0999 V2000
   37.2985   12.4700  -15.1205 C   0  0  0  0  0  0  0  0  0  0  0  0
   37.4912   11.9227  -13.8753 C   0  0  0  0  0  0  0  0  0  0  0  0
   37.0689   12.5698  -12.7376 C   0  0  0  0  0  0  0  0  0  0  0  0
   36.4219   13.8138  -12.7702 C   0  0  0  0  0  0  0  0  0  0  0  0
   36.2282   14.3595  -14.0031 C   0  0  0  0  0  0  0  0  0  0  0  0
   36.6635   13.6916  -15.1596 C   0  0  0  0  0  0  0  0  0  0  0  0
   40.2577   13.3822  -15.2079 N   0  0  0  0  0  0  0  0  0  0  0  0
   40.1015   12.5738  -16.3536 C   0  0  0  0  0  0  0  0  0  0  0  0
   41.1158   12.3135  -17.2315 N   0  0  0  0  0  0  0  0  0  0  0  0
   40.6764   11.5583  -18.2028 N   0  0  0  0  0  0  0  0  0  0  0  0
   39.3804   11.2828  -18.0278 C   0  0  0  0  0  0  0  0  0  0  0  0
   38.4465   10.5764  -18.7226 C   0  0  0  0  0  0  0  0  0  0  0  0
   37.1367   10.4910  -18.2732 C   0  0  0  0  0  0  0  0  0  0  0  0
   36.7738   11.1242  -17.1136 C   0  0  0  0  0  0  0  0  0  0  0  0
   37.7171   11.8588  -16.3765 C   0  0  0  0  0  0  0  0  0  0  0  0
   38.9884   11.9226  -16.8464 C   0  0  0  0  0  0  0  0  0  0  0  0
   39.8512   14.3285  -15.1840 H   0  0  0  0  0  0  0  0  0  0  0  0
   40.7791   13.0234  -14.3953 H   0  0  0  0  0  0  0  0  0  0  0  0
   41.2739   11.2227  -19.0039 H   0  0  0  0  0  0  0  0  0  0  0  0
   36.0031   14.3967  -11.5267 N   0  0  0  0  0  0  0  0  0  0  0  0
   36.3999   15.6010  -10.9837 C   0  0  0  0  0  0  0  0  0  0  0  0
   37.2602   16.3141  -11.5862 O   0  0  0  0  0  0  0  0  0  0  0  0
   35.3414   13.8108  -10.9166 H   0  0  0  0  0  0  0  0  0  0  0  0
   35.9104   16.1642   -9.7154 C   0  0  0  0  0  0  0  0  0  0  0  0
   36.5911   17.4177   -9.2252 C   0  0  0  0  0  0  0  0  0  0  0  0
   36.9811   16.1343   -8.6405 C   0  0  0  0  0  0  0  0  0  0  0  0
   34.5209   16.0641   -9.2344 C   0  0  0  0  0  0  0  0  0  0  0  0
   33.6621   15.8633  -10.1816 O   0  0  0  0  0  0  0  0  0  0  0  0
   33.9990   16.1398   -7.9608 N   0  0  0  0  0  0  0  0  0  0  0  0
   34.6597   16.2301   -7.1347 H   0  0  0  0  0  0  0  0  0  0  0  0
   32.6354   16.0390   -7.5717 C   0  0  0  0  0  0  0  0  0  0  0  0
   31.7478   17.0817   -7.5438 C   0  0  0  0  0  0  0  0  0  0  0  0
   30.4409   16.9053   -7.1160 C   0  0  0  0  0  0  0  0  0  0  0  0
   30.0147   15.6721   -6.7120 C   0  0  0  0  0  0  0  0  0  0  0  0
   28.7430   15.5020   -6.2956 F   0  0  0  0  0  0  0  0  0  0  0  0
   30.8926   14.6379   -6.7399 C   0  0  0  0  0  0  0  0  0  0  0  0
   32.1765   14.7869   -7.1541 C   0  0  0  0  0  0  0  0  0  0  0  0
  7  8  1  0  0  0
  8  9  2  0  0  0
  9 10  1  0  0  0
 10 11  1  0  0  0
 11 12  2  0  0  0
 12 13  1  0  0  0
 13 14  2  0  0  0
 14 15  1  0  0  0
 15  1  1  0  0  0
  1  2  2  0  0  0
  2  3  1  0  0  0
  3  4  2  0  0  0
  4 20  1  0  0  0
 20 21  1  0  0  0
 21 22  2  0  0  0
 21 24  1  0  0  0
 24 25  1  0  0  0
 25 26  1  0  0  0
 24 27  1  0  0  0
 27 28  2  0  0  0
 27 29  1  0  0  0
 29 31  1  0  0  0
 31 32  2  0  0  0
 32 33  1  0  0  0
 33 34  2  0  0  0
 34 35  1  0  0  0
 34 36  1  0  0  0
 36 37  2  0  0  0
  4  5  1  0  0  0
  5  6  2  0  0  0
 15 16  2  0  0  0
 16  8  1  0  0  0
 16 11  1  0  0  0
  6  1  1  0  0  0
 26 24  1  0  0  0
 37 31  1  0  0  0
  7 17  1  0  0  0
  7 18  1  0  0  0
 10 19  1  0  0  0
 20 23  1  0  0  0
 29 30  1  0  0  0
M  END
> <minimizedAffinity>
-9.47443

> <CNNscore>
0.2331157029

> <CNNaffinity>
6.2701663971

> <CNN_VS>
1.4616742134

> <CNNaffinity_variance>
0.3647496104

$$$$
[H]c1c([H])c([H])c(C([H])([H])N([H])C(=O)C(=O)[C@@]([H])(N([H])C(=O)[C@@]2([H])N(C(=O)C3(c4c([H])c([H])c(Cl)c([H])c4[H])C([H])([H])C3([H])[H])C([H])([H])[C@]([H])(S(=O)(=O)c3c([H])c([H])c([H])c([H])c3Cl)C2([H])[H])C([H])([H])C([H])([H])C([H])([H])[H])c([H])c1[H]


 48 52  0  0  0  0  0  0  0  0999 V2000
   37.5939   15.2011  -11.2732 C   0  0  0  0  0  0  0  0  0  0  0  0
   37.0470   15.4729  -12.6909 C   0  0  0  0  0  0  0  0  0  0  0  0
   35.9924   14.3433  -12.7622 C   0  0  0  0  0  0  0  0  0  0  0  0
   35.7921   13.9238  -11.3270 C   0  0  0  0  0  0  0  0  0  0  0  0
   36.3470   15.1106  -10.5894 N   0  0  0  0  0  0  0  0  0  0  0  0
   35.8004   15.6728   -9.4856 C   0  0  0  0  0  0  0  0  0  0  0  0
   36.6875   16.1915   -8.6132 O   0  0  0  0  0  0  0  0  0  0  0  0
   39.8873   15.3334  -10.3837 N   0  0  0  0  0  0  0  0  0  0  0  0
   38.6892   16.0040  -10.8646 C   0  0  0  0  0  0  0  0  0  0  0  0
   38.7912   17.2423  -10.8521 O   0  0  0  0  0  0  0  0  0  0  0  0
   39.8896   14.3143  -10.3613 H   0  0  0  0  0  0  0  0  0  0  0  0
   41.0560   16.0979   -9.9336 C   0  0  0  0  0  0  0  0  0  0  0  0
   42.1310   16.0149  -10.9641 C   0  0  0  0  0  0  0  0  0  0  0  0
   43.3189   16.2591  -10.6722 O   0  0  0  0  0  0  0  0  0  0  0  0
   41.7872   15.6392  -12.3157 C   0  0  0  0  0  0  0  0  0  0  0  0
   41.2196   16.4306  -13.1256 O   0  0  0  0  0  0  0  0  0  0  0  0
   42.0717   14.3409  -12.8120 N   0  0  0  0  0  0  0  0  0  0  0  0
   42.5312   13.6658  -12.1580 H   0  0  0  0  0  0  0  0  0  0  0  0
   41.7415   13.9416  -14.1791 C   0  0  0  0  0  0  0  0  0  0  0  0
   42.9186   13.3841  -14.8887 C   0  0  0  0  0  0  0  0  0  0  0  0
   44.1732   13.6115  -14.3915 C   0  0  0  0  0  0  0  0  0  0  0  0
   45.2887   13.1056  -15.0091 C   0  0  0  0  0  0  0  0  0  0  0  0
   45.1703   12.3609  -16.1383 C   0  0  0  0  0  0  0  0  0  0  0  0
   43.8979   12.1202  -16.6576 C   0  0  0  0  0  0  0  0  0  0  0  0
   42.7663   12.6329  -16.0315 C   0  0  0  0  0  0  0  0  0  0  0  0
   41.5539   15.5941   -8.6249 C   0  0  0  0  0  0  0  0  0  0  0  0
   39.9345   16.1889   -6.8209 C   0  0  0  0  0  0  0  0  0  0  0  0
   40.4213   15.0736   -7.7418 C   0  0  0  0  0  0  0  0  0  0  0  0
   34.4431   15.8939   -8.9425 C   0  0  0  0  0  0  0  0  0  0  0  0
   34.3168   16.7810   -7.7412 C   0  0  0  0  0  0  0  0  0  0  0  0
   34.3206   15.3026   -7.5013 C   0  0  0  0  0  0  0  0  0  0  0  0
   33.1676   15.6070   -9.6541 C   0  0  0  0  0  0  0  0  0  0  0  0
   32.8715   15.6525  -10.9490 C   0  0  0  0  0  0  0  0  0  0  0  0
   31.5853   15.3826  -11.4594 C   0  0  0  0  0  0  0  0  0  0  0  0
   30.5628   15.0521  -10.6072 C   0  0  0  0  0  0  0  0  0  0  0  0
   28.9474   14.6995  -11.1331 Cl  0  0  0  0  0  0  0  0  0  0  0  0
   30.8447   14.9949   -9.2426 C   0  0  0  0  0  0  0  0  0  0  0  0
   32.0905   15.2626   -8.7951 C   0  0  0  0  0  0  0  0  0  0  0  0
   36.7334   13.0718  -13.7327 S   0  0  0  0  0  0  0  0  0  0  0  0
   37.4574   12.0392  -12.9552 O   0  0  0  0  0  0  0  0  0  0  0  0
   37.7952   13.7811  -14.5824 O   0  0  0  0  0  0  0  0  0  0  0  0
   35.6696   12.2903  -14.8469 C   0  0  0  0  0  0  0  0  0  0  0  0
   34.3087   12.1946  -14.7532 C   0  0  0  0  0  0  0  0  0  0  0  0
   33.5480   11.5032  -15.7064 C   0  0  0  0  0  0  0  0  0  0  0  0
   34.1403   10.8861  -16.7880 C   0  0  0  0  0  0  0  0  0  0  0  0
   35.5232   10.9877  -16.8817 C   0  0  0  0  0  0  0  0  0  0  0  0
   36.2653   11.6655  -15.9453 C   0  0  0  0  0  0  0  0  0  0  0  0
   37.9922   11.7336  -16.1804 Cl  0  0  0  0  0  0  0  0  0  0  0  0
 27 28  1  0  0  0
 28 26  1  0  0  0
 26 12  1  0  0  0
 12  8  1  0  0  0
  8  9  1  0  0  0
  9 10  2  0  0  0
  9  1  1  0  0  0
  1  2  1  0  0  0
  2  3  1  0  0  0
  3  4  1  0  0  0
  4  5  1  0  0  0
  5  6  1  0  0  0
  6  7  2  0  0  0
  6 29  1  0  0  0
 29 30  1  0  0  0
 30 31  1  0  0  0
 29 32  1  0  0  0
 32 33  2  0  0  0
 33 34  1  0  0  0
 34 35  2  0  0  0
 35 36  1  0  0  0
 35 37  1  0  0  0
 37 38  2  0  0  0
  3 39  1  0  0  0
 39 40  2  0  0  0
 39 41  2  0  0  0
 39 42  1  0  0  0
 42 43  2  0  0  0
 43 44  1  0  0  0
 44 45  2  0  0  0
 45 46  1  0  0  0
 46 47  2  0  0  0
 47 48  1  0  0  0
 12 13  1  0  0  0
 13 14  2  0  0  0
 13 15  1  0  0  0
 15 16  2  0  0  0
 15 17  1  0  0  0
 17 19  1  0  0  0
 19 20  1  0  0  0
 20 21  2  0  0  0
 21 22  1  0  0  0
 22 23  2  0  0  0
 23 24  1  0  0  0
 24 25  2  0  0  0
  5  1  1  0  0  0
 31 29  1  0  0  0
 38 32  1  0  0  0
 47 42  1  0  0  0
 25 20  1  0  0  0
  8 11  1  0  0  0
 17 18  1  0  0  0
M  END
> <minimizedAffinity>
-9.77020

> <CNNscore>
0.2691697776

> <CNNaffinity>
7.5267105103

> <CNN_VS>
2.0259630680

> <CNNaffinity_variance>
0.3446066976

$$$$
[H]c1c([H])c([H])c(C([H])([H])N([H])C(=O)C(=O)[C@@]([H])(N([H])C(=O)[C@@]2([H])N(C(=O)C3(c4c([H])c([H])c(Cl)c([H])c4[H])C([H])([H])C3([H])[H])C([H])([H])[C@]([H])(S(=O)(=O)c3c([H])c([H])c([H])c([H])c3Cl)C2([H])[H])C([H])([H])C([H])([H])C([H])([H])[H])c([H])c1[H]


 48 52  0  0  0  0  0  0  0  0999 V2000
   41.5414   14.8707  -12.8669 C   0  0  0  0  0  0  0  0  0  0  0  0
   42.7930   15.5517  -13.4606 C   0  0  0  0  0  0  0  0  0  0  0  0
   43.6130   14.2867  -13.8076 C   0  0  0  0  0  0  0  0  0  0  0  0
   42.6034   13.1658  -13.7871 C   0  0  0  0  0  0  0  0  0  0  0  0
   41.3119   13.9260  -13.9088 N   0  0  0  0  0  0  0  0  0  0  0  0
   40.2573   13.5612  -14.6755 C   0  0  0  0  0  0  0  0  0  0  0  0
   39.0499   13.8936  -14.1769 O   0  0  0  0  0  0  0  0  0  0  0  0
   39.5044   15.1543  -11.5111 N   0  0  0  0  0  0  0  0  0  0  0  0
   40.5592   15.7384  -12.3250 C   0  0  0  0  0  0  0  0  0  0  0  0
   40.4531   16.9709  -12.4407 O   0  0  0  0  0  0  0  0  0  0  0  0
   39.5158   14.1457  -11.3637 H   0  0  0  0  0  0  0  0  0  0  0  0
   38.4475   15.9875  -10.9264 C   0  0  0  0  0  0  0  0  0  0  0  0
   38.2627   15.6218   -9.4923 C   0  0  0  0  0  0  0  0  0  0  0  0
   37.6815   14.5663   -9.1698 O   0  0  0  0  0  0  0  0  0  0  0  0
   38.7718   16.5025   -8.4669 C   0  0  0  0  0  0  0  0  0  0  0  0
   40.0051   16.6001   -8.1949 O   0  0  0  0  0  0  0  0  0  0  0  0
   37.8998   17.3156   -7.6979 N   0  0  0  0  0  0  0  0  0  0  0  0
   36.8751   17.2449   -7.8973 H   0  0  0  0  0  0  0  0  0  0  0  0
   38.3932   18.2212   -6.6616 C   0  0  0  0  0  0  0  0  0  0  0  0
   37.7111   19.5374   -6.7113 C   0  0  0  0  0  0  0  0  0  0  0  0
   37.7909   20.2936   -7.8491 C   0  0  0  0  0  0  0  0  0  0  0  0
   37.1664   21.5113   -7.9426 C   0  0  0  0  0  0  0  0  0  0  0  0
   36.4486   21.9970   -6.8974 C   0  0  0  0  0  0  0  0  0  0  0  0
   36.3578   21.2380   -5.7304 C   0  0  0  0  0  0  0  0  0  0  0  0
   36.9909   20.0028   -5.6352 C   0  0  0  0  0  0  0  0  0  0  0  0
   37.1681   15.8292  -11.6696 C   0  0  0  0  0  0  0  0  0  0  0  0
   35.6350   14.2879  -12.8964 C   0  0  0  0  0  0  0  0  0  0  0  0
   36.8990   14.3732  -12.0455 C   0  0  0  0  0  0  0  0  0  0  0  0
   40.0445   12.8741  -15.9673 C   0  0  0  0  0  0  0  0  0  0  0  0
   41.2563   12.5720  -16.7959 C   0  0  0  0  0  0  0  0  0  0  0  0
   40.4674   13.7924  -17.1588 C   0  0  0  0  0  0  0  0  0  0  0  0
   38.8054   12.1562  -16.3733 C   0  0  0  0  0  0  0  0  0  0  0  0
   38.5985   11.2695  -17.3417 C   0  0  0  0  0  0  0  0  0  0  0  0
   37.3364   10.7058  -17.6190 C   0  0  0  0  0  0  0  0  0  0  0  0
   36.2436   11.0656  -16.8726 C   0  0  0  0  0  0  0  0  0  0  0  0
   34.6501   10.4295  -17.1302 Cl  0  0  0  0  0  0  0  0  0  0  0  0
   36.4310   11.9932  -15.8482 C   0  0  0  0  0  0  0  0  0  0  0  0
   37.6570   12.5105  -15.6168 C   0  0  0  0  0  0  0  0  0  0  0  0
   44.8064   14.1345  -12.5190 S   0  0  0  0  0  0  0  0  0  0  0  0
   46.1408   13.6660  -12.9606 O   0  0  0  0  0  0  0  0  0  0  0  0
   44.2611   13.0406  -11.5926 O   0  0  0  0  0  0  0  0  0  0  0  0
   45.0038   15.5418  -11.5369 C   0  0  0  0  0  0  0  0  0  0  0  0
   44.5542   15.7199  -10.2578 C   0  0  0  0  0  0  0  0  0  0  0  0
   44.7457   16.9246   -9.5670 C   0  0  0  0  0  0  0  0  0  0  0  0
   45.4006   17.9898  -10.1484 C   0  0  0  0  0  0  0  0  0  0  0  0
   45.8587   17.8045  -11.4474 C   0  0  0  0  0  0  0  0  0  0  0  0
   45.6686   16.6227  -12.1214 C   0  0  0  0  0  0  0  0  0  0  0  0
   46.3016   16.5082  -13.7425 Cl  0  0  0  0  0  0  0  0  0  0  0  0
 27 28  1  0  0  0
 28 26  1  0  0  0
 26 12  1  0  0  0
 12  8  1  0  0  0
  8  9  1  0  0  0
  9 10  2  0  0  0
  9  1  1  0  0  0
  1  2  1  0  0  0
  2  3  1  0  0  0
  3  4  1  0  0  0
  4  5  1  0  0  0
  5  6  1  0  0  0
  6  7  2  0  0  0
  6 29  1  0  0  0
 29 30  1  0  0  0
 30 31  1  0  0  0
 29 32  1  0  0  0
 32 33  2  0  0  0
 33 34  1  0  0  0
 34 35  2  0  0  0
 35 36  1  0  0  0
 35 37  1  0  0  0
 37 38  2  0  0  0
  3 39  1  0  0  0
 39 40  2  0  0  0
 39 41  2  0  0  0
 39 42  1  0  0  0
 42 43  2  0  0  0
 43 44  1  0  0  0
 44 45  2  0  0  0
 45 46  1  0  0  0
 46 47  2  0  0  0
 47 48  1  0  0  0
 12 13  1  0  0  0
 13 14  2  0  0  0
 13 15  1  0  0  0
 15 16  2  0  0  0
 15 17  1  0  0  0
 17 19  1  0  0  0
 19 20  1  0  0  0
 20 21  2  0  0  0
 21 22  1  0  0  0
 22 23  2  0  0  0
 23 24  1  0  0  0
 24 25  2  0  0  0
  5  1  1  0  0  0
 31 29  1  0  0  0
 38 32  1  0  0  0
 47 42  1  0  0  0
 25 20  1  0  0  0
  8 11  1  0  0  0
 17 18  1  0  0  0
M  END
> <minimizedAffinity>
-8.57864

> <CNNscore>
0.2155726850

> <CNNaffinity>
7.3219513893

> <CNN_VS>
1.5784127712

> <CNNaffinity_variance>
0.1263075471

$$$$
[H]c1c([H])c([H])c(C([H])([H])N([H])C(=O)C(=O)[C@@]([H])(N([H])C(=O)[C@@]2([H])N(C(=O)C3(c4c([H])c([H])c(Cl)c([H])c4[H])C([H])([H])C3([H])[H])C([H])([H])[C@]([H])(S(=O)(=O)c3c([H])c([H])c([H])c([H])c3Cl)C2([H])[H])C([H])([H])C([H])([H])C([H])([H])[H])c([H])c1[H]


 48 52  0  0  0  0  0  0  0  0999 V2000
   38.7684   15.0299  -12.2992 C   0  0  0  0  0  0  0  0  0  0  0  0
   37.9324   15.1849  -13.5877 C   0  0  0  0  0  0  0  0  0  0  0  0
   36.7863   14.2022  -13.2501 C   0  0  0  0  0  0  0  0  0  0  0  0
   36.8894   14.0013  -11.7584 C   0  0  0  0  0  0  0  0  0  0  0  0
   37.7144   15.1913  -11.3539 N   0  0  0  0  0  0  0  0  0  0  0  0
   37.4999   15.9575  -10.2584 C   0  0  0  0  0  0  0  0  0  0  0  0
   38.6131   16.4650   -9.6926 O   0  0  0  0  0  0  0  0  0  0  0  0
   41.0961   15.1555  -11.5029 N   0  0  0  0  0  0  0  0  0  0  0  0
   40.0015   15.7298  -12.2700 C   0  0  0  0  0  0  0  0  0  0  0  0
   40.3073   16.8014  -12.8194 O   0  0  0  0  0  0  0  0  0  0  0  0
   40.9311   14.2735  -11.0192 H   0  0  0  0  0  0  0  0  0  0  0  0
   42.3974   15.8279  -11.4172 C   0  0  0  0  0  0  0  0  0  0  0  0
   43.4845   14.8427  -11.6854 C   0  0  0  0  0  0  0  0  0  0  0  0
   44.0325   14.2229  -10.7519 O   0  0  0  0  0  0  0  0  0  0  0  0
   43.8999   14.6018  -13.0476 C   0  0  0  0  0  0  0  0  0  0  0  0
   44.6772   15.3792  -13.6767 O   0  0  0  0  0  0  0  0  0  0  0  0
   43.4483   13.4625  -13.7625 N   0  0  0  0  0  0  0  0  0  0  0  0
   42.7969   12.8107  -13.2672 H   0  0  0  0  0  0  0  0  0  0  0  0
   43.8630   13.1934  -15.1384 C   0  0  0  0  0  0  0  0  0  0  0  0
   42.6981   13.0128  -16.0385 C   0  0  0  0  0  0  0  0  0  0  0  0
   42.6894   11.9714  -16.9264 C   0  0  0  0  0  0  0  0  0  0  0  0
   41.6280   11.7604  -17.7694 C   0  0  0  0  0  0  0  0  0  0  0  0
   40.5527   12.5889  -17.7403 C   0  0  0  0  0  0  0  0  0  0  0  0
   40.5465   13.6552  -16.8407 C   0  0  0  0  0  0  0  0  0  0  0  0
   41.6226   13.8695  -15.9854 C   0  0  0  0  0  0  0  0  0  0  0  0
   42.5879   16.4576  -10.0824 C   0  0  0  0  0  0  0  0  0  0  0  0
   42.4703   15.7566   -7.6895 C   0  0  0  0  0  0  0  0  0  0  0  0
   41.7107   15.8104   -9.0120 C   0  0  0  0  0  0  0  0  0  0  0  0
   36.3363   16.4214   -9.4729 C   0  0  0  0  0  0  0  0  0  0  0  0
   36.5583   17.5497   -8.5118 C   0  0  0  0  0  0  0  0  0  0  0  0
   36.5590   16.1620   -7.9481 C   0  0  0  0  0  0  0  0  0  0  0  0
   34.9105   16.1189   -9.7749 C   0  0  0  0  0  0  0  0  0  0  0  0
   34.3235   15.7740  -10.9165 C   0  0  0  0  0  0  0  0  0  0  0  0
   32.9360   15.5563  -11.0391 C   0  0  0  0  0  0  0  0  0  0  0  0
   32.1187   15.6975   -9.9468 C   0  0  0  0  0  0  0  0  0  0  0  0
   30.4019   15.4502   -9.9908 Cl  0  0  0  0  0  0  0  0  0  0  0  0
   32.7073   16.0572   -8.7347 C   0  0  0  0  0  0  0  0  0  0  0  0
   34.0408   16.2580   -8.6610 C   0  0  0  0  0  0  0  0  0  0  0  0
   37.1516   12.7306  -14.1493 S   0  0  0  0  0  0  0  0  0  0  0  0
   37.7855   11.6559  -13.3504 O   0  0  0  0  0  0  0  0  0  0  0  0
   38.1918   13.1466  -15.1967 O   0  0  0  0  0  0  0  0  0  0  0  0
   35.8230   12.0643  -15.0296 C   0  0  0  0  0  0  0  0  0  0  0  0
   34.4970   12.1546  -14.7078 C   0  0  0  0  0  0  0  0  0  0  0  0
   33.5035   11.5421  -15.4844 C   0  0  0  0  0  0  0  0  0  0  0  0
   33.8197   10.8181  -16.6146 C   0  0  0  0  0  0  0  0  0  0  0  0
   35.1680   10.7306  -16.9404 C   0  0  0  0  0  0  0  0  0  0  0  0
   36.1387   11.3317  -16.1765 C   0  0  0  0  0  0  0  0  0  0  0  0
   37.7948   11.1606  -16.6965 Cl  0  0  0  0  0  0  0  0  0  0  0  0
 27 28  1  0  0  0
 28 26  1  0  0  0
 26 12  1  0  0  0
 12  8  1  0  0  0
  8  9  1  0  0  0
  9 10  2  0  0  0
  9  1  1  0  0  0
  1  2  1  0  0  0
  2  3  1  0  0  0
  3  4  1  0  0  0
  4  5  1  0  0  0
  5  6  1  0  0  0
  6  7  2  0  0  0
  6 29  1  0  0  0
 29 30  1  0  0  0
 30 31  1  0  0  0
 29 32  1  0  0  0
 32 33  2  0  0  0
 33 34  1  0  0  0
 34 35  2  0  0  0
 35 36  1  0  0  0
 35 37  1  0  0  0
 37 38  2  0  0  0
  3 39  1  0  0  0
 39 40  2  0  0  0
 39 41  2  0  0  0
 39 42  1  0  0  0
 42 43  2  0  0  0
 43 44  1  0  0  0
 44 45  2  0  0  0
 45 46  1  0  0  0
 46 47  2  0  0  0
 47 48  1  0  0  0
 12 13  1  0  0  0
 13 14  2  0  0  0
 13 15  1  0  0  0
 15 16  2  0  0  0
 15 17  1  0  0  0
 17 19  1  0  0  0
 19 20  1  0  0  0
 20 21  2  0  0  0
 21 22  1  0  0  0
 22 23  2  0  0  0
 23 24  1  0  0  0
 24 25  2  0  0  0
  5  1  1  0  0  0
 31 29  1  0  0  0
 38 32  1  0  0  0
 47 42  1  0  0  0
 25 20  1  0  0  0
  8 11  1  0  0  0
 17 18  1  0  0  0
M  END
> <minimizedAffinity>
-8.95496

> <CNNscore>
0.2056470215

> <CNNaffinity>
7.6305131912

> <CNN_VS>
1.5691922903

> <CNNaffinity_variance>
0.1925215721

$$$$
[H]c1c([H])c([H])c(C([H])([H])N([H])C(=O)C(=O)[C@@]([H])(N([H])C(=O)[C@@]2([H])N(C(=O)C3(c4c([H])c([H])c(Cl)c([H])c4[H])C([H])([H])C3([H])[H])C([H])([H])[C@]([H])(S(=O)(=O)c3c([H])c([H])c([H])c([H])c3Cl)C2([H])[H])C([H])([H])C([H])([H])C([H])([H])[H])c([H])c1[H]


 48 52  0  0  0  0  0  0  0  0999 V2000
   38.8565   14.9369  -12.0978 C   0  0  0  0  0  0  0  0  0  0  0  0
   37.9830   15.2549  -13.3302 C   0  0  0  0  0  0  0  0  0  0  0  0
   36.8657   14.2080  -13.1093 C   0  0  0  0  0  0  0  0  0  0  0  0
   37.0132   13.7986  -11.6647 C   0  0  0  0  0  0  0  0  0  0  0  0
   37.8257   14.9374  -11.1139 N   0  0  0  0  0  0  0  0  0  0  0  0
   37.6262   15.5343   -9.9151 C   0  0  0  0  0  0  0  0  0  0  0  0
   38.7444   15.9814   -9.3095 O   0  0  0  0  0  0  0  0  0  0  0  0
   41.0533   15.2084  -11.0169 N   0  0  0  0  0  0  0  0  0  0  0  0
   40.0762   15.6537  -11.9983 C   0  0  0  0  0  0  0  0  0  0  0  0
   40.4579   16.6439  -12.6446 O   0  0  0  0  0  0  0  0  0  0  0  0
   40.8207   14.3993  -10.4422 H   0  0  0  0  0  0  0  0  0  0  0  0
   42.3327   15.9070  -10.8488 C   0  0  0  0  0  0  0  0  0  0  0  0
   43.4524   14.9806  -11.1842 C   0  0  0  0  0  0  0  0  0  0  0  0
   43.9612   14.2480  -10.3122 O   0  0  0  0  0  0  0  0  0  0  0  0
   43.9461   14.9302  -12.5407 C   0  0  0  0  0  0  0  0  0  0  0  0
   44.6084   15.8732  -13.0665 O   0  0  0  0  0  0  0  0  0  0  0  0
   43.7078   13.8020  -13.3674 N   0  0  0  0  0  0  0  0  0  0  0  0
   43.1539   13.0143  -12.9585 H   0  0  0  0  0  0  0  0  0  0  0  0
   44.2057   13.7249  -14.7398 C   0  0  0  0  0  0  0  0  0  0  0  0
   43.2199   13.0891  -15.6476 C   0  0  0  0  0  0  0  0  0  0  0  0
   41.8852   13.3314  -15.4664 C   0  0  0  0  0  0  0  0  0  0  0  0
   40.9400   12.7734  -16.2892 C   0  0  0  0  0  0  0  0  0  0  0  0
   41.3126   11.9608  -17.3111 C   0  0  0  0  0  0  0  0  0  0  0  0
   42.6696   11.7041  -17.5088 C   0  0  0  0  0  0  0  0  0  0  0  0
   43.6286   12.2699  -16.6747 C   0  0  0  0  0  0  0  0  0  0  0  0
   42.4843   16.4202   -9.4603 C   0  0  0  0  0  0  0  0  0  0  0  0
   42.4565   15.1077   -7.3373 C   0  0  0  0  0  0  0  0  0  0  0  0
   41.5992   15.6658   -8.4697 C   0  0  0  0  0  0  0  0  0  0  0  0
   36.4756   15.8543   -9.0434 C   0  0  0  0  0  0  0  0  0  0  0  0
   35.1916   16.2438   -9.7111 C   0  0  0  0  0  0  0  0  0  0  0  0
   36.0608   17.3525   -9.2024 C   0  0  0  0  0  0  0  0  0  0  0  0
   36.3588   15.5081   -7.6005 C   0  0  0  0  0  0  0  0  0  0  0  0
   36.9491   16.0385   -6.5341 C   0  0  0  0  0  0  0  0  0  0  0  0
   36.7530   15.5605   -5.2224 C   0  0  0  0  0  0  0  0  0  0  0  0
   35.9176   14.4966   -4.9959 C   0  0  0  0  0  0  0  0  0  0  0  0
   35.6066   13.8348   -3.4225 Cl  0  0  0  0  0  0  0  0  0  0  0  0
   35.2830   13.9207   -6.0962 C   0  0  0  0  0  0  0  0  0  0  0  0
   35.4998   14.4085   -7.3368 C   0  0  0  0  0  0  0  0  0  0  0  0
   37.2348   12.8885  -14.2186 S   0  0  0  0  0  0  0  0  0  0  0  0
   38.0688   11.8079  -13.6427 O   0  0  0  0  0  0  0  0  0  0  0  0
   38.0773   13.5228  -15.3323 O   0  0  0  0  0  0  0  0  0  0  0  0
   35.8630   12.1832  -14.9961 C   0  0  0  0  0  0  0  0  0  0  0  0
   34.5652   12.2240  -14.5673 C   0  0  0  0  0  0  0  0  0  0  0  0
   33.5337   11.5834  -15.2678 C   0  0  0  0  0  0  0  0  0  0  0  0
   33.7819   10.8802  -16.4278 C   0  0  0  0  0  0  0  0  0  0  0  0
   35.1016   10.8430  -16.8623 C   0  0  0  0  0  0  0  0  0  0  0  0
   36.1097   11.4716  -16.1728 C   0  0  0  0  0  0  0  0  0  0  0  0
   37.7231   11.3633  -16.8266 Cl  0  0  0  0  0  0  0  0  0  0  0  0
 27 28  1  0  0  0
 28 26  1  0  0  0
 26 12  1  0  0  0
 12  8  1  0  0  0
  8  9  1  0  0  0
  9 10  2  0  0  0
  9  1  1  0  0  0
  1  2  1  0  0  0
  2  3  1  0  0  0
  3  4  1  0  0  0
  4  5  1  0  0  0
  5  6  1  0  0  0
  6  7  2  0  0  0
  6 29  1  0  0  0
 29 30  1  0  0  0
 30 31  1  0  0  0
 29 32  1  0  0  0
 32 33  2  0  0  0
 33 34  1  0  0  0
 34 35  2  0  0  0
 35 36  1  0  0  0
 35 37  1  0  0  0
 37 38  2  0  0  0
  3 39  1  0  0  0
 39 40  2  0  0  0
 39 41  2  0  0  0
 39 42  1  0  0  0
 42 43  2  0  0  0
 43 44  1  0  0  0
 44 45  2  0  0  0
 45 46  1  0  0  0
 46 47  2  0  0  0
 47 48  1  0  0  0
 12 13  1  0  0  0
 13 14  2  0  0  0
 13 15  1  0  0  0
 15 16  2  0  0  0
 15 17  1  0  0  0
 17 19  1  0  0  0
 19 20  1  0  0  0
 20 21  2  0  0  0
 21 22  1  0  0  0
 22 23  2  0  0  0
 23 24  1  0  0  0
 24 25  2  0  0  0
  5  1  1  0  0  0
 31 29  1  0  0  0
 38 32  1  0  0  0
 47 42  1  0  0  0
 25 20  1  0  0  0
  8 11  1  0  0  0
 17 18  1  0  0  0
M  END
> <minimizedAffinity>
-8.48256

> <CNNscore>
0.1998412758

> <CNNaffinity>
7.4894981384

> <CNN_VS>
1.4967108965

> <CNNaffinity_variance>
0.1074481234

$$$$
[H]c1c([H])c([H])c(C([H])([H])N([H])C(=O)C(=O)[C@@]([H])(N([H])C(=O)[C@@]2([H])N(C(=O)C3(c4c([H])c([H])c(Cl)c([H])c4[H])C([H])([H])C3([H])[H])C([H])([H])[C@]([H])(S(=O)(=O)c3c([H])c([H])c([H])c([H])c3Cl)C2([H])[H])C([H])([H])C([H])([H])C([H])([H])[H])c([H])c1[H]


 48 52  0  0  0  0  0  0  0  0999 V2000
   39.0689   15.9625  -11.2602 C   0  0  0  0  0  0  0  0  0  0  0  0
   39.0088   15.2611   -9.8864 C   0  0  0  0  0  0  0  0  0  0  0  0
   37.5203   15.5162   -9.5514 C   0  0  0  0  0  0  0  0  0  0  0  0
   36.8950   15.8888  -10.8729 C   0  0  0  0  0  0  0  0  0  0  0  0
   37.9154   15.3630  -11.8439 N   0  0  0  0  0  0  0  0  0  0  0  0
   37.6364   14.7130  -12.9984 C   0  0  0  0  0  0  0  0  0  0  0  0
   38.5122   14.9309  -13.9996 O   0  0  0  0  0  0  0  0  0  0  0  0
   41.4049   15.1844  -11.3341 N   0  0  0  0  0  0  0  0  0  0  0  0
   40.3479   16.0283  -11.8695 C   0  0  0  0  0  0  0  0  0  0  0  0
   40.7237   16.7223  -12.8291 O   0  0  0  0  0  0  0  0  0  0  0  0
   41.1819   14.5805  -10.5437 H   0  0  0  0  0  0  0  0  0  0  0  0
   42.7563   15.2065  -11.9053 C   0  0  0  0  0  0  0  0  0  0  0  0
   43.5416   14.0579  -11.3683 C   0  0  0  0  0  0  0  0  0  0  0  0
   44.0779   13.2336  -12.1357 O   0  0  0  0  0  0  0  0  0  0  0  0
   43.6857   13.9065   -9.9391 C   0  0  0  0  0  0  0  0  0  0  0  0
   44.4560   14.6341   -9.2452 O   0  0  0  0  0  0  0  0  0  0  0  0
   42.9595   12.9161   -9.2287 N   0  0  0  0  0  0  0  0  0  0  0  0
   42.3241   12.2958   -9.7819 H   0  0  0  0  0  0  0  0  0  0  0  0
   43.0821   12.7508   -7.7813 C   0  0  0  0  0  0  0  0  0  0  0  0
   41.8583   13.1961   -7.0713 C   0  0  0  0  0  0  0  0  0  0  0  0
   40.6725   12.5557   -7.3090 C   0  0  0  0  0  0  0  0  0  0  0  0
   39.5189   12.9270   -6.6662 C   0  0  0  0  0  0  0  0  0  0  0  0
   39.5296   13.9482   -5.7715 C   0  0  0  0  0  0  0  0  0  0  0  0
   40.7308   14.6111   -5.5183 C   0  0  0  0  0  0  0  0  0  0  0  0
   41.9010   14.2348   -6.1697 C   0  0  0  0  0  0  0  0  0  0  0  0
   43.4449   16.4905  -11.6022 C   0  0  0  0  0  0  0  0  0  0  0  0
   44.4201   18.0978  -13.2443 C   0  0  0  0  0  0  0  0  0  0  0  0
   44.6138   16.7526  -12.5502 C   0  0  0  0  0  0  0  0  0  0  0  0
   36.5978   13.7846  -13.4941 C   0  0  0  0  0  0  0  0  0  0  0  0
   35.2204   13.9197  -12.9191 C   0  0  0  0  0  0  0  0  0  0  0  0
   36.0980   12.8495  -12.3463 C   0  0  0  0  0  0  0  0  0  0  0  0
   36.6887   12.9639  -14.7326 C   0  0  0  0  0  0  0  0  0  0  0  0
   35.7488   12.6011  -15.5996 C   0  0  0  0  0  0  0  0  0  0  0  0
   36.0013   11.7787  -16.7165 C   0  0  0  0  0  0  0  0  0  0  0  0
   37.2684   11.3107  -16.9534 C   0  0  0  0  0  0  0  0  0  0  0  0
   37.6843   10.2966  -18.2984 Cl  0  0  0  0  0  0  0  0  0  0  0  0
   38.2757   11.6765  -16.0609 C   0  0  0  0  0  0  0  0  0  0  0  0
   37.9907   12.4651  -15.0020 C   0  0  0  0  0  0  0  0  0  0  0  0
   37.5210   16.8599   -8.4103 S   0  0  0  0  0  0  0  0  0  0  0  0
   37.1127   18.1630   -8.9850 O   0  0  0  0  0  0  0  0  0  0  0  0
   38.9854   17.0268   -7.9860 O   0  0  0  0  0  0  0  0  0  0  0  0
   36.6282   16.5843   -6.9574 C   0  0  0  0  0  0  0  0  0  0  0  0
   37.1327   16.4837   -5.6904 C   0  0  0  0  0  0  0  0  0  0  0  0
   36.3107   16.2243   -4.5848 C   0  0  0  0  0  0  0  0  0  0  0  0
   34.9488   16.0592   -4.7253 C   0  0  0  0  0  0  0  0  0  0  0  0
   34.4390   16.1648   -6.0139 C   0  0  0  0  0  0  0  0  0  0  0  0
   35.2478   16.4185   -7.0949 C   0  0  0  0  0  0  0  0  0  0  0  0
   34.4874   16.5414   -8.6597 Cl  0  0  0  0  0  0  0  0  0  0  0  0
 27 28  1  0  0  0
 28 26  1  0  0  0
 26 12  1  0  0  0
 12  8  1  0  0  0
  8  9  1  0  0  0
  9 10  2  0  0  0
  9  1  1  0  0  0
  1  2  1  0  0  0
  2  3  1  0  0  0
  3  4  1  0  0  0
  4  5  1  0  0  0
  5  6  1  0  0  0
  6  7  2  0  0  0
  6 29  1  0  0  0
 29 30  1  0  0  0
 30 31  1  0  0  0
 29 32  1  0  0  0
 32 33  2  0  0  0
 33 34  1  0  0  0
 34 35  2  0  0  0
 35 36  1  0  0  0
 35 37  1  0  0  0
 37 38  2  0  0  0
  3 39  1  0  0  0
 39 40  2  0  0  0
 39 41  2  0  0  0
 39 42  1  0  0  0
 42 43  2  0  0  0
 43 44  1  0  0  0
 44 45  2  0  0  0
 45 46  1  0  0  0
 46 47  2  0  0  0
 47 48  1  0  0  0
 12 13  1  0  0  0
 13 14  2  0  0  0
 13 15  1  0  0  0
 15 16  2  0  0  0
 15 17  1  0  0  0
 17 19  1  0  0  0
 19 20  1  0  0  0
 20 21  2  0  0  0
 21 22  1  0  0  0
 22 23  2  0  0  0
 23 24  1  0  0  0
 24 25  2  0  0  0
  5  1  1  0  0  0
 31 29  1  0  0  0
 38 32  1  0  0  0
 47 42  1  0  0  0
 25 20  1  0  0  0
  8 11  1  0  0  0
 17 18  1  0  0  0
M  END
> <minimizedAffinity>
-8.85134

> <CNNscore>
0.1907415986

> <CNNaffinity>
6.9328727722

> <CNN_VS>
1.3223872185

> <CNNaffinity_variance>
0.6715239882

$$$$
[H]c1c([H])c([H])c(C([H])([H])N([H])C(=O)C(=O)[C@@]([H])(N([H])C(=O)[C@@]2([H])N(C(=O)C3(c4c([H])c([H])c(Cl)c([H])c4[H])C([H])([H])C3([H])[H])C([H])([H])[C@]([H])(S(=O)(=O)c3c([H])c([H])c([H])c([H])c3Cl)C2([H])[H])C([H])([H])C([H])([H])C([H])([H])[H])c([H])c1[H]


 48 52  0  0  0  0  0  0  0  0999 V2000
   41.8612   15.0558  -12.6087 C   0  0  0  0  0  0  0  0  0  0  0  0
   43.0231   15.8446  -13.2496 C   0  0  0  0  0  0  0  0  0  0  0  0
   43.9192   14.6549  -13.6677 C   0  0  0  0  0  0  0  0  0  0  0  0
   43.0020   13.4579  -13.6219 C   0  0  0  0  0  0  0  0  0  0  0  0
   41.6509   14.1164  -13.6594 N   0  0  0  0  0  0  0  0  0  0  0  0
   40.5887   13.6847  -14.3795 C   0  0  0  0  0  0  0  0  0  0  0  0
   39.3872   13.9114  -13.8121 O   0  0  0  0  0  0  0  0  0  0  0  0
   40.1931   15.2967  -10.8122 N   0  0  0  0  0  0  0  0  0  0  0  0
   40.8447   15.8330  -11.9971 C   0  0  0  0  0  0  0  0  0  0  0  0
   40.4043   16.9468  -12.3277 O   0  0  0  0  0  0  0  0  0  0  0  0
   40.4951   14.3849  -10.4706 H   0  0  0  0  0  0  0  0  0  0  0  0
   39.1254   16.0384  -10.1319 C   0  0  0  0  0  0  0  0  0  0  0  0
   39.0030   15.5557   -8.7260 C   0  0  0  0  0  0  0  0  0  0  0  0
   38.8330   14.3455   -8.4763 O   0  0  0  0  0  0  0  0  0  0  0  0
   39.0900   16.5064   -7.6421 C   0  0  0  0  0  0  0  0  0  0  0  0
   40.1842   16.8119   -7.0820 O   0  0  0  0  0  0  0  0  0  0  0  0
   37.9327   17.1560   -7.1403 N   0  0  0  0  0  0  0  0  0  0  0  0
   37.0152   16.9122   -7.5802 H   0  0  0  0  0  0  0  0  0  0  0  0
   37.9979   18.1284   -6.0506 C   0  0  0  0  0  0  0  0  0  0  0  0
   37.5092   19.4631   -6.4747 C   0  0  0  0  0  0  0  0  0  0  0  0
   37.7613   19.8982   -7.7475 C   0  0  0  0  0  0  0  0  0  0  0  0
   37.3184   21.1205   -8.1853 C   0  0  0  0  0  0  0  0  0  0  0  0
   36.6134   21.9326   -7.3565 C   0  0  0  0  0  0  0  0  0  0  0  0
   36.3482   21.5032   -6.0558 C   0  0  0  0  0  0  0  0  0  0  0  0
   36.7970   20.2636   -5.6114 C   0  0  0  0  0  0  0  0  0  0  0  0
   37.8287   15.8859  -10.8458 C   0  0  0  0  0  0  0  0  0  0  0  0
   35.5768   16.4564   -9.9323 C   0  0  0  0  0  0  0  0  0  0  0  0
   36.8614   17.0250  -10.5286 C   0  0  0  0  0  0  0  0  0  0  0  0
   40.3618   13.0082  -15.6745 C   0  0  0  0  0  0  0  0  0  0  0  0
   41.5680   12.6734  -16.4986 C   0  0  0  0  0  0  0  0  0  0  0  0
   40.8168   13.9175  -16.8611 C   0  0  0  0  0  0  0  0  0  0  0  0
   39.1041   12.3281  -16.0884 C   0  0  0  0  0  0  0  0  0  0  0  0
   38.8854   11.4129  -17.0272 C   0  0  0  0  0  0  0  0  0  0  0  0
   37.6079   10.8929  -17.3192 C   0  0  0  0  0  0  0  0  0  0  0  0
   36.5118   11.3287  -16.6197 C   0  0  0  0  0  0  0  0  0  0  0  0
   34.8996   10.7514  -16.8989 Cl  0  0  0  0  0  0  0  0  0  0  0  0
   36.7113   12.2878  -15.6270 C   0  0  0  0  0  0  0  0  0  0  0  0
   37.9519   12.7612  -15.3802 C   0  0  0  0  0  0  0  0  0  0  0  0
   45.1873   14.5721  -12.4458 S   0  0  0  0  0  0  0  0  0  0  0  0
   44.8985   15.3193  -11.1995 O   0  0  0  0  0  0  0  0  0  0  0  0
   46.4019   15.2620  -13.0790 O   0  0  0  0  0  0  0  0  0  0  0  0
   45.7018   12.9751  -12.0348 C   0  0  0  0  0  0  0  0  0  0  0  0
   46.7124   12.2624  -12.6186 C   0  0  0  0  0  0  0  0  0  0  0  0
   47.0205   10.9538  -12.2214 C   0  0  0  0  0  0  0  0  0  0  0  0
   46.3158   10.3229  -11.2180 C   0  0  0  0  0  0  0  0  0  0  0  0
   45.2912   11.0510  -10.6249 C   0  0  0  0  0  0  0  0  0  0  0  0
   44.9918   12.3330  -11.0173 C   0  0  0  0  0  0  0  0  0  0  0  0
   43.6919   13.1474  -10.1873 Cl  0  0  0  0  0  0  0  0  0  0  0  0
 27 28  1  0  0  0
 28 26  1  0  0  0
 26 12  1  0  0  0
 12  8  1  0  0  0
  8  9  1  0  0  0
  9 10  2  0  0  0
  9  1  1  0  0  0
  1  2  1  0  0  0
  2  3  1  0  0  0
  3  4  1  0  0  0
  4  5  1  0  0  0
  5  6  1  0  0  0
  6  7  2  0  0  0
  6 29  1  0  0  0
 29 30  1  0  0  0
 30 31  1  0  0  0
 29 32  1  0  0  0
 32 33  2  0  0  0
 33 34  1  0  0  0
 34 35  2  0  0  0
 35 36  1  0  0  0
 35 37  1  0  0  0
 37 38  2  0  0  0
  3 39  1  0  0  0
 39 40  2  0  0  0
 39 41  2  0  0  0
 39 42  1  0  0  0
 42 43  2  0  0  0
 43 44  1  0  0  0
 44 45  2  0  0  0
 45 46  1  0  0  0
 46 47  2  0  0  0
 47 48  1  0  0  0
 12 13  1  0  0  0
 13 14  2  0  0  0
 13 15  1  0  0  0
 15 16  2  0  0  0
 15 17  1  0  0  0
 17 19  1  0  0  0
 19 20  1  0  0  0
 20 21  2  0  0  0
 21 22  1  0  0  0
 22 23  2  0  0  0
 23 24  1  0  0  0
 24 25  2  0  0  0
  5  1  1  0  0  0
 31 29  1  0  0  0
 38 32  1  0  0  0
 47 42  1  0  0  0
 25 20  1  0  0  0
  8 11  1  0  0  0
 17 18  1  0  0  0
M  END
> <minimizedAffinity>
-8.84472

> <CNNscore>
0.1834071726

> <CNNaffinity>
6.7983474731

> <CNN_VS>
1.2468656301

> <CNNaffinity_variance>
0.3350905776

$$$$
[H]c1c([H])c([H])c(C([H])([H])N([H])C(=O)C(=O)[C@@]([H])(N([H])C(=O)[C@@]2([H])N(C(=O)C3(c4c([H])c([H])c(Cl)c([H])c4[H])C([H])([H])C3([H])[H])C([H])([H])[C@]([H])(S(=O)(=O)c3c([H])c([H])c([H])c([H])c3Cl)C2([H])[H])C([H])([H])C([H])([H])C([H])([H])[H])c([H])c1[H]


 48 52  0  0  0  0  0  0  0  0999 V2000
   39.0841   14.9328  -12.6341 C   0  0  0  0  0  0  0  0  0  0  0  0
   38.1732   15.1207  -13.8662 C   0  0  0  0  0  0  0  0  0  0  0  0
   37.0392   14.1428  -13.4780 C   0  0  0  0  0  0  0  0  0  0  0  0
   37.2303   13.9120  -11.9994 C   0  0  0  0  0  0  0  0  0  0  0  0
   38.0912   15.0860  -11.6235 N   0  0  0  0  0  0  0  0  0  0  0  0
   37.9517   15.8329  -10.5029 C   0  0  0  0  0  0  0  0  0  0  0  0
   39.1026   16.3186   -9.9965 O   0  0  0  0  0  0  0  0  0  0  0  0
   41.5446   14.8341  -12.5729 N   0  0  0  0  0  0  0  0  0  0  0  0
   40.3241   15.6201  -12.6669 C   0  0  0  0  0  0  0  0  0  0  0  0
   40.5417   16.8392  -12.7673 O   0  0  0  0  0  0  0  0  0  0  0  0
   41.4574   13.8220  -12.4883 H   0  0  0  0  0  0  0  0  0  0  0  0
   42.8639   15.4762  -12.5888 C   0  0  0  0  0  0  0  0  0  0  0  0
   43.8279   14.6129  -13.3302 C   0  0  0  0  0  0  0  0  0  0  0  0
   43.5591   13.4209  -13.5811 O   0  0  0  0  0  0  0  0  0  0  0  0
   45.0858   15.1718  -13.7676 C   0  0  0  0  0  0  0  0  0  0  0  0
   45.1896   15.9167  -14.7869 O   0  0  0  0  0  0  0  0  0  0  0  0
   46.2903   14.9081  -13.0656 N   0  0  0  0  0  0  0  0  0  0  0  0
   46.2316   14.2868  -12.2259 H   0  0  0  0  0  0  0  0  0  0  0  0
   47.5732   15.4705  -13.4843 C   0  0  0  0  0  0  0  0  0  0  0  0
   47.7819   16.8326  -12.9354 C   0  0  0  0  0  0  0  0  0  0  0  0
   47.6152   17.0500  -11.5946 C   0  0  0  0  0  0  0  0  0  0  0  0
   47.8089   18.2909  -11.0428 C   0  0  0  0  0  0  0  0  0  0  0  0
   48.1737   19.3403  -11.8234 C   0  0  0  0  0  0  0  0  0  0  0  0
   48.3475   19.1347  -13.1923 C   0  0  0  0  0  0  0  0  0  0  0  0
   48.1514   17.8763  -13.7524 C   0  0  0  0  0  0  0  0  0  0  0  0
   43.3532   15.7286  -11.2063 C   0  0  0  0  0  0  0  0  0  0  0  0
   42.9410   14.7738   -8.9371 C   0  0  0  0  0  0  0  0  0  0  0  0
   43.3771   14.4542  -10.3642 C   0  0  0  0  0  0  0  0  0  0  0  0
   36.8429   16.2926   -9.6395 C   0  0  0  0  0  0  0  0  0  0  0  0
   35.8604   15.2623   -9.1713 C   0  0  0  0  0  0  0  0  0  0  0  0
   35.4670   16.0942  -10.3531 C   0  0  0  0  0  0  0  0  0  0  0  0
   36.7890   17.5928   -8.9168 C   0  0  0  0  0  0  0  0  0  0  0  0
   36.0321   17.9834   -7.8964 C   0  0  0  0  0  0  0  0  0  0  0  0
   36.0818   19.2809   -7.3473 C   0  0  0  0  0  0  0  0  0  0  0  0
   36.9429   20.2142   -7.8652 C   0  0  0  0  0  0  0  0  0  0  0  0
   37.0831   21.8347   -7.2612 Cl  0  0  0  0  0  0  0  0  0  0  0  0
   37.7511   19.8320   -8.9357 C   0  0  0  0  0  0  0  0  0  0  0  0
   37.6708   18.5789   -9.4331 C   0  0  0  0  0  0  0  0  0  0  0  0
   37.3333   12.6853  -14.4251 S   0  0  0  0  0  0  0  0  0  0  0  0
   38.0028   11.5893  -13.6866 O   0  0  0  0  0  0  0  0  0  0  0  0
   38.3127   13.1115  -15.5258 O   0  0  0  0  0  0  0  0  0  0  0  0
   35.9468   12.0492  -15.2355 C   0  0  0  0  0  0  0  0  0  0  0  0
   34.6428   12.1555  -14.8378 C   0  0  0  0  0  0  0  0  0  0  0  0
   33.5974   11.5669  -15.5630 C   0  0  0  0  0  0  0  0  0  0  0  0
   33.8377   10.8513  -16.7171 C   0  0  0  0  0  0  0  0  0  0  0  0
   35.1638   10.7475  -17.1200 C   0  0  0  0  0  0  0  0  0  0  0  0
   36.1855   11.3252  -16.4063 C   0  0  0  0  0  0  0  0  0  0  0  0
   37.8065   11.1355  -17.0214 Cl  0  0  0  0  0  0  0  0  0  0  0  0
 27 28  1  0  0  0
 28 26  1  0  0  0
 26 12  1  0  0  0
 12  8  1  0  0  0
  8  9  1  0  0  0
  9 10  2  0  0  0
  9  1  1  0  0  0
  1  2  1  0  0  0
  2  3  1  0  0  0
  3  4  1  0  0  0
  4  5  1  0  0  0
  5  6  1  0  0  0
  6  7  2  0  0  0
  6 29  1  0  0  0
 29 30  1  0  0  0
 30 31  1  0  0  0
 29 32  1  0  0  0
 32 33  2  0  0  0
 33 34  1  0  0  0
 34 35  2  0  0  0
 35 36  1  0  0  0
 35 37  1  0  0  0
 37 38  2  0  0  0
  3 39  1  0  0  0
 39 40  2  0  0  0
 39 41  2  0  0  0
 39 42  1  0  0  0
 42 43  2  0  0  0
 43 44  1  0  0  0
 44 45  2  0  0  0
 45 46  1  0  0  0
 46 47  2  0  0  0
 47 48  1  0  0  0
 12 13  1  0  0  0
 13 14  2  0  0  0
 13 15  1  0  0  0
 15 16  2  0  0  0
 15 17  1  0  0  0
 17 19  1  0  0  0
 19 20  1  0  0  0
 20 21  2  0  0  0
 21 22  1  0  0  0
 22 23  2  0  0  0
 23 24  1  0  0  0
 24 25  2  0  0  0
  5  1  1  0  0  0
 31 29  1  0  0  0
 38 32  1  0  0  0
 47 42  1  0  0  0
 25 20  1  0  0  0
  8 11  1  0  0  0
 17 18  1  0  0  0
M  END
> <minimizedAffinity>
-8.52517

> <CNNscore>
0.1776762903

> <CNNaffinity>
6.9088883400

> <CNN_VS>
1.2275456190

> <CNNaffinity_variance>
0.1166715845

$$$$
[H]c1c([H])c([H])c(C([H])([H])N([H])C(=O)C(=O)[C@@]([H])(N([H])C(=O)[C@@]2([H])N(C(=O)C3(c4c([H])c([H])c(Cl)c([H])c4[H])C([H])([H])C3([H])[H])C([H])([H])[C@]([H])(S(=O)(=O)c3c([H])c([H])c([H])c([H])c3Cl)C2([H])[H])C([H])([H])C([H])([H])C([H])([H])[H])c([H])c1[H]


 48 52  0  0  0  0  0  0  0  0999 V2000
   41.6731   15.1389  -12.5627 C   0  0  0  0  0  0  0  0  0  0  0  0
   42.8606   15.9173  -13.1686 C   0  0  0  0  0  0  0  0  0  0  0  0
   43.7765   14.7216  -13.5217 C   0  0  0  0  0  0  0  0  0  0  0  0
   42.8604   13.5232  -13.4908 C   0  0  0  0  0  0  0  0  0  0  0  0
   41.5110   14.1769  -13.6014 N   0  0  0  0  0  0  0  0  0  0  0  0
   40.4822   13.7271  -14.3581 C   0  0  0  0  0  0  0  0  0  0  0  0
   39.2566   13.9623  -13.8488 O   0  0  0  0  0  0  0  0  0  0  0  0
   39.7597   15.3123  -11.0211 N   0  0  0  0  0  0  0  0  0  0  0  0
   40.6293   15.9259  -12.0128 C   0  0  0  0  0  0  0  0  0  0  0  0
   40.3278   17.1066  -12.2548 O   0  0  0  0  0  0  0  0  0  0  0  0
   39.9375   14.3424  -10.7624 H   0  0  0  0  0  0  0  0  0  0  0  0
   38.6518   16.0606  -10.4164 C   0  0  0  0  0  0  0  0  0  0  0  0
   38.4204   15.5697   -9.0273 C   0  0  0  0  0  0  0  0  0  0  0  0
   39.0524   14.5921   -8.5792 O   0  0  0  0  0  0  0  0  0  0  0  0
   37.4546   16.2436   -8.1910 C   0  0  0  0  0  0  0  0  0  0  0  0
   36.2217   15.9531   -8.1937 O   0  0  0  0  0  0  0  0  0  0  0  0
   37.8456   17.2849   -7.3102 N   0  0  0  0  0  0  0  0  0  0  0  0
   38.8576   17.5500   -7.2977 H   0  0  0  0  0  0  0  0  0  0  0  0
   36.8874   17.9745   -6.4478 C   0  0  0  0  0  0  0  0  0  0  0  0
   36.5621   19.3282   -6.9595 C   0  0  0  0  0  0  0  0  0  0  0  0
   37.5642   20.1196   -7.4518 C   0  0  0  0  0  0  0  0  0  0  0  0
   37.3069   21.3734   -7.9452 C   0  0  0  0  0  0  0  0  0  0  0  0
   36.0395   21.8606   -7.9556 C   0  0  0  0  0  0  0  0  0  0  0  0
   35.0069   21.0658   -7.4571 C   0  0  0  0  0  0  0  0  0  0  0  0
   35.2674   19.7941   -6.9568 C   0  0  0  0  0  0  0  0  0  0  0  0
   37.4103   15.9268  -11.2258 C   0  0  0  0  0  0  0  0  0  0  0  0
   35.9181   14.3652  -12.4772 C   0  0  0  0  0  0  0  0  0  0  0  0
   36.9912   14.4677  -11.3970 C   0  0  0  0  0  0  0  0  0  0  0  0
   40.3137   13.0227  -15.6471 C   0  0  0  0  0  0  0  0  0  0  0  0
   41.5547   12.6882  -16.4179 C   0  0  0  0  0  0  0  0  0  0  0  0
   40.8023   13.9150  -16.8333 C   0  0  0  0  0  0  0  0  0  0  0  0
   39.0815   12.3180  -16.0951 C   0  0  0  0  0  0  0  0  0  0  0  0
   38.8999   11.4263  -17.0639 C   0  0  0  0  0  0  0  0  0  0  0  0
   37.6419   10.8771  -17.3853 C   0  0  0  0  0  0  0  0  0  0  0  0
   36.5262   11.2575  -16.6843 C   0  0  0  0  0  0  0  0  0  0  0  0
   34.9352   10.6405  -16.9982 Cl  0  0  0  0  0  0  0  0  0  0  0  0
   36.6867   12.1909  -15.6605 C   0  0  0  0  0  0  0  0  0  0  0  0
   37.9098   12.6937  -15.3861 C   0  0  0  0  0  0  0  0  0  0  0  0
   44.9898   14.6682  -12.2440 S   0  0  0  0  0  0  0  0  0  0  0  0
   44.9431   13.4560  -11.3935 O   0  0  0  0  0  0  0  0  0  0  0  0
   44.6529   15.8447  -11.3196 O   0  0  0  0  0  0  0  0  0  0  0  0
   46.6156   14.9207  -12.7702 C   0  0  0  0  0  0  0  0  0  0  0  0
   47.4212   15.9832  -12.4664 C   0  0  0  0  0  0  0  0  0  0  0  0
   48.7201   16.0980  -12.9809 C   0  0  0  0  0  0  0  0  0  0  0  0
   49.2478   15.1394  -13.8201 C   0  0  0  0  0  0  0  0  0  0  0  0
   48.4275   14.0596  -14.1246 C   0  0  0  0  0  0  0  0  0  0  0  0
   47.1549   13.9508  -13.6190 C   0  0  0  0  0  0  0  0  0  0  0  0
   46.2280   12.5420  -14.0641 Cl  0  0  0  0  0  0  0  0  0  0  0  0
 27 28  1  0  0  0
 28 26  1  0  0  0
 26 12  1  0  0  0
 12  8  1  0  0  0
  8  9  1  0  0  0
  9 10  2  0  0  0
  9  1  1  0  0  0
  1  2  1  0  0  0
  2  3  1  0  0  0
  3  4  1  0  0  0
  4  5  1  0  0  0
  5  6  1  0  0  0
  6  7  2  0  0  0
  6 29  1  0  0  0
 29 30  1  0  0  0
 30 31  1  0  0  0
 29 32  1  0  0  0
 32 33  2  0  0  0
 33 34  1  0  0  0
 34 35  2  0  0  0
 35 36  1  0  0  0
 35 37  1  0  0  0
 37 38  2  0  0  0
  3 39  1  0  0  0
 39 40  2  0  0  0
 39 41  2  0  0  0
 39 42  1  0  0  0
 42 43  2  0  0  0
 43 44  1  0  0  0
 44 45  2  0  0  0
 45 46  1  0  0  0
 46 47  2  0  0  0
 47 48  1  0  0  0
 12 13  1  0  0  0
 13 14  2  0  0  0
 13 15  1  0  0  0
 15 16  2  0  0  0
 15 17  1  0  0  0
 17 19  1  0  0  0
 19 20  1  0  0  0
 20 21  2  0  0  0
 21 22  1  0  0  0
 22 23  2  0  0  0
 23 24  1  0  0  0
 24 25  2  0  0  0
  5  1  1  0  0  0
 31 29  1  0  0  0
 38 32  1  0  0  0
 47 42  1  0  0  0
 25 20  1  0  0  0
  8 11  1  0  0  0
 17 18  1  0  0  0
M  END
> <minimizedAffinity>
-8.48861

> <CNNscore>
0.1767417043

> <CNNaffinity>
7.1361060143

> <CNN_VS>
1.2612475157

> <CNNaffinity_variance>
0.1136080176

$$$$
[H]c1c([H])c([H])c(C([H])([H])N([H])C(=O)C(=O)[C@@]([H])(N([H])C(=O)[C@@]2([H])N(C(=O)C3(c4c([H])c([H])c(Cl)c([H])c4[H])C([H])([H])C3([H])[H])C([H])([H])[C@]([H])(S(=O)(=O)c3c([H])c([H])c([H])c([H])c3Cl)C2([H])[H])C([H])([H])C([H])([H])C([H])([H])[H])c([H])c1[H]


 48 52  0  0  0  0  0  0  0  0999 V2000
   41.7608   15.1001  -12.6266 C   0  0  0  0  0  0  0  0  0  0  0  0
   42.9515   15.8649  -13.2434 C   0  0  0  0  0  0  0  0  0  0  0  0
   43.8571   14.6597  -13.5907 C   0  0  0  0  0  0  0  0  0  0  0  0
   42.9324   13.4684  -13.5465 C   0  0  0  0  0  0  0  0  0  0  0  0
   41.5873   14.1312  -13.6570 N   0  0  0  0  0  0  0  0  0  0  0  0
   40.5522   13.6830  -14.4059 C   0  0  0  0  0  0  0  0  0  0  0  0
   39.3304   13.9313  -13.8936 O   0  0  0  0  0  0  0  0  0  0  0  0
   39.8589   15.3019  -11.0743 N   0  0  0  0  0  0  0  0  0  0  0  0
   40.7251   15.8992  -12.0788 C   0  0  0  0  0  0  0  0  0  0  0  0
   40.4283   17.0787  -12.3324 O   0  0  0  0  0  0  0  0  0  0  0  0
   40.0331   14.3341  -10.8055 H   0  0  0  0  0  0  0  0  0  0  0  0
   38.7593   16.0632  -10.4708 C   0  0  0  0  0  0  0  0  0  0  0  0
   38.7159   15.7957   -9.0042 C   0  0  0  0  0  0  0  0  0  0  0  0
   38.5623   14.6372   -8.5682 O   0  0  0  0  0  0  0  0  0  0  0  0
   38.8611   16.8964   -8.0802 C   0  0  0  0  0  0  0  0  0  0  0  0
   38.2092   17.9768   -8.1904 O   0  0  0  0  0  0  0  0  0  0  0  0
   39.7588   16.8215   -6.9841 N   0  0  0  0  0  0  0  0  0  0  0  0
   40.3163   15.9425   -6.8780 H   0  0  0  0  0  0  0  0  0  0  0  0
   39.9154   17.9189   -6.0310 C   0  0  0  0  0  0  0  0  0  0  0  0
   41.1332   17.7562   -5.2000 C   0  0  0  0  0  0  0  0  0  0  0  0
   42.0090   18.8008   -5.0789 C   0  0  0  0  0  0  0  0  0  0  0  0
   43.1415   18.6979   -4.3117 C   0  0  0  0  0  0  0  0  0  0  0  0
   43.4202   17.5456   -3.6497 C   0  0  0  0  0  0  0  0  0  0  0  0
   42.5370   16.4716   -3.7633 C   0  0  0  0  0  0  0  0  0  0  0  0
   41.3882   16.5755   -4.5410 C   0  0  0  0  0  0  0  0  0  0  0  0
   37.4568   15.7124  -11.0993 C   0  0  0  0  0  0  0  0  0  0  0  0
   34.9853   15.9443  -10.8373 C   0  0  0  0  0  0  0  0  0  0  0  0
   36.3307   16.6373  -10.6408 C   0  0  0  0  0  0  0  0  0  0  0  0
   40.3732   12.9697  -15.6886 C   0  0  0  0  0  0  0  0  0  0  0  0
   41.6085   12.6210  -16.4623 C   0  0  0  0  0  0  0  0  0  0  0  0
   40.8623   13.8494  -16.8839 C   0  0  0  0  0  0  0  0  0  0  0  0
   39.1344   12.2697  -16.1255 C   0  0  0  0  0  0  0  0  0  0  0  0
   38.9402   11.3813  -17.0949 C   0  0  0  0  0  0  0  0  0  0  0  0
   37.6773   10.8365  -17.4045 C   0  0  0  0  0  0  0  0  0  0  0  0
   36.5701   11.2179  -16.6907 C   0  0  0  0  0  0  0  0  0  0  0  0
   34.9742   10.6061  -16.9895 Cl  0  0  0  0  0  0  0  0  0  0  0  0
   36.7440   12.1478  -15.6659 C   0  0  0  0  0  0  0  0  0  0  0  0
   37.9713   12.6465  -15.4031 C   0  0  0  0  0  0  0  0  0  0  0  0
   45.0752   14.6074  -12.3175 S   0  0  0  0  0  0  0  0  0  0  0  0
   44.6886   15.2885  -11.0598 O   0  0  0  0  0  0  0  0  0  0  0  0
   46.2705   15.3925  -12.8716 O   0  0  0  0  0  0  0  0  0  0  0  0
   45.6695   13.0300  -11.9401 C   0  0  0  0  0  0  0  0  0  0  0  0
   46.7330   12.3934  -12.5179 C   0  0  0  0  0  0  0  0  0  0  0  0
   47.1053   11.0926  -12.1513 C   0  0  0  0  0  0  0  0  0  0  0  0
   46.4133   10.3926  -11.1855 C   0  0  0  0  0  0  0  0  0  0  0  0
   45.3347   11.0435  -10.5983 C   0  0  0  0  0  0  0  0  0  0  0  0
   44.9726   12.3180  -10.9607 C   0  0  0  0  0  0  0  0  0  0  0  0
   43.6086   13.0324  -10.1415 Cl  0  0  0  0  0  0  0  0  0  0  0  0
 27 28  1  0  0  0
 28 26  1  0  0  0
 26 12  1  0  0  0
 12  8  1  0  0  0
  8  9  1  0  0  0
  9 10  2  0  0  0
  9  1  1  0  0  0
  1  2  1  0  0  0
  2  3  1  0  0  0
  3  4  1  0  0  0
  4  5  1  0  0  0
  5  6  1  0  0  0
  6  7  2  0  0  0
  6 29  1  0  0  0
 29 30  1  0  0  0
 30 31  1  0  0  0
 29 32  1  0  0  0
 32 33  2  0  0  0
 33 34  1  0  0  0
 34 35  2  0  0  0
 35 36  1  0  0  0
 35 37  1  0  0  0
 37 38  2  0  0  0
  3 39  1  0  0  0
 39 40  2  0  0  0
 39 41  2  0  0  0
 39 42  1  0  0  0
 42 43  2  0  0  0
 43 44  1  0  0  0
 44 45  2  0  0  0
 45 46  1  0  0  0
 46 47  2  0  0  0
 47 48  1  0  0  0
 12 13  1  0  0  0
 13 14  2  0  0  0
 13 15  1  0  0  0
 15 16  2  0  0  0
 15 17  1  0  0  0
 17 19  1  0  0  0
 19 20  1  0  0  0
 20 21  2  0  0  0
 21 22  1  0  0  0
 22 23  2  0  0  0
 23 24  1  0  0  0
 24 25  2  0  0  0
  5  1  1  0  0  0
 31 29  1  0  0  0
 38 32  1  0  0  0
 47 42  1  0  0  0
 25 20  1  0  0  0
  8 11  1  0  0  0
 17 18  1  0  0  0
M  END
> <minimizedAffinity>
-8.50852

> <CNNscore>
0.1755769998

> <CNNaffinity>
7.0260224342

> <CNN_VS>
1.2336078882

> <CNNaffinity_variance>
0.1609580219

$$$$
[H]c1c([H])c(N2C([H])([H])N([H])C(=O)C23C([H])([H])C([H])([H])N(C(=O)c2c([H])c([H])c(C(F)(F)F)c([H])c2[H])C([H])([H])C3([H])[H])c([H])c([H])c1Cl


 31 34  0  0  0  0  0  0  0  0999 V2000
   38.5974   15.8275   -6.7285 C   0  0  0  0  0  0  0  0  0  0  0  0
   37.8260   14.7744   -6.9036 O   0  0  0  0  0  0  0  0  0  0  0  0
   39.9539   15.5301   -6.9384 N   0  0  0  0  0  0  0  0  0  0  0  0
   41.0184   16.3861   -6.5978 C   0  0  0  0  0  0  0  0  0  0  0  0
   42.1690   16.2670   -7.5682 C   0  0  0  0  0  0  0  0  0  0  0  0
   42.7128   14.8503   -7.4807 C   0  0  0  0  0  0  0  0  0  0  0  0
   41.6565   13.8339   -7.6260 C   0  0  0  0  0  0  0  0  0  0  0  0
   40.2602   14.2855   -7.7049 C   0  0  0  0  0  0  0  0  0  0  0  0
   43.9333   14.6382   -8.2132 N   0  0  0  0  0  0  0  0  0  0  0  0
   44.7755   15.7727   -7.7382 C   0  0  0  0  0  0  0  0  0  0  0  0
   44.5152   15.6702   -6.2908 N   0  0  0  0  0  0  0  0  0  0  0  0
   43.3666   14.8156   -6.0885 C   0  0  0  0  0  0  0  0  0  0  0  0
   42.9988   14.2087   -5.0893 O   0  0  0  0  0  0  0  0  0  0  0  0
   45.0722   16.1230   -5.5383 H   0  0  0  0  0  0  0  0  0  0  0  0
   44.4357   13.6967   -9.0811 C   0  0  0  0  0  0  0  0  0  0  0  0
   45.6178   13.0574   -8.7757 C   0  0  0  0  0  0  0  0  0  0  0  0
   46.2141   12.1511   -9.6145 C   0  0  0  0  0  0  0  0  0  0  0  0
   45.6404   11.8289  -10.8335 C   0  0  0  0  0  0  0  0  0  0  0  0
   46.4373   10.6808  -11.9032 Cl  0  0  0  0  0  0  0  0  0  0  0  0
   44.4641   12.4504  -11.1531 C   0  0  0  0  0  0  0  0  0  0  0  0
   43.8716   13.3640  -10.3032 C   0  0  0  0  0  0  0  0  0  0  0  0
   36.5288   19.4556   -5.9158 C   0  0  0  0  0  0  0  0  0  0  0  0
   36.8731   18.6101   -4.9022 C   0  0  0  0  0  0  0  0  0  0  0  0
   37.5384   17.4261   -5.1011 C   0  0  0  0  0  0  0  0  0  0  0  0
   37.9057   17.0218   -6.3791 C   0  0  0  0  0  0  0  0  0  0  0  0
   37.5486   17.8902   -7.4284 C   0  0  0  0  0  0  0  0  0  0  0  0
   36.8891   19.0557   -7.1949 C   0  0  0  0  0  0  0  0  0  0  0  0
   35.6317   20.8955   -4.3178 F   0  0  0  0  0  0  0  0  0  0  0  0
   35.8692   20.7793   -5.6497 C   0  0  0  0  0  0  0  0  0  0  0  0
   36.6514   21.7751   -6.1733 F   0  0  0  0  0  0  0  0  0  0  0  0
   34.6497   20.6903   -6.3539 F   0  0  0  0  0  0  0  0  0  0  0  0
 28 29  1  0  0  0
 29 30  1  0  0  0
 29 31  1  0  0  0
 29 22  1  0  0  0
 22 23  2  0  0  0
 23 24  1  0  0  0
 24 25  2  0  0  0
 25 26  1  0  0  0
 26 27  2  0  0  0
 25  1  1  0  0  0
  1  2  2  0  0  0
  1  3  1  0  0  0
  3  4  1  0  0  0
  4  5  1  0  0  0
  5  6  1  0  0  0
  6  7  1  0  0  0
  7  8  1  0  0  0
  6  9  1  0  0  0
  9 10  1  0  0  0
 10 11  1  0  0  0
 11 12  1  0  0  0
 12 13  2  0  0  0
  9 15  1  0  0  0
 15 16  2  0  0  0
 16 17  1  0  0  0
 17 18  2  0  0  0
 18 19  1  0  0  0
 18 20  1  0  0  0
 20 21  2  0  0  0
 27 22  1  0  0  0
  8  3  1  0  0  0
 21 15  1  0  0  0
 12  6  1  0  0  0
 11 14  1  0  0  0
M  END
> <minimizedAffinity>
-4.31896

> <CNNscore>
0.5393372178

> <CNNaffinity>
5.2340979576

> <CNN_VS>
2.8229439259

> <CNNaffinity_variance>
0.9564915895

$$$$
[H]c1c([H])c(N2C([H])([H])N([H])C(=O)C23C([H])([H])C([H])([H])N(C(=O)c2c([H])c([H])c(C(F)(F)F)c([H])c2[H])C([H])([H])C3([H])[H])c([H])c([H])c1Cl


 31 34  0  0  0  0  0  0  0  0999 V2000
   36.3028   17.3641   -4.3851 C   0  0  0  0  0  0  0  0  0  0  0  0
   35.8730   16.6564   -3.3610 O   0  0  0  0  0  0  0  0  0  0  0  0
   37.6003   16.9946   -4.7759 N   0  0  0  0  0  0  0  0  0  0  0  0
   38.3992   17.7256   -5.6755 C   0  0  0  0  0  0  0  0  0  0  0  0
   39.2790   16.8237   -6.5077 C   0  0  0  0  0  0  0  0  0  0  0  0
   40.2359   16.1053   -5.5703 C   0  0  0  0  0  0  0  0  0  0  0  0
   39.5381   15.4492   -4.4512 C   0  0  0  0  0  0  0  0  0  0  0  0
   38.0910   15.6633   -4.3098 C   0  0  0  0  0  0  0  0  0  0  0  0
   41.2627   15.3494   -6.2375 N   0  0  0  0  0  0  0  0  0  0  0  0
   41.8013   16.3508   -7.2015 C   0  0  0  0  0  0  0  0  0  0  0  0
   41.9207   17.5088   -6.2972 N   0  0  0  0  0  0  0  0  0  0  0  0
   41.1669   17.2338   -5.0943 C   0  0  0  0  0  0  0  0  0  0  0  0
   41.2399   17.7427   -3.9818 O   0  0  0  0  0  0  0  0  0  0  0  0
   42.4676   18.3734   -6.4838 H   0  0  0  0  0  0  0  0  0  0  0  0
   41.8187   14.0957   -6.1325 C   0  0  0  0  0  0  0  0  0  0  0  0
   41.1383   13.0092   -6.6383 C   0  0  0  0  0  0  0  0  0  0  0  0
   41.5963   11.7219   -6.5216 C   0  0  0  0  0  0  0  0  0  0  0  0
   42.7918   11.4502   -5.8768 C   0  0  0  0  0  0  0  0  0  0  0  0
   43.3464    9.7874   -5.7187 Cl  0  0  0  0  0  0  0  0  0  0  0  0
   43.4842   12.5164   -5.3711 C   0  0  0  0  0  0  0  0  0  0  0  0
   43.0142   13.8099   -5.4910 C   0  0  0  0  0  0  0  0  0  0  0  0
   33.4994   20.1052   -6.0374 C   0  0  0  0  0  0  0  0  0  0  0  0
   34.1233   20.3774   -4.8552 C   0  0  0  0  0  0  0  0  0  0  0  0
   35.0344   19.5329   -4.2716 C   0  0  0  0  0  0  0  0  0  0  0  0
   35.3767   18.3284   -4.8744 C   0  0  0  0  0  0  0  0  0  0  0  0
   34.7319   18.0421   -6.0931 C   0  0  0  0  0  0  0  0  0  0  0  0
   33.8338   18.9019   -6.6426 C   0  0  0  0  0  0  0  0  0  0  0  0
   32.1547   21.9868   -5.7488 F   0  0  0  0  0  0  0  0  0  0  0  0
   32.5659   21.0904   -6.6824 C   0  0  0  0  0  0  0  0  0  0  0  0
   33.1934   21.6493   -7.7648 F   0  0  0  0  0  0  0  0  0  0  0  0
   31.4795   20.2935   -7.1013 F   0  0  0  0  0  0  0  0  0  0  0  0
 28 29  1  0  0  0
 29 30  1  0  0  0
 29 31  1  0  0  0
 29 22  1  0  0  0
 22 23  2  0  0  0
 23 24  1  0  0  0
 24 25  2  0  0  0
 25 26  1  0  0  0
 26 27  2  0  0  0
 25  1  1  0  0  0
  1  2  2  0  0  0
  1  3  1  0  0  0
  3  4  1  0  0  0
  4  5  1  0  0  0
  5  6  1  0  0  0
  6  7  1  0  0  0
  7  8  1  0  0  0
  6  9  1  0  0  0
  9 10  1  0  0  0
 10 11  1  0  0  0
 11 12  1  0  0  0
 12 13  2  0  0  0
  9 15  1  0  0  0
 15 16  2  0  0  0
 16 17  1  0  0  0
 17 18  2  0  0  0
 18 19  1  0  0  0
 18 20  1  0  0  0
 20 21  2  0  0  0
 27 22  1  0  0  0
  8  3  1  0  0  0
 21 15  1  0  0  0
 12  6  1  0  0  0
 11 14  1  0  0  0
M  END
> <minimizedAffinity>
-5.24572

> <CNNscore>
0.4808880985

> <CNNaffinity>
5.1035752296

> <CNN_VS>
2.4542486668

> <CNNaffinity_variance>
0.8414810896

$$$$
[H]c1c([H])c(N2C([H])([H])N([H])C(=O)C23C([H])([H])C([H])([H])N(C(=O)c2c([H])c([H])c(C(F)(F)F)c([H])c2[H])C([H])([H])C3([H])[H])c([H])c([H])c1Cl


 31 34  0  0  0  0  0  0  0  0999 V2000
   36.5469   14.9858   -7.1689 C   0  0  0  0  0  0  0  0  0  0  0  0
   36.1794   14.0110   -7.9746 O   0  0  0  0  0  0  0  0  0  0  0  0
   37.9415   15.1492   -7.1384 N   0  0  0  0  0  0  0  0  0  0  0  0
   38.6295   15.9440   -6.2020 C   0  0  0  0  0  0  0  0  0  0  0  0
   39.8582   16.5844   -6.8022 C   0  0  0  0  0  0  0  0  0  0  0  0
   40.8149   15.4754   -7.2089 C   0  0  0  0  0  0  0  0  0  0  0  0
   40.1643   14.4516   -8.0446 C   0  0  0  0  0  0  0  0  0  0  0  0
   38.7150   14.5507   -8.2671 C   0  0  0  0  0  0  0  0  0  0  0  0
   42.1126   15.9365   -7.6267 N   0  0  0  0  0  0  0  0  0  0  0  0
   42.4871   16.8484   -6.5085 C   0  0  0  0  0  0  0  0  0  0  0  0
   42.1136   15.9908   -5.3692 N   0  0  0  0  0  0  0  0  0  0  0  0
   41.2854   14.9108   -5.8573 C   0  0  0  0  0  0  0  0  0  0  0  0
   41.0229   13.8254   -5.3525 O   0  0  0  0  0  0  0  0  0  0  0  0
   42.4078   16.1283   -4.3813 H   0  0  0  0  0  0  0  0  0  0  0  0
   42.9844   15.6874   -8.6610 C   0  0  0  0  0  0  0  0  0  0  0  0
   42.7940   16.3157   -9.8728 C   0  0  0  0  0  0  0  0  0  0  0  0
   43.5825   16.0767  -10.9690 C   0  0  0  0  0  0  0  0  0  0  0  0
   44.6310   15.1738  -10.9051 C   0  0  0  0  0  0  0  0  0  0  0  0
   45.6137   14.8664  -12.3324 Cl  0  0  0  0  0  0  0  0  0  0  0  0
   44.8387   14.5425   -9.7091 C   0  0  0  0  0  0  0  0  0  0  0  0
   44.0379   14.7874   -8.6105 C   0  0  0  0  0  0  0  0  0  0  0  0
   33.3160   17.1341   -5.4227 C   0  0  0  0  0  0  0  0  0  0  0  0
   33.9468   16.1431   -4.7292 C   0  0  0  0  0  0  0  0  0  0  0  0
   34.9924   15.4143   -5.2387 C   0  0  0  0  0  0  0  0  0  0  0  0
   35.4738   15.6591   -6.5193 C   0  0  0  0  0  0  0  0  0  0  0  0
   34.8226   16.6789   -7.2397 C   0  0  0  0  0  0  0  0  0  0  0  0
   33.7892   17.3808   -6.7038 C   0  0  0  0  0  0  0  0  0  0  0  0
   31.1188   17.8942   -5.5856 F   0  0  0  0  0  0  0  0  0  0  0  0
   32.2258   17.9611   -4.8018 C   0  0  0  0  0  0  0  0  0  0  0  0
   32.0318   17.5391   -3.5126 F   0  0  0  0  0  0  0  0  0  0  0  0
   32.7524   19.2701   -4.8167 F   0  0  0  0  0  0  0  0  0  0  0  0
 28 29  1  0  0  0
 29 30  1  0  0  0
 29 31  1  0  0  0
 29 22  1  0  0  0
 22 23  2  0  0  0
 23 24  1  0  0  0
 24 25  2  0  0  0
 25 26  1  0  0  0
 26 27  2  0  0  0
 25  1  1  0  0  0
  1  2  2  0  0  0
  1  3  1  0  0  0
  3  4  1  0  0  0
  4  5  1  0  0  0
  5  6  1  0  0  0
  6  7  1  0  0  0
  7  8  1  0  0  0
  6  9  1  0  0  0
  9 10  1  0  0  0
 10 11  1  0  0  0
 11 12  1  0  0  0
 12 13  2  0  0  0
  9 15  1  0  0  0
 15 16  2  0  0  0
 16 17  1  0  0  0
 17 18  2  0  0  0
 18 19  1  0  0  0
 18 20  1  0  0  0
 20 21  2  0  0  0
 27 22  1  0  0  0
  8  3  1  0  0  0
 21 15  1  0  0  0
 12  6  1  0  0  0
 11 14  1  0  0  0
M  END
> <minimizedAffinity>
-4.92234

> <CNNscore>
0.4802455902

> <CNNaffinity>
5.2668862343

> <CNN_VS>
2.5293989182

> <CNNaffinity_variance>
0.9197028875

$$$$
[H]c1c([H])c(N2C([H])([H])N([H])C(=O)C23C([H])([H])C([H])([H])N(C(=O)c2c([H])c([H])c(C(F)(F)F)c([H])c2[H])C([H])([H])C3([H])[H])c([H])c([H])c1Cl


 31 34  0  0  0  0  0  0  0  0999 V2000
   38.0603   15.0322   -7.9262 C   0  0  0  0  0  0  0  0  0  0  0  0
   37.8332   15.0141   -9.2233 O   0  0  0  0  0  0  0  0  0  0  0  0
   39.4323   14.9895   -7.6289 N   0  0  0  0  0  0  0  0  0  0  0  0
   39.9617   14.7614   -6.3445 C   0  0  0  0  0  0  0  0  0  0  0  0
   41.2493   15.5185   -6.1239 C   0  0  0  0  0  0  0  0  0  0  0  0
   42.2784   14.9933   -7.1117 C   0  0  0  0  0  0  0  0  0  0  0  0
   41.7766   14.9909   -8.4966 C   0  0  0  0  0  0  0  0  0  0  0  0
   40.3722   15.3556   -8.7302 C   0  0  0  0  0  0  0  0  0  0  0  0
   43.6121   15.4896   -6.8974 N   0  0  0  0  0  0  0  0  0  0  0  0
   43.8027   15.2338   -5.4412 C   0  0  0  0  0  0  0  0  0  0  0  0
   43.2888   13.8537   -5.3746 N   0  0  0  0  0  0  0  0  0  0  0  0
   42.5628   13.5730   -6.5931 C   0  0  0  0  0  0  0  0  0  0  0  0
   42.2545   12.5010   -7.1007 O   0  0  0  0  0  0  0  0  0  0  0  0
   43.4356   13.1864   -4.5907 H   0  0  0  0  0  0  0  0  0  0  0  0
   44.6282   16.0092   -7.6652 C   0  0  0  0  0  0  0  0  0  0  0  0
   44.6538   17.3619   -7.9280 C   0  0  0  0  0  0  0  0  0  0  0  0
   45.5979   17.9478   -8.7318 C   0  0  0  0  0  0  0  0  0  0  0  0
   46.5920   17.1889   -9.3274 C   0  0  0  0  0  0  0  0  0  0  0  0
   47.7778   17.9605  -10.3741 Cl  0  0  0  0  0  0  0  0  0  0  0  0
   46.5857   15.8441   -9.0753 C   0  0  0  0  0  0  0  0  0  0  0  0
   45.6294   15.2618   -8.2663 C   0  0  0  0  0  0  0  0  0  0  0  0
   34.5745   14.9921   -5.4868 C   0  0  0  0  0  0  0  0  0  0  0  0
   35.0617   16.1656   -5.9832 C   0  0  0  0  0  0  0  0  0  0  0  0
   36.1815   16.2430   -6.7731 C   0  0  0  0  0  0  0  0  0  0  0  0
   36.8908   15.0984   -7.1170 C   0  0  0  0  0  0  0  0  0  0  0  0
   36.3931   13.8854   -6.6032 C   0  0  0  0  0  0  0  0  0  0  0  0
   35.2807   13.8457   -5.8230 C   0  0  0  0  0  0  0  0  0  0  0  0
   32.5153   13.9459   -5.1758 F   0  0  0  0  0  0  0  0  0  0  0  0
   33.3019   14.9402   -4.6894 C   0  0  0  0  0  0  0  0  0  0  0  0
   33.6178   14.8129   -3.3621 F   0  0  0  0  0  0  0  0  0  0  0  0
   32.7048   16.1949   -4.9346 F   0  0  0  0  0  0  0  0  0  0  0  0
 28 29  1  0  0  0
 29 30  1  0  0  0
 29 31  1  0  0  0
 29 22  1  0  0  0
 22 23  2  0  0  0
 23 24  1  0  0  0
 24 25  2  0  0  0
 25 26  1  0  0  0
 26 27  2  0  0  0
 25  1  1  0  0  0
  1  2  2  0  0  0
  1  3  1  0  0  0
  3  4  1  0  0  0
  4  5  1  0  0  0
  5  6  1  0  0  0
  6  7  1  0  0  0
  7  8  1  0  0  0
  6  9  1  0  0  0
  9 10  1  0  0  0
 10 11  1  0  0  0
 11 12  1  0  0  0
 12 13  2  0  0  0
  9 15  1  0  0  0
 15 16  2  0  0  0
 16 17  1  0  0  0
 17 18  2  0  0  0
 18 19  1  0  0  0
 18 20  1  0  0  0
 20 21  2  0  0  0
 27 22  1  0  0  0
  8  3  1  0  0  0
 21 15  1  0  0  0
 12  6  1  0  0  0
 11 14  1  0  0  0
M  END
> <minimizedAffinity>
-4.87057

> <CNNscore>
0.4653421342

> <CNNaffinity>
5.3073925972

> <CNN_VS>
2.4697535038

> <CNNaffinity_variance>
1.1256778240

$$$$
[H]c1c([H])c(N2C([H])([H])N([H])C(=O)C23C([H])([H])C([H])([H])N(C(=O)c2c([H])c([H])c(C(F)(F)F)c([H])c2[H])C([H])([H])C3([H])[H])c([H])c([H])c1Cl


 31 34  0  0  0  0  0  0  0  0999 V2000
   38.1230   16.7470   -4.8271 C   0  0  0  0  0  0  0  0  0  0  0  0
   37.3616   16.1333   -3.9449 O   0  0  0  0  0  0  0  0  0  0  0  0
   39.3826   16.1384   -4.9528 N   0  0  0  0  0  0  0  0  0  0  0  0
   40.4757   16.7049   -5.6354 C   0  0  0  0  0  0  0  0  0  0  0  0
   41.3300   15.6529   -6.3012 C   0  0  0  0  0  0  0  0  0  0  0  0
   41.9156   14.7661   -5.2144 C   0  0  0  0  0  0  0  0  0  0  0  0
   40.8865   14.2538   -4.2933 C   0  0  0  0  0  0  0  0  0  0  0  0
   39.5077   14.7382   -4.4488 C   0  0  0  0  0  0  0  0  0  0  0  0
   42.9029   13.8294   -5.6824 N   0  0  0  0  0  0  0  0  0  0  0  0
   43.8100   14.7108   -6.4713 C   0  0  0  0  0  0  0  0  0  0  0  0
   43.9465   15.8251   -5.5158 N   0  0  0  0  0  0  0  0  0  0  0  0
   42.9164   15.6977   -4.5092 C   0  0  0  0  0  0  0  0  0  0  0  0
   42.8438   16.1833   -3.3863 O   0  0  0  0  0  0  0  0  0  0  0  0
   44.6709   16.5704   -5.5489 H   0  0  0  0  0  0  0  0  0  0  0  0
   43.1819   12.4931   -5.5144 C   0  0  0  0  0  0  0  0  0  0  0  0
   42.4533   11.5563   -6.2151 C   0  0  0  0  0  0  0  0  0  0  0  0
   42.6299   10.2053   -6.0598 C   0  0  0  0  0  0  0  0  0  0  0  0
   43.5716    9.7105   -5.1725 C   0  0  0  0  0  0  0  0  0  0  0  0
   43.7627    7.9724   -4.9732 Cl  0  0  0  0  0  0  0  0  0  0  0  0
   44.3080   10.6251   -4.4702 C   0  0  0  0  0  0  0  0  0  0  0  0
   44.1218   11.9845   -4.6311 C   0  0  0  0  0  0  0  0  0  0  0  0
   36.2566   19.9589   -6.9015 C   0  0  0  0  0  0  0  0  0  0  0  0
   36.8341   20.1615   -5.6824 C   0  0  0  0  0  0  0  0  0  0  0  0
   37.4489   19.1661   -4.9646 C   0  0  0  0  0  0  0  0  0  0  0  0
   37.5170   17.8693   -5.4597 C   0  0  0  0  0  0  0  0  0  0  0  0
   36.9186   17.6554   -6.7163 C   0  0  0  0  0  0  0  0  0  0  0  0
   36.3176   18.6651   -7.3998 C   0  0  0  0  0  0  0  0  0  0  0  0
   35.7596   22.2350   -6.9663 F   0  0  0  0  0  0  0  0  0  0  0  0
   35.6612   21.0905   -7.6907 C   0  0  0  0  0  0  0  0  0  0  0  0
   36.2720   21.1431   -8.9162 F   0  0  0  0  0  0  0  0  0  0  0  0
   34.3068   20.7208   -7.8317 F   0  0  0  0  0  0  0  0  0  0  0  0
 28 29  1  0  0  0
 29 30  1  0  0  0
 29 31  1  0  0  0
 29 22  1  0  0  0
 22 23  2  0  0  0
 23 24  1  0  0  0
 24 25  2  0  0  0
 25 26  1  0  0  0
 26 27  2  0  0  0
 25  1  1  0  0  0
  1  2  2  0  0  0
  1  3  1  0  0  0
  3  4  1  0  0  0
  4  5  1  0  0  0
  5  6  1  0  0  0
  6  7  1  0  0  0
  7  8  1  0  0  0
  6  9  1  0  0  0
  9 10  1  0  0  0
 10 11  1  0  0  0
 11 12  1  0  0  0
 12 13  2  0  0  0
  9 15  1  0  0  0
 15 16  2  0  0  0
 16 17  1  0  0  0
 17 18  2  0  0  0
 18 19  1  0  0  0
 18 20  1  0  0  0
 20 21  2  0  0  0
 27 22  1  0  0  0
  8  3  1  0  0  0
 21 15  1  0  0  0
 12  6  1  0  0  0
 11 14  1  0  0  0
M  END
> <minimizedAffinity>
-3.69959

> <CNNscore>
0.4287532866

> <CNNaffinity>
5.2274556160

> <CNN_VS>
2.2412886620

> <CNNaffinity_variance>
1.8704217672

$$$$
[H]c1c([H])c(N2C([H])([H])N([H])C(=O)C23C([H])([H])C([H])([H])N(C(=O)c2c([H])c([H])c(C(F)(F)F)c([H])c2[H])C([H])([H])C3([H])[H])c([H])c([H])c1Cl


 31 34  0  0  0  0  0  0  0  0999 V2000
   37.4351   15.4842  -12.3117 C   0  0  0  0  0  0  0  0  0  0  0  0
   37.9734   16.4020  -11.5356 O   0  0  0  0  0  0  0  0  0  0  0  0
   38.3718   14.9232  -13.1953 N   0  0  0  0  0  0  0  0  0  0  0  0
   38.0412   14.0994  -14.2880 C   0  0  0  0  0  0  0  0  0  0  0  0
   39.0959   13.0488  -14.5400 C   0  0  0  0  0  0  0  0  0  0  0  0
   40.3869   13.7590  -14.9133 C   0  0  0  0  0  0  0  0  0  0  0  0
   40.7547   14.8023  -13.9406 C   0  0  0  0  0  0  0  0  0  0  0  0
   39.8140   15.1045  -12.8527 C   0  0  0  0  0  0  0  0  0  0  0  0
   41.4357   12.8829  -15.3644 N   0  0  0  0  0  0  0  0  0  0  0  0
   40.7299   12.0659  -16.3923 C   0  0  0  0  0  0  0  0  0  0  0  0
   40.0291   13.1452  -17.1115 N   0  0  0  0  0  0  0  0  0  0  0  0
   40.0724   14.3423  -16.3017 C   0  0  0  0  0  0  0  0  0  0  0  0
   39.9144   15.5161  -16.6166 O   0  0  0  0  0  0  0  0  0  0  0  0
   39.5899   13.0660  -18.0507 H   0  0  0  0  0  0  0  0  0  0  0  0
   42.7807   12.7179  -15.1283 C   0  0  0  0  0  0  0  0  0  0  0  0
   43.2954   13.0425  -13.8917 C   0  0  0  0  0  0  0  0  0  0  0  0
   44.6321   12.9625  -13.5958 C   0  0  0  0  0  0  0  0  0  0  0  0
   45.5452   12.5403  -14.5479 C   0  0  0  0  0  0  0  0  0  0  0  0
   47.2584   12.4691  -14.1512 Cl  0  0  0  0  0  0  0  0  0  0  0  0
   45.0530   12.2097  -15.7810 C   0  0  0  0  0  0  0  0  0  0  0  0
   43.7052   12.2956  -16.0714 C   0  0  0  0  0  0  0  0  0  0  0  0
   33.2849   14.6688  -11.8491 C   0  0  0  0  0  0  0  0  0  0  0  0
   33.9488   15.4336  -10.9352 C   0  0  0  0  0  0  0  0  0  0  0  0
   35.2858   15.7296  -11.0288 C   0  0  0  0  0  0  0  0  0  0  0  0
   36.0479   15.2538  -12.0891 C   0  0  0  0  0  0  0  0  0  0  0  0
   35.3669   14.4607  -13.0326 C   0  0  0  0  0  0  0  0  0  0  0  0
   34.0412   14.1871  -12.9083 C   0  0  0  0  0  0  0  0  0  0  0  0
   31.2031   15.5623  -11.3019 F   0  0  0  0  0  0  0  0  0  0  0  0
   31.8043   14.4312  -11.7528 C   0  0  0  0  0  0  0  0  0  0  0  0
   31.3475   13.9947  -12.9687 F   0  0  0  0  0  0  0  0  0  0  0  0
   31.6942   13.4063  -10.7893 F   0  0  0  0  0  0  0  0  0  0  0  0
 28 29  1  0  0  0
 29 30  1  0  0  0
 29 31  1  0  0  0
 29 22  1  0  0  0
 22 23  2  0  0  0
 23 24  1  0  0  0
 24 25  2  0  0  0
 25 26  1  0  0  0
 26 27  2  0  0  0
 25  1  1  0  0  0
  1  2  2  0  0  0
  1  3  1  0  0  0
  3  4  1  0  0  0
  4  5  1  0  0  0
  5  6  1  0  0  0
  6  7  1  0  0  0
  7  8  1  0  0  0
  6  9  1  0  0  0
  9 10  1  0  0  0
 10 11  1  0  0  0
 11 12  1  0  0  0
 12 13  2  0  0  0
  9 15  1  0  0  0
 15 16  2  0  0  0
 16 17  1  0  0  0
 17 18  2  0  0  0
 18 19  1  0  0  0
 18 20  1  0  0  0
 20 21  2  0  0  0
 27 22  1  0  0  0
  8  3  1  0  0  0
 21 15  1  0  0  0
 12  6  1  0  0  0
 11 14  1  0  0  0
M  END
> <minimizedAffinity>
-3.23611

> <CNNscore>
0.2901166677

> <CNNaffinity>
5.7781744003

> <CNN_VS>
1.6763447523

> <CNNaffinity_variance>
0.7311736345

$$$$
[H]c1c([H])c(N2C([H])([H])N([H])C(=O)C23C([H])([H])C([H])([H])N(C(=O)c2c([H])c([H])c(C(F)(F)F)c([H])c2[H])C([H])([H])C3([H])[H])c([H])c([H])c1Cl


 31 34  0  0  0  0  0  0  0  0999 V2000
   43.3408   13.6306  -15.6695 C   0  0  0  0  0  0  0  0  0  0  0  0
   43.5112   13.7942  -16.9651 O   0  0  0  0  0  0  0  0  0  0  0  0
   41.9824   13.5562  -15.3201 N   0  0  0  0  0  0  0  0  0  0  0  0
   41.4953   13.6193  -14.0007 C   0  0  0  0  0  0  0  0  0  0  0  0
   40.2652   12.7640  -13.8135 C   0  0  0  0  0  0  0  0  0  0  0  0
   39.1660   13.3204  -14.7037 C   0  0  0  0  0  0  0  0  0  0  0  0
   39.6077   13.4945  -16.0982 C   0  0  0  0  0  0  0  0  0  0  0  0
   41.0201   13.2449  -16.4188 C   0  0  0  0  0  0  0  0  0  0  0  0
   37.8742   12.7217  -14.4941 N   0  0  0  0  0  0  0  0  0  0  0  0
   37.7306   12.8163  -13.0134 C   0  0  0  0  0  0  0  0  0  0  0  0
   38.1644   14.2122  -12.8227 N   0  0  0  0  0  0  0  0  0  0  0  0
   38.8203   14.6601  -14.0309 C   0  0  0  0  0  0  0  0  0  0  0  0
   39.0429   15.7953  -14.4356 O   0  0  0  0  0  0  0  0  0  0  0  0
   38.0117   14.7862  -11.9691 H   0  0  0  0  0  0  0  0  0  0  0  0
   36.8590   12.2193  -15.2744 C   0  0  0  0  0  0  0  0  0  0  0  0
   35.5579   12.3014  -14.8274 C   0  0  0  0  0  0  0  0  0  0  0  0
   34.4973   11.7729  -15.5175 C   0  0  0  0  0  0  0  0  0  0  0  0
   34.6907   11.1196  -16.7236 C   0  0  0  0  0  0  0  0  0  0  0  0
   33.3162   10.4288  -17.5786 Cl  0  0  0  0  0  0  0  0  0  0  0  0
   35.9753   11.0312  -17.1862 C   0  0  0  0  0  0  0  0  0  0  0  0
   37.0382   11.5643  -16.4832 C   0  0  0  0  0  0  0  0  0  0  0  0
   46.9310   13.6476  -13.3864 C   0  0  0  0  0  0  0  0  0  0  0  0
   46.4286   12.4803  -13.8824 C   0  0  0  0  0  0  0  0  0  0  0  0
   45.2753   12.4105  -14.6233 C   0  0  0  0  0  0  0  0  0  0  0  0
   44.5453   13.5568  -14.9142 C   0  0  0  0  0  0  0  0  0  0  0  0
   45.0588   14.7632  -14.4006 C   0  0  0  0  0  0  0  0  0  0  0  0
   46.2046   14.7956  -13.6698 C   0  0  0  0  0  0  0  0  0  0  0  0
   48.8771   12.5053  -12.8033 F   0  0  0  0  0  0  0  0  0  0  0  0
   48.2374   13.6927  -12.6453 C   0  0  0  0  0  0  0  0  0  0  0  0
   48.9511   14.7807  -13.0751 F   0  0  0  0  0  0  0  0  0  0  0  0
   47.8500   13.8596  -11.2988 F   0  0  0  0  0  0  0  0  0  0  0  0
 28 29  1  0  0  0
 29 30  1  0  0  0
 29 31  1  0  0  0
 29 22  1  0  0  0
 22 23  2  0  0  0
 23 24  1  0  0  0
 24 25  2  0  0  0
 25 26  1  0  0  0
 26 27  2  0  0  0
 25  1  1  0  0  0
  1  2  2  0  0  0
  1  3  1  0  0  0
  3  4  1  0  0  0
  4  5  1  0  0  0
  5  6  1  0  0  0
  6  7  1  0  0  0
  7  8  1  0  0  0
  6  9  1  0  0  0
  9 10  1  0  0  0
 10 11  1  0  0  0
 11 12  1  0  0  0
 12 13  2  0  0  0
  9 15  1  0  0  0
 15 16  2  0  0  0
 16 17  1  0  0  0
 17 18  2  0  0  0
 18 19  1  0  0  0
 18 20  1  0  0  0
 20 21  2  0  0  0
 27 22  1  0  0  0
  8  3  1  0  0  0
 21 15  1  0  0  0
 12  6  1  0  0  0
 11 14  1  0  0  0
M  END
> <minimizedAffinity>
-5.22019

> <CNNscore>
0.2883025110

> <CNNaffinity>
6.3979578018

> <CNN_VS>
1.8445472717

> <CNNaffinity_variance>
0.5104478002

$$$$
[H]c1c([H])c(N2C([H])([H])N([H])C(=O)C23C([H])([H])C([H])([H])N(C(=O)c2c([H])c([H])c(C(F)(F)F)c([H])c2[H])C([H])([H])C3([H])[H])c([H])c([H])c1Cl


 31 34  0  0  0  0  0  0  0  0999 V2000
   42.1327   13.3615  -15.6470 C   0  0  0  0  0  0  0  0  0  0  0  0
   42.3248   13.3580  -16.9499 O   0  0  0  0  0  0  0  0  0  0  0  0
   40.7694   13.3091  -15.3134 N   0  0  0  0  0  0  0  0  0  0  0  0
   40.2569   13.5347  -14.0217 C   0  0  0  0  0  0  0  0  0  0  0  0
   39.0369   12.6893  -13.7448 C   0  0  0  0  0  0  0  0  0  0  0  0
   37.9459   13.1054  -14.7181 C   0  0  0  0  0  0  0  0  0  0  0  0
   38.4108   13.1044  -16.1158 C   0  0  0  0  0  0  0  0  0  0  0  0
   39.8327   12.8402  -16.3778 C   0  0  0  0  0  0  0  0  0  0  0  0
   36.6600   12.5162  -14.4534 N   0  0  0  0  0  0  0  0  0  0  0  0
   36.4873   12.8002  -13.0002 C   0  0  0  0  0  0  0  0  0  0  0  0
   36.8957   14.2166  -12.9863 N   0  0  0  0  0  0  0  0  0  0  0  0
   37.5671   14.5149  -14.2316 C   0  0  0  0  0  0  0  0  0  0  0  0
   37.7795   15.5916  -14.7772 O   0  0  0  0  0  0  0  0  0  0  0  0
   36.7183   14.8941  -12.2175 H   0  0  0  0  0  0  0  0  0  0  0  0
   35.6674   11.8985  -15.1781 C   0  0  0  0  0  0  0  0  0  0  0  0
   36.0035   11.1543  -16.2883 C   0  0  0  0  0  0  0  0  0  0  0  0
   35.0703   10.5569  -17.0964 C   0  0  0  0  0  0  0  0  0  0  0  0
   33.7171   10.6761  -16.8253 C   0  0  0  0  0  0  0  0  0  0  0  0
   32.5379    9.9203  -17.8910 Cl  0  0  0  0  0  0  0  0  0  0  0  0
   33.3634   11.4080  -15.7247 C   0  0  0  0  0  0  0  0  0  0  0  0
   34.3101   12.0085  -14.9175 C   0  0  0  0  0  0  0  0  0  0  0  0
   45.5778   13.6418  -13.1659 C   0  0  0  0  0  0  0  0  0  0  0  0
   45.6118   12.9202  -14.3232 C   0  0  0  0  0  0  0  0  0  0  0  0
   44.5340   12.7911  -15.1631 C   0  0  0  0  0  0  0  0  0  0  0  0
   43.3239   13.4081  -14.8688 C   0  0  0  0  0  0  0  0  0  0  0  0
   43.2839   14.1508  -13.6731 C   0  0  0  0  0  0  0  0  0  0  0  0
   44.3711   14.2571  -12.8641 C   0  0  0  0  0  0  0  0  0  0  0  0
   46.4163   14.0490  -11.0299 F   0  0  0  0  0  0  0  0  0  0  0  0
   46.8011   13.8227  -12.3124 C   0  0  0  0  0  0  0  0  0  0  0  0
   47.6168   12.7334  -12.4738 F   0  0  0  0  0  0  0  0  0  0  0  0
   47.4113   14.9773  -12.8467 F   0  0  0  0  0  0  0  0  0  0  0  0
 28 29  1  0  0  0
 29 30  1  0  0  0
 29 31  1  0  0  0
 29 22  1  0  0  0
 22 23  2  0  0  0
 23 24  1  0  0  0
 24 25  2  0  0  0
 25 26  1  0  0  0
 26 27  2  0  0  0
 25  1  1  0  0  0
  1  2  2  0  0  0
  1  3  1  0  0  0
  3  4  1  0  0  0
  4  5  1  0  0  0
  5  6  1  0  0  0
  6  7  1  0  0  0
  7  8  1  0  0  0
  6  9  1  0  0  0
  9 10  1  0  0  0
 10 11  1  0  0  0
 11 12  1  0  0  0
 12 13  2  0  0  0
  9 15  1  0  0  0
 15 16  2  0  0  0
 16 17  1  0  0  0
 17 18  2  0  0  0
 18 19  1  0  0  0
 18 20  1  0  0  0
 20 21  2  0  0  0
 27 22  1  0  0  0
  8  3  1  0  0  0
 21 15  1  0  0  0
 12  6  1  0  0  0
 11 14  1  0  0  0
M  END
> <minimizedAffinity>
-5.33095

> <CNNscore>
0.2433283329

> <CNNaffinity>
6.3774843216

> <CNN_VS>
1.5518226624

> <CNNaffinity_variance>
0.4036730230

$$$$
[H]c1c([H])c(N2C([H])([H])N([H])C(=O)C23C([H])([H])C([H])([H])N(C(=O)c2c([H])c([H])c(C(F)(F)F)c([H])c2[H])C([H])([H])C3([H])[H])c([H])c([H])c1Cl


 31 34  0  0  0  0  0  0  0  0999 V2000
   41.8371   13.4517  -15.2648 C   0  0  0  0  0  0  0  0  0  0  0  0
   42.0997   13.4788  -16.5551 O   0  0  0  0  0  0  0  0  0  0  0  0
   40.4591   13.3635  -15.0074 N   0  0  0  0  0  0  0  0  0  0  0  0
   39.8722   13.5519  -13.7418 C   0  0  0  0  0  0  0  0  0  0  0  0
   38.6582   12.6752  -13.5483 C   0  0  0  0  0  0  0  0  0  0  0  0
   37.6128   13.0876  -14.5718 C   0  0  0  0  0  0  0  0  0  0  0  0
   38.1529   13.1249  -15.9417 C   0  0  0  0  0  0  0  0  0  0  0  0
   39.5924   12.8965  -16.1304 C   0  0  0  0  0  0  0  0  0  0  0  0
   36.3278   12.4659  -14.3893 N   0  0  0  0  0  0  0  0  0  0  0  0
   36.0700   12.7166  -12.9427 C   0  0  0  0  0  0  0  0  0  0  0  0
   36.4452   14.1408  -12.8793 N   0  0  0  0  0  0  0  0  0  0  0  0
   37.1765   14.4786  -14.0800 C   0  0  0  0  0  0  0  0  0  0  0  0
   37.3941   15.5704  -14.5925 O   0  0  0  0  0  0  0  0  0  0  0  0
   36.2111   14.7985  -12.1086 H   0  0  0  0  0  0  0  0  0  0  0  0
   35.3902   11.8419  -15.1791 C   0  0  0  0  0  0  0  0  0  0  0  0
   35.7560   11.3753  -16.4232 C   0  0  0  0  0  0  0  0  0  0  0  0
   34.8683   10.7957  -17.2931 C   0  0  0  0  0  0  0  0  0  0  0  0
   33.5340   10.6483  -16.9513 C   0  0  0  0  0  0  0  0  0  0  0  0
   32.4094    9.9231  -18.0945 Cl  0  0  0  0  0  0  0  0  0  0  0  0
   33.1521   11.1020  -15.7183 C   0  0  0  0  0  0  0  0  0  0  0  0
   34.0525   11.6869  -14.8492 C   0  0  0  0  0  0  0  0  0  0  0  0
   45.3978   13.6042  -12.9408 C   0  0  0  0  0  0  0  0  0  0  0  0
   44.1737   13.6401  -12.3397 C   0  0  0  0  0  0  0  0  0  0  0  0
   42.9909   13.5962  -13.0347 C   0  0  0  0  0  0  0  0  0  0  0  0
   42.9828   13.5080  -14.4217 C   0  0  0  0  0  0  0  0  0  0  0  0
   44.2446   13.4746  -15.0460 C   0  0  0  0  0  0  0  0  0  0  0  0
   45.3967   13.5203  -14.3260 C   0  0  0  0  0  0  0  0  0  0  0  0
   47.6846   14.0523  -12.9070 F   0  0  0  0  0  0  0  0  0  0  0  0
   46.6694   13.5766  -12.1407 C   0  0  0  0  0  0  0  0  0  0  0  0
   46.4713   14.2663  -10.9734 F   0  0  0  0  0  0  0  0  0  0  0  0
   46.8645   12.2048  -11.8743 F   0  0  0  0  0  0  0  0  0  0  0  0
 28 29  1  0  0  0
 29 30  1  0  0  0
 29 31  1  0  0  0
 29 22  1  0  0  0
 22 23  2  0  0  0
 23 24  1  0  0  0
 24 25  2  0  0  0
 25 26  1  0  0  0
 26 27  2  0  0  0
 25  1  1  0  0  0
  1  2  2  0  0  0
  1  3  1  0  0  0
  3  4  1  0  0  0
  4  5  1  0  0  0
  5  6  1  0  0  0
  6  7  1  0  0  0
  7  8  1  0  0  0
  6  9  1  0  0  0
  9 10  1  0  0  0
 10 11  1  0  0  0
 11 12  1  0  0  0
 12 13  2  0  0  0
  9 15  1  0  0  0
 15 16  2  0  0  0
 16 17  1  0  0  0
 17 18  2  0  0  0
 18 19  1  0  0  0
 18 20  1  0  0  0
 20 21  2  0  0  0
 27 22  1  0  0  0
  8  3  1  0  0  0
 21 15  1  0  0  0
 12  6  1  0  0  0
 11 14  1  0  0  0
M  END
> <minimizedAffinity>
-5.99325

> <CNNscore>
0.1937907636

> <CNNaffinity>
6.2077751160

> <CNN_VS>
1.2030094862

> <CNNaffinity_variance>
0.2735829353

$$$$
[H]c1c([H])c([H])c(S(=O)(=O)[C@@]2([H])C([H])([H])N(C(=O)C3(c4c([H])c([H])c(Cl)c([H])c4[H])C([H])([H])C3([H])[H])[C@]([H])(C(=O)N([H])[C@]([H])(C(=O)C(=O)N([H])C3([H])C([H])([H])C3([H])[H])C([H])([H])[H])C2([H])[H])c(Cl)c1[H]


 42 46  0  0  0  0  0  0  0  0999 V2000
   39.3613   16.3186  -11.6034 C   0  0  0  0  0  0  0  0  0  0  0  0
   39.0872   16.6613  -10.1930 C   0  0  0  0  0  0  0  0  0  0  0  0
   38.2835   15.5193   -9.6422 C   0  0  0  0  0  0  0  0  0  0  0  0
   38.1951   14.5095  -10.7332 C   0  0  0  0  0  0  0  0  0  0  0  0
   38.6345   15.1062  -11.9694 N   0  0  0  0  0  0  0  0  0  0  0  0
   38.4758   14.7184  -13.3229 C   0  0  0  0  0  0  0  0  0  0  0  0
   38.9921   15.4839  -14.2227 O   0  0  0  0  0  0  0  0  0  0  0  0
   41.5847   15.3375  -11.0805 N   0  0  0  0  0  0  0  0  0  0  0  0
   40.7999   16.1937  -11.8817 C   0  0  0  0  0  0  0  0  0  0  0  0
   41.3446   16.8270  -12.8095 O   0  0  0  0  0  0  0  0  0  0  0  0
   41.1548   14.8002  -10.3063 H   0  0  0  0  0  0  0  0  0  0  0  0
   43.8060   15.2440  -10.0197 C   0  0  0  0  0  0  0  0  0  0  0  0
   43.0094   15.1542  -11.2784 C   0  0  0  0  0  0  0  0  0  0  0  0
   43.2953   13.8740  -11.9836 C   0  0  0  0  0  0  0  0  0  0  0  0
   43.7004   12.9070  -11.3226 O   0  0  0  0  0  0  0  0  0  0  0  0
   43.1126   13.7288  -13.4187 C   0  0  0  0  0  0  0  0  0  0  0  0
   41.9287   13.6938  -13.8556 O   0  0  0  0  0  0  0  0  0  0  0  0
   44.2319   13.6322  -14.2769 N   0  0  0  0  0  0  0  0  0  0  0  0
   45.1927   13.6649  -13.8788 H   0  0  0  0  0  0  0  0  0  0  0  0
   44.1270   13.4879  -15.7084 C   0  0  0  0  0  0  0  0  0  0  0  0
   45.1760   12.7085  -16.4030 C   0  0  0  0  0  0  0  0  0  0  0  0
   43.7772   12.1781  -16.3175 C   0  0  0  0  0  0  0  0  0  0  0  0
   37.7862   13.5338  -13.8390 C   0  0  0  0  0  0  0  0  0  0  0  0
   36.2928   13.5681  -13.7340 C   0  0  0  0  0  0  0  0  0  0  0  0
   37.0690   12.5487  -13.0045 C   0  0  0  0  0  0  0  0  0  0  0  0
   38.4259   12.9538  -15.0750 C   0  0  0  0  0  0  0  0  0  0  0  0
   39.6059   13.3904  -15.6051 C   0  0  0  0  0  0  0  0  0  0  0  0
   40.1627   12.8337  -16.7428 C   0  0  0  0  0  0  0  0  0  0  0  0
   39.5129   11.8007  -17.3728 C   0  0  0  0  0  0  0  0  0  0  0  0
   40.2069   11.0768  -18.8275 Cl  0  0  0  0  0  0  0  0  0  0  0  0
   38.3156   11.3435  -16.8514 C   0  0  0  0  0  0  0  0  0  0  0  0
   37.7723   11.9187  -15.7045 C   0  0  0  0  0  0  0  0  0  0  0  0
   36.6660   16.0573   -9.1299 S   0  0  0  0  0  0  0  0  0  0  0  0
   35.6667   15.4271  -10.0907 O   0  0  0  0  0  0  0  0  0  0  0  0
   36.5370   17.5503   -9.2363 O   0  0  0  0  0  0  0  0  0  0  0  0
   36.2494   15.5059   -7.5419 C   0  0  0  0  0  0  0  0  0  0  0  0
   35.2620   14.5805   -7.3515 C   0  0  0  0  0  0  0  0  0  0  0  0
   34.9559   14.1459   -6.0540 C   0  0  0  0  0  0  0  0  0  0  0  0
   35.6396   14.6417   -4.9698 C   0  0  0  0  0  0  0  0  0  0  0  0
   36.6226   15.5643   -5.1690 C   0  0  0  0  0  0  0  0  0  0  0  0
   36.9308   15.9993   -6.4571 C   0  0  0  0  0  0  0  0  0  0  0  0
   38.2098   17.1869   -6.6074 Cl  0  0  0  0  0  0  0  0  0  0  0  0
 12 13  1  0  0  0
 13  8  1  0  0  0
  8  9  1  0  0  0
  9 10  2  0  0  0
  9  1  1  0  0  0
  1  2  1  0  0  0
  2  3  1  0  0  0
  3  4  1  0  0  0
  4  5  1  0  0  0
  5  6  1  0  0  0
  6  7  2  0  0  0
  6 23  1  0  0  0
 23 24  1  0  0  0
 24 25  1  0  0  0
 23 26  1  0  0  0
 26 27  2  0  0  0
 27 28  1  0  0  0
 28 29  2  0  0  0
 29 30  1  0  0  0
 29 31  1  0  0  0
 31 32  2  0  0  0
  3 33  1  0  0  0
 33 34  2  0  0  0
 33 35  2  0  0  0
 33 36  1  0  0  0
 36 37  2  0  0  0
 37 38  1  0  0  0
 38 39  2  0  0  0
 39 40  1  0  0  0
 40 41  2  0  0  0
 41 42  1  0  0  0
 13 14  1  0  0  0
 14 15  2  0  0  0
 14 16  1  0  0  0
 16 17  2  0  0  0
 16 18  1  0  0  0
 18 20  1  0  0  0
 20 21  1  0  0  0
 21 22  1  0  0  0
  5  1  1  0  0  0
 25 23  1  0  0  0
 32 26  1  0  0  0
 41 36  1  0  0  0
 22 20  1  0  0  0
  8 11  1  0  0  0
 18 19  1  0  0  0
M  END
> <minimizedAffinity>
-8.76141

> <CNNscore>
0.2172068357

> <CNNaffinity>
7.0277872086

> <CNN_VS>
1.5264834166

> <CNNaffinity_variance>
0.0305539276

$$$$
[H]c1c([H])c([H])c(S(=O)(=O)[C@@]2([H])C([H])([H])N(C(=O)C3(c4c([H])c([H])c(Cl)c([H])c4[H])C([H])([H])C3([H])[H])[C@]([H])(C(=O)N([H])[C@]([H])(C(=O)C(=O)N([H])C3([H])C([H])([H])C3([H])[H])C([H])([H])[H])C2([H])[H])c(Cl)c1[H]


 42 46  0  0  0  0  0  0  0  0999 V2000
   39.3636   16.3526  -11.2729 C   0  0  0  0  0  0  0  0  0  0  0  0
   39.0922   16.6729   -9.8568 C   0  0  0  0  0  0  0  0  0  0  0  0
   38.2212   15.5627   -9.3448 C   0  0  0  0  0  0  0  0  0  0  0  0
   38.0905   14.5880  -10.4632 C   0  0  0  0  0  0  0  0  0  0  0  0
   38.5762   15.1918  -11.6785 N   0  0  0  0  0  0  0  0  0  0  0  0
   38.4124   14.8487  -13.0434 C   0  0  0  0  0  0  0  0  0  0  0  0
   38.9800   15.6079  -13.9171 O   0  0  0  0  0  0  0  0  0  0  0  0
   41.5713   15.4099  -10.6269 N   0  0  0  0  0  0  0  0  0  0  0  0
   40.7965   16.1564  -11.5398 C   0  0  0  0  0  0  0  0  0  0  0  0
   41.3448   16.6345  -12.5543 O   0  0  0  0  0  0  0  0  0  0  0  0
   41.1380   15.0017   -9.7792 H   0  0  0  0  0  0  0  0  0  0  0  0
   43.8541   16.2818  -10.3163 C   0  0  0  0  0  0  0  0  0  0  0  0
   42.9897   15.1681  -10.8055 C   0  0  0  0  0  0  0  0  0  0  0  0
   43.3997   13.8798  -10.1809 C   0  0  0  0  0  0  0  0  0  0  0  0
   43.1050   13.6718   -8.9952 O   0  0  0  0  0  0  0  0  0  0  0  0
   44.1322   12.8649  -10.9208 C   0  0  0  0  0  0  0  0  0  0  0  0
   44.1302   12.9460  -12.1806 O   0  0  0  0  0  0  0  0  0  0  0  0
   44.8154   11.8334  -10.2367 N   0  0  0  0  0  0  0  0  0  0  0  0
   44.7936   11.8002   -9.1971 H   0  0  0  0  0  0  0  0  0  0  0  0
   45.5623   10.7950  -10.9039 C   0  0  0  0  0  0  0  0  0  0  0  0
   46.9943   11.0442  -11.1824 C   0  0  0  0  0  0  0  0  0  0  0  0
   46.5927   10.0105  -10.1747 C   0  0  0  0  0  0  0  0  0  0  0  0
   37.6653   13.7175  -13.5979 C   0  0  0  0  0  0  0  0  0  0  0  0
   36.1772   13.8833  -13.6175 C   0  0  0  0  0  0  0  0  0  0  0  0
   36.7986   12.8164  -12.8117 C   0  0  0  0  0  0  0  0  0  0  0  0
   38.3498   13.0577  -14.7682 C   0  0  0  0  0  0  0  0  0  0  0  0
   39.6690   13.2236  -15.0786 C   0  0  0  0  0  0  0  0  0  0  0  0
   40.2630   12.6018  -16.1624 C   0  0  0  0  0  0  0  0  0  0  0  0
   39.5071   11.7831  -16.9651 C   0  0  0  0  0  0  0  0  0  0  0  0
   40.2469   10.9806  -18.3546 Cl  0  0  0  0  0  0  0  0  0  0  0  0
   38.1682   11.6017  -16.6676 C   0  0  0  0  0  0  0  0  0  0  0  0
   37.5897   12.2378  -15.5712 C   0  0  0  0  0  0  0  0  0  0  0  0
   36.6295   16.1750   -8.8349 S   0  0  0  0  0  0  0  0  0  0  0  0
   35.6931   16.0141  -10.0249 O   0  0  0  0  0  0  0  0  0  0  0  0
   36.6999   17.6358   -8.4914 O   0  0  0  0  0  0  0  0  0  0  0  0
   35.9462   15.2594   -7.5332 C   0  0  0  0  0  0  0  0  0  0  0  0
   36.6307   14.2236   -6.9621 C   0  0  0  0  0  0  0  0  0  0  0  0
   36.0548   13.5089   -5.9022 C   0  0  0  0  0  0  0  0  0  0  0  0
   34.8068   13.8395   -5.4309 C   0  0  0  0  0  0  0  0  0  0  0  0
   34.1314   14.8738   -6.0064 C   0  0  0  0  0  0  0  0  0  0  0  0
   34.6999   15.5876   -7.0602 C   0  0  0  0  0  0  0  0  0  0  0  0
   33.7517   16.8987   -7.7316 Cl  0  0  0  0  0  0  0  0  0  0  0  0
 12 13  1  0  0  0
 13  8  1  0  0  0
  8  9  1  0  0  0
  9 10  2  0  0  0
  9  1  1  0  0  0
  1  2  1  0  0  0
  2  3  1  0  0  0
  3  4  1  0  0  0
  4  5  1  0  0  0
  5  6  1  0  0  0
  6  7  2  0  0  0
  6 23  1  0  0  0
 23 24  1  0  0  0
 24 25  1  0  0  0
 23 26  1  0  0  0
 26 27  2  0  0  0
 27 28  1  0  0  0
 28 29  2  0  0  0
 29 30  1  0  0  0
 29 31  1  0  0  0
 31 32  2  0  0  0
  3 33  1  0  0  0
 33 34  2  0  0  0
 33 35  2  0  0  0
 33 36  1  0  0  0
 36 37  2  0  0  0
 37 38  1  0  0  0
 38 39  2  0  0  0
 39 40  1  0  0  0
 40 41  2  0  0  0
 41 42  1  0  0  0
 13 14  1  0  0  0
 14 15  2  0  0  0
 14 16  1  0  0  0
 16 17  2  0  0  0
 16 18  1  0  0  0
 18 20  1  0  0  0
 20 21  1  0  0  0
 21 22  1  0  0  0
  5  1  1  0  0  0
 25 23  1  0  0  0
 32 26  1  0  0  0
 41 36  1  0  0  0
 22 20  1  0  0  0
  8 11  1  0  0  0
 18 19  1  0  0  0
M  END
> <minimizedAffinity>
-8.68983

> <CNNscore>
0.1639038622

> <CNNaffinity>
6.5490417480

> <CNN_VS>
1.0734132528

> <CNNaffinity_variance>
0.1757664979

$$$$
[H]c1c([H])c([H])c(S(=O)(=O)[C@@]2([H])C([H])([H])N(C(=O)C3(c4c([H])c([H])c(Cl)c([H])c4[H])C([H])([H])C3([H])[H])[C@]([H])(C(=O)N([H])[C@]([H])(C(=O)C(=O)N([H])C3([H])C([H])([H])C3([H])[H])C([H])([H])[H])C2([H])[H])c(Cl)c1[H]


 42 46  0  0  0  0  0  0  0  0999 V2000
   38.7029   14.5597  -12.1382 C   0  0  0  0  0  0  0  0  0  0  0  0
   38.4743   14.0736  -13.5141 C   0  0  0  0  0  0  0  0  0  0  0  0
   37.1003   14.5449  -13.8927 C   0  0  0  0  0  0  0  0  0  0  0  0
   36.6137   15.3668  -12.7500 C   0  0  0  0  0  0  0  0  0  0  0  0
   37.4805   15.1644  -11.6164 N   0  0  0  0  0  0  0  0  0  0  0  0
   37.3230   15.4421  -10.2360 C   0  0  0  0  0  0  0  0  0  0  0  0
   38.3000   15.1319   -9.4542 O   0  0  0  0  0  0  0  0  0  0  0  0
   40.8109   15.2893  -11.0411 N   0  0  0  0  0  0  0  0  0  0  0  0
   39.8447   15.4826  -12.0510 C   0  0  0  0  0  0  0  0  0  0  0  0
   39.9801   16.4336  -12.8484 O   0  0  0  0  0  0  0  0  0  0  0  0
   40.7210   14.5060  -10.3693 H   0  0  0  0  0  0  0  0  0  0  0  0
   42.4608   16.2271   -9.4706 C   0  0  0  0  0  0  0  0  0  0  0  0
   41.9663   16.1497  -10.8764 C   0  0  0  0  0  0  0  0  0  0  0  0
   43.0699   15.7518  -11.7938 C   0  0  0  0  0  0  0  0  0  0  0  0
   44.0293   16.5223  -11.9415 O   0  0  0  0  0  0  0  0  0  0  0  0
   43.0523   14.4903  -12.5166 C   0  0  0  0  0  0  0  0  0  0  0  0
   43.6109   13.4979  -11.9718 O   0  0  0  0  0  0  0  0  0  0  0  0
   42.4275   14.3984  -13.7814 N   0  0  0  0  0  0  0  0  0  0  0  0
   41.9777   15.2391  -14.1979 H   0  0  0  0  0  0  0  0  0  0  0  0
   42.3703   13.1815  -14.5542 C   0  0  0  0  0  0  0  0  0  0  0  0
   41.6593   13.2198  -15.8516 C   0  0  0  0  0  0  0  0  0  0  0  0
   43.1467   13.0430  -15.8139 C   0  0  0  0  0  0  0  0  0  0  0  0
   36.1675   16.0498   -9.5721 C   0  0  0  0  0  0  0  0  0  0  0  0
   35.2885   15.0976   -8.8218 C   0  0  0  0  0  0  0  0  0  0  0  0
   34.7621   15.8463   -9.9777 C   0  0  0  0  0  0  0  0  0  0  0  0
   36.4547   17.4083   -8.9842 C   0  0  0  0  0  0  0  0  0  0  0  0
   37.4443   18.2404   -9.4229 C   0  0  0  0  0  0  0  0  0  0  0  0
   37.6792   19.4811   -8.8577 C   0  0  0  0  0  0  0  0  0  0  0  0
   36.8933   19.9040   -7.8138 C   0  0  0  0  0  0  0  0  0  0  0  0
   37.1778   21.4848   -7.0776 Cl  0  0  0  0  0  0  0  0  0  0  0  0
   35.8850   19.0754   -7.3544 C   0  0  0  0  0  0  0  0  0  0  0  0
   35.6656   17.8294   -7.9380 C   0  0  0  0  0  0  0  0  0  0  0  0
   36.0120   13.1721  -14.2081 S   0  0  0  0  0  0  0  0  0  0  0  0
   34.6543   13.7595  -14.5693 O   0  0  0  0  0  0  0  0  0  0  0  0
   35.8419   12.3269  -12.9778 O   0  0  0  0  0  0  0  0  0  0  0  0
   36.5181   12.2140  -15.5591 C   0  0  0  0  0  0  0  0  0  0  0  0
   37.8155   12.2266  -15.9880 C   0  0  0  0  0  0  0  0  0  0  0  0
   38.1963   11.4309  -17.0779 C   0  0  0  0  0  0  0  0  0  0  0  0
   37.2767   10.6371  -17.7206 C   0  0  0  0  0  0  0  0  0  0  0  0
   35.9850   10.6309  -17.2863 C   0  0  0  0  0  0  0  0  0  0  0  0
   35.6017   11.4200  -16.2029 C   0  0  0  0  0  0  0  0  0  0  0  0
   33.9190   11.3418  -15.7219 Cl  0  0  0  0  0  0  0  0  0  0  0  0
 12 13  1  0  0  0
 13  8  1  0  0  0
  8  9  1  0  0  0
  9 10  2  0  0  0
  9  1  1  0  0  0
  1  2  1  0  0  0
  2  3  1  0  0  0
  3  4  1  0  0  0
  4  5  1  0  0  0
  5  6  1  0  0  0
  6  7  2  0  0  0
  6 23  1  0  0  0
 23 24  1  0  0  0
 24 25  1  0  0  0
 23 26  1  0  0  0
 26 27  2  0  0  0
 27 28  1  0  0  0
 28 29  2  0  0  0
 29 30  1  0  0  0
 29 31  1  0  0  0
 31 32  2  0  0  0
  3 33  1  0  0  0
 33 34  2  0  0  0
 33 35  2  0  0  0
 33 36  1  0  0  0
 36 37  2  0  0  0
 37 38  1  0  0  0
 38 39  2  0  0  0
 39 40  1  0  0  0
 40 41  2  0  0  0
 41 42  1  0  0  0
 13 14  1  0  0  0
 14 15  2  0  0  0
 14 16  1  0  0  0
 16 17  2  0  0  0
 16 18  1  0  0  0
 18 20  1  0  0  0
 20 21  1  0  0  0
 21 22  1  0  0  0
  5  1  1  0  0  0
 25 23  1  0  0  0
 32 26  1  0  0  0
 41 36  1  0  0  0
 22 20  1  0  0  0
  8 11  1  0  0  0
 18 19  1  0  0  0
M  END
> <minimizedAffinity>
-9.38099

> <CNNscore>
0.1608387679

> <CNNaffinity>
6.9328775406

> <CNN_VS>
1.1150754690

> <CNNaffinity_variance>
0.1786570698

$$$$
[H]c1c([H])c([H])c(S(=O)(=O)[C@@]2([H])C([H])([H])N(C(=O)C3(c4c([H])c([H])c(Cl)c([H])c4[H])C([H])([H])C3([H])[H])[C@]([H])(C(=O)N([H])[C@]([H])(C(=O)C(=O)N([H])C3([H])C([H])([H])C3([H])[H])C([H])([H])[H])C2([H])[H])c(Cl)c1[H]


 42 46  0  0  0  0  0  0  0  0999 V2000
   40.1569   16.1648  -11.9152 C   0  0  0  0  0  0  0  0  0  0  0  0
   40.3385   16.7050  -10.5526 C   0  0  0  0  0  0  0  0  0  0  0  0
   39.3344   15.9943   -9.6923 C   0  0  0  0  0  0  0  0  0  0  0  0
   38.6632   14.9989  -10.5736 C   0  0  0  0  0  0  0  0  0  0  0  0
   38.9949   15.2811  -11.9476 N   0  0  0  0  0  0  0  0  0  0  0  0
   38.4156   14.8644  -13.1717 C   0  0  0  0  0  0  0  0  0  0  0  0
   38.9503   15.3033  -14.2596 O   0  0  0  0  0  0  0  0  0  0  0  0
   42.1406   14.7165  -11.5315 N   0  0  0  0  0  0  0  0  0  0  0  0
   41.3641   15.4921  -12.4183 C   0  0  0  0  0  0  0  0  0  0  0  0
   41.7194   15.5908  -13.6110 O   0  0  0  0  0  0  0  0  0  0  0  0
   41.8646   14.6182  -10.5380 H   0  0  0  0  0  0  0  0  0  0  0  0
   43.4614   13.8299  -13.4123 C   0  0  0  0  0  0  0  0  0  0  0  0
   43.3467   14.0213  -11.9368 C   0  0  0  0  0  0  0  0  0  0  0  0
   44.5628   14.6967  -11.4048 C   0  0  0  0  0  0  0  0  0  0  0  0
   45.5418   14.0033  -11.0938 O   0  0  0  0  0  0  0  0  0  0  0  0
   44.6320   16.1398  -11.2417 C   0  0  0  0  0  0  0  0  0  0  0  0
   43.9406   16.6567  -10.3206 O   0  0  0  0  0  0  0  0  0  0  0  0
   45.4495   16.9182  -12.0929 N   0  0  0  0  0  0  0  0  0  0  0  0
   46.0048   16.4553  -12.8411 H   0  0  0  0  0  0  0  0  0  0  0  0
   45.5682   18.3522  -11.9892 C   0  0  0  0  0  0  0  0  0  0  0  0
   46.5196   19.0339  -12.8948 C   0  0  0  0  0  0  0  0  0  0  0  0
   45.0447   19.2386  -13.0611 C   0  0  0  0  0  0  0  0  0  0  0  0
   37.2637   13.9798  -13.3607 C   0  0  0  0  0  0  0  0  0  0  0  0
   35.9332   14.5866  -13.0385 C   0  0  0  0  0  0  0  0  0  0  0  0
   36.4344   13.4345  -12.2671 C   0  0  0  0  0  0  0  0  0  0  0  0
   37.3902   13.0717  -14.5577 C   0  0  0  0  0  0  0  0  0  0  0  0
   38.5288   12.3960  -14.8911 C   0  0  0  0  0  0  0  0  0  0  0  0
   38.6080   11.5711  -15.9990 C   0  0  0  0  0  0  0  0  0  0  0  0
   37.5052   11.4175  -16.8029 C   0  0  0  0  0  0  0  0  0  0  0  0
   37.5862   10.3693  -18.2230 Cl  0  0  0  0  0  0  0  0  0  0  0  0
   36.3415   12.0936  -16.4822 C   0  0  0  0  0  0  0  0  0  0  0  0
   36.2834   12.9197  -15.3618 C   0  0  0  0  0  0  0  0  0  0  0  0
   38.1583   17.1354   -8.9973 S   0  0  0  0  0  0  0  0  0  0  0  0
   37.8951   18.1973  -10.0564 O   0  0  0  0  0  0  0  0  0  0  0  0
   38.7232   17.8175   -7.7837 O   0  0  0  0  0  0  0  0  0  0  0  0
   36.6343   16.3928   -8.6437 C   0  0  0  0  0  0  0  0  0  0  0  0
   35.5211   16.6767   -9.3838 C   0  0  0  0  0  0  0  0  0  0  0  0
   34.3042   16.0502   -9.0794 C   0  0  0  0  0  0  0  0  0  0  0  0
   34.2189   15.1521   -8.0426 C   0  0  0  0  0  0  0  0  0  0  0  0
   35.3340   14.8750   -7.3098 C   0  0  0  0  0  0  0  0  0  0  0  0
   36.5462   15.4951   -7.6087 C   0  0  0  0  0  0  0  0  0  0  0  0
   37.9205   15.0719   -6.6082 Cl  0  0  0  0  0  0  0  0  0  0  0  0
 12 13  1  0  0  0
 13  8  1  0  0  0
  8  9  1  0  0  0
  9 10  2  0  0  0
  9  1  1  0  0  0
  1  2  1  0  0  0
  2  3  1  0  0  0
  3  4  1  0  0  0
  4  5  1  0  0  0
  5  6  1  0  0  0
  6  7  2  0  0  0
  6 23  1  0  0  0
 23 24  1  0  0  0
 24 25  1  0  0  0
 23 26  1  0  0  0
 26 27  2  0  0  0
 27 28  1  0  0  0
 28 29  2  0  0  0
 29 30  1  0  0  0
 29 31  1  0  0  0
 31 32  2  0  0  0
  3 33  1  0  0  0
 33 34  2  0  0  0
 33 35  2  0  0  0
 33 36  1  0  0  0
 36 37  2  0  0  0
 37 38  1  0  0  0
 38 39  2  0  0  0
 39 40  1  0  0  0
 40 41  2  0  0  0
 41 42  1  0  0  0
 13 14  1  0  0  0
 14 15  2  0  0  0
 14 16  1  0  0  0
 16 17  2  0  0  0
 16 18  1  0  0  0
 18 20  1  0  0  0
 20 21  1  0  0  0
 21 22  1  0  0  0
  5  1  1  0  0  0
 25 23  1  0  0  0
 32 26  1  0  0  0
 41 36  1  0  0  0
 22 20  1  0  0  0
  8 11  1  0  0  0
 18 19  1  0  0  0
M  END
> <minimizedAffinity>
-8.19686

> <CNNscore>
0.1351753622

> <CNNaffinity>
6.6331672668

> <CNN_VS>
0.8966407776

> <CNNaffinity_variance>
0.2527312338

$$$$
[H]c1c([H])c([H])c(S(=O)(=O)[C@@]2([H])C([H])([H])N(C(=O)C3(c4c([H])c([H])c(Cl)c([H])c4[H])C([H])([H])C3([H])[H])[C@]([H])(C(=O)N([H])[C@]([H])(C(=O)C(=O)N([H])C3([H])C([H])([H])C3([H])[H])C([H])([H])[H])C2([H])[H])c(Cl)c1[H]


 42 46  0  0  0  0  0  0  0  0999 V2000
   39.3012   16.3438  -11.3904 C   0  0  0  0  0  0  0  0  0  0  0  0
   39.0847   16.6761   -9.9676 C   0  0  0  0  0  0  0  0  0  0  0  0
   38.2508   15.5603   -9.4081 C   0  0  0  0  0  0  0  0  0  0  0  0
   38.0868   14.5718  -10.5097 C   0  0  0  0  0  0  0  0  0  0  0  0
   38.5133   15.1684  -11.7506 N   0  0  0  0  0  0  0  0  0  0  0  0
   38.2973   14.8081  -13.1038 C   0  0  0  0  0  0  0  0  0  0  0  0
   38.8177   15.5650  -14.0084 O   0  0  0  0  0  0  0  0  0  0  0  0
   41.5382   15.4061  -10.8461 N   0  0  0  0  0  0  0  0  0  0  0  0
   40.7242   16.1633  -11.7150 C   0  0  0  0  0  0  0  0  0  0  0  0
   41.2303   16.6640  -12.7405 O   0  0  0  0  0  0  0  0  0  0  0  0
   41.1402   14.9791   -9.9903 H   0  0  0  0  0  0  0  0  0  0  0  0
   43.8195   16.3180  -10.6671 C   0  0  0  0  0  0  0  0  0  0  0  0
   42.9504   15.1783  -11.0827 C   0  0  0  0  0  0  0  0  0  0  0  0
   43.4079   13.9152  -10.4398 C   0  0  0  0  0  0  0  0  0  0  0  0
   43.9894   13.0695  -11.1344 O   0  0  0  0  0  0  0  0  0  0  0  0
   43.1920   13.6493   -9.0267 C   0  0  0  0  0  0  0  0  0  0  0  0
   44.0713   14.0533   -8.2160 O   0  0  0  0  0  0  0  0  0  0  0  0
   42.0338   12.9624   -8.5961 N   0  0  0  0  0  0  0  0  0  0  0  0
   41.3315   12.6448   -9.2950 H   0  0  0  0  0  0  0  0  0  0  0  0
   41.7533   12.6649   -7.2127 C   0  0  0  0  0  0  0  0  0  0  0  0
   41.1464   13.7319   -6.3859 C   0  0  0  0  0  0  0  0  0  0  0  0
   40.3541   12.5094   -6.7364 C   0  0  0  0  0  0  0  0  0  0  0  0
   37.5431   13.6612  -13.6147 C   0  0  0  0  0  0  0  0  0  0  0  0
   36.0537   13.8151  -13.5914 C   0  0  0  0  0  0  0  0  0  0  0  0
   36.7084   12.7678  -12.7862 C   0  0  0  0  0  0  0  0  0  0  0  0
   38.1969   12.9856  -14.7934 C   0  0  0  0  0  0  0  0  0  0  0  0
   37.5343   12.1993  -15.6916 C   0  0  0  0  0  0  0  0  0  0  0  0
   38.1686   11.5941  -16.7619 C   0  0  0  0  0  0  0  0  0  0  0  0
   39.5172   11.7840  -16.9390 C   0  0  0  0  0  0  0  0  0  0  0  0
   40.3459   11.0191  -18.2992 Cl  0  0  0  0  0  0  0  0  0  0  0  0
   40.2070   12.5775  -16.0397 C   0  0  0  0  0  0  0  0  0  0  0  0
   39.5487   13.1775  -14.9683 C   0  0  0  0  0  0  0  0  0  0  0  0
   36.6737   16.1574   -8.8385 S   0  0  0  0  0  0  0  0  0  0  0  0
   35.7008   16.0112  -10.0007 O   0  0  0  0  0  0  0  0  0  0  0  0
   36.7492   17.6129   -8.4741 O   0  0  0  0  0  0  0  0  0  0  0  0
   36.0355   15.2184   -7.5307 C   0  0  0  0  0  0  0  0  0  0  0  0
   36.7498   14.1888   -6.9855 C   0  0  0  0  0  0  0  0  0  0  0  0
   36.2102   13.4546   -5.9198 C   0  0  0  0  0  0  0  0  0  0  0  0
   34.9681   13.7599   -5.4170 C   0  0  0  0  0  0  0  0  0  0  0  0
   34.2628   14.7882   -5.9668 C   0  0  0  0  0  0  0  0  0  0  0  0
   34.7952   15.5213   -7.0263 C   0  0  0  0  0  0  0  0  0  0  0  0
   33.8104   16.8227   -7.6630 Cl  0  0  0  0  0  0  0  0  0  0  0  0
 12 13  1  0  0  0
 13  8  1  0  0  0
  8  9  1  0  0  0
  9 10  2  0  0  0
  9  1  1  0  0  0
  1  2  1  0  0  0
  2  3  1  0  0  0
  3  4  1  0  0  0
  4  5  1  0  0  0
  5  6  1  0  0  0
  6  7  2  0  0  0
  6 23  1  0  0  0
 23 24  1  0  0  0
 24 25  1  0  0  0
 23 26  1  0  0  0
 26 27  2  0  0  0
 27 28  1  0  0  0
 28 29  2  0  0  0
 29 30  1  0  0  0
 29 31  1  0  0  0
 31 32  2  0  0  0
  3 33  1  0  0  0
 33 34  2  0  0  0
 33 35  2  0  0  0
 33 36  1  0  0  0
 36 37  2  0  0  0
 37 38  1  0  0  0
 38 39  2  0  0  0
 39 40  1  0  0  0
 40 41  2  0  0  0
 41 42  1  0  0  0
 13 14  1  0  0  0
 14 15  2  0  0  0
 14 16  1  0  0  0
 16 17  2  0  0  0
 16 18  1  0  0  0
 18 20  1  0  0  0
 20 21  1  0  0  0
 21 22  1  0  0  0
  5  1  1  0  0  0
 25 23  1  0  0  0
 32 26  1  0  0  0
 41 36  1  0  0  0
 22 20  1  0  0  0
  8 11  1  0  0  0
 18 19  1  0  0  0
M  END
> <minimizedAffinity>
-8.67850

> <CNNscore>
0.1155409217

> <CNNaffinity>
6.3748049736

> <CNN_VS>
0.7365508676

> <CNNaffinity_variance>
0.3957101703

$$$$
[H]c1c([H])c([H])c(S(=O)(=O)[C@@]2([H])C([H])([H])N(C(=O)C3(c4c([H])c([H])c(Cl)c([H])c4[H])C([H])([H])C3([H])[H])[C@]([H])(C(=O)N([H])[C@]([H])(C(=O)C(=O)N([H])C3([H])C([H])([H])C3([H])[H])C([H])([H])[H])C2([H])[H])c(Cl)c1[H]


 42 46  0  0  0  0  0  0  0  0999 V2000
   40.1530   16.3839  -11.5552 C   0  0  0  0  0  0  0  0  0  0  0  0
   39.7672   16.9001  -10.2262 C   0  0  0  0  0  0  0  0  0  0  0  0
   38.6552   16.0122   -9.7482 C   0  0  0  0  0  0  0  0  0  0  0  0
   38.4948   14.9538  -10.7836 C   0  0  0  0  0  0  0  0  0  0  0  0
   39.2289   15.3304  -11.9654 N   0  0  0  0  0  0  0  0  0  0  0  0
   39.1795   14.8690  -13.3041 C   0  0  0  0  0  0  0  0  0  0  0  0
   39.9784   15.4225  -14.1512 O   0  0  0  0  0  0  0  0  0  0  0  0
   42.3453   16.2407  -12.7185 N   0  0  0  0  0  0  0  0  0  0  0  0
   41.5501   15.9262  -11.5962 C   0  0  0  0  0  0  0  0  0  0  0  0
   42.0502   15.2656  -10.6623 O   0  0  0  0  0  0  0  0  0  0  0  0
   41.9530   16.7894  -13.5047 H   0  0  0  0  0  0  0  0  0  0  0  0
   43.9285   14.6757  -13.7731 C   0  0  0  0  0  0  0  0  0  0  0  0
   43.7297   15.8294  -12.8477 C   0  0  0  0  0  0  0  0  0  0  0  0
   44.5964   16.9721  -13.2488 C   0  0  0  0  0  0  0  0  0  0  0  0
   44.1091   18.1114  -13.2687 O   0  0  0  0  0  0  0  0  0  0  0  0
   45.9913   16.7880  -13.6154 C   0  0  0  0  0  0  0  0  0  0  0  0
   46.7633   16.2976  -12.7453 O   0  0  0  0  0  0  0  0  0  0  0  0
   46.4470   17.1508  -14.9035 N   0  0  0  0  0  0  0  0  0  0  0  0
   45.7799   17.5523  -15.5936 H   0  0  0  0  0  0  0  0  0  0  0  0
   47.8143   16.9959  -15.3367 C   0  0  0  0  0  0  0  0  0  0  0  0
   48.3267   17.9375  -16.3570 C   0  0  0  0  0  0  0  0  0  0  0  0
   48.8509   17.9899  -14.9544 C   0  0  0  0  0  0  0  0  0  0  0  0
   38.3187   13.8214  -13.8580 C   0  0  0  0  0  0  0  0  0  0  0  0
   36.8500   14.1095  -13.8087 C   0  0  0  0  0  0  0  0  0  0  0  0
   37.4124   12.9699  -13.0612 C   0  0  0  0  0  0  0  0  0  0  0  0
   38.8976   13.1453  -15.0749 C   0  0  0  0  0  0  0  0  0  0  0  0
   40.0824   13.4953  -15.6563 C   0  0  0  0  0  0  0  0  0  0  0  0
   40.5823   12.8518  -16.7744 C   0  0  0  0  0  0  0  0  0  0  0  0
   39.8684   11.8188  -17.3308 C   0  0  0  0  0  0  0  0  0  0  0  0
   40.4892   10.9848  -18.7594 Cl  0  0  0  0  0  0  0  0  0  0  0  0
   38.6653   11.4486  -16.7566 C   0  0  0  0  0  0  0  0  0  0  0  0
   38.1800   12.1104  -15.6306 C   0  0  0  0  0  0  0  0  0  0  0  0
   37.1466   16.9307   -9.5271 S   0  0  0  0  0  0  0  0  0  0  0  0
   36.1473   15.9867   -8.8724 O   0  0  0  0  0  0  0  0  0  0  0  0
   36.5814   17.3634  -10.8501 O   0  0  0  0  0  0  0  0  0  0  0  0
   37.3355   18.2796   -8.4575 C   0  0  0  0  0  0  0  0  0  0  0  0
   37.3442   19.5615   -8.9311 C   0  0  0  0  0  0  0  0  0  0  0  0
   37.4876   20.6328   -8.0380 C   0  0  0  0  0  0  0  0  0  0  0  0
   37.6199   20.4070   -6.6889 C   0  0  0  0  0  0  0  0  0  0  0  0
   37.6103   19.1255   -6.2253 C   0  0  0  0  0  0  0  0  0  0  0  0
   37.4676   18.0570   -7.1093 C   0  0  0  0  0  0  0  0  0  0  0  0
   37.4675   16.4488   -6.4147 Cl  0  0  0  0  0  0  0  0  0  0  0  0
 12 13  1  0  0  0
 13  8  1  0  0  0
  8  9  1  0  0  0
  9 10  2  0  0  0
  9  1  1  0  0  0
  1  2  1  0  0  0
  2  3  1  0  0  0
  3  4  1  0  0  0
  4  5  1  0  0  0
  5  6  1  0  0  0
  6  7  2  0  0  0
  6 23  1  0  0  0
 23 24  1  0  0  0
 24 25  1  0  0  0
 23 26  1  0  0  0
 26 27  2  0  0  0
 27 28  1  0  0  0
 28 29  2  0  0  0
 29 30  1  0  0  0
 29 31  1  0  0  0
 31 32  2  0  0  0
  3 33  1  0  0  0
 33 34  2  0  0  0
 33 35  2  0  0  0
 33 36  1  0  0  0
 36 37  2  0  0  0
 37 38  1  0  0  0
 38 39  2  0  0  0
 39 40  1  0  0  0
 40 41  2  0  0  0
 41 42  1  0  0  0
 13 14  1  0  0  0
 14 15  2  0  0  0
 14 16  1  0  0  0
 16 17  2  0  0  0
 16 18  1  0  0  0
 18 20  1  0  0  0
 20 21  1  0  0  0
 21 22  1  0  0  0
  5  1  1  0  0  0
 25 23  1  0  0  0
 32 26  1  0  0  0
 41 36  1  0  0  0
 22 20  1  0  0  0
  8 11  1  0  0  0
 18 19  1  0  0  0
M  END
> <minimizedAffinity>
-8.47319

> <CNNscore>
0.0989499018

> <CNNaffinity>
6.2660980225

> <CNN_VS>
0.6200298071

> <CNNaffinity_variance>
0.1706296802

$$$$
[H]c1c([H])c([H])c(S(=O)(=O)[C@@]2([H])C([H])([H])N(C(=O)C3(c4c([H])c([H])c(Cl)c([H])c4[H])C([H])([H])C3([H])[H])[C@]([H])(C(=O)N([H])[C@]([H])(C(=O)C(=O)N([H])C3([H])C([H])([H])C3([H])[H])C([H])([H])[H])C2([H])[H])c(Cl)c1[H]


 42 46  0  0  0  0  0  0  0  0999 V2000
   39.8495   15.5992   -9.4096 C   0  0  0  0  0  0  0  0  0  0  0  0
   41.2594   15.9535   -9.6711 C   0  0  0  0  0  0  0  0  0  0  0  0
   41.3314   16.3002  -11.1298 C   0  0  0  0  0  0  0  0  0  0  0  0
   39.9365   16.2194  -11.6452 C   0  0  0  0  0  0  0  0  0  0  0  0
   39.1053   15.5662  -10.6655 N   0  0  0  0  0  0  0  0  0  0  0  0
   37.8214   14.9730  -10.7498 C   0  0  0  0  0  0  0  0  0  0  0  0
   37.3370   14.4540   -9.6736 O   0  0  0  0  0  0  0  0  0  0  0  0
   38.2867   17.4564   -8.8727 N   0  0  0  0  0  0  0  0  0  0  0  0
   39.2181   16.4942   -8.4282 C   0  0  0  0  0  0  0  0  0  0  0  0
   39.4862   16.4242   -7.2109 O   0  0  0  0  0  0  0  0  0  0  0  0
   38.0467   17.5321   -9.8775 H   0  0  0  0  0  0  0  0  0  0  0  0
   37.7789   19.8137   -8.3690 C   0  0  0  0  0  0  0  0  0  0  0  0
   37.6180   18.3822   -7.9793 C   0  0  0  0  0  0  0  0  0  0  0  0
   36.1753   18.0430   -7.8329 C   0  0  0  0  0  0  0  0  0  0  0  0
   35.6751   17.2178   -8.6106 O   0  0  0  0  0  0  0  0  0  0  0  0
   35.3425   18.6503   -6.8074 C   0  0  0  0  0  0  0  0  0  0  0  0
   35.6348   18.4132   -5.6024 O   0  0  0  0  0  0  0  0  0  0  0  0
   34.2503   19.4731   -7.1663 N   0  0  0  0  0  0  0  0  0  0  0  0
   34.0410   19.6449   -8.1709 H   0  0  0  0  0  0  0  0  0  0  0  0
   33.3830   20.1086   -6.2046 C   0  0  0  0  0  0  0  0  0  0  0  0
   33.7182   21.4847   -5.7752 C   0  0  0  0  0  0  0  0  0  0  0  0
   32.4965   21.2322   -6.6051 C   0  0  0  0  0  0  0  0  0  0  0  0
   36.9577   14.8735  -11.9285 C   0  0  0  0  0  0  0  0  0  0  0  0
   36.2689   16.1429  -12.3242 C   0  0  0  0  0  0  0  0  0  0  0  0
   35.4841   14.9686  -11.9010 C   0  0  0  0  0  0  0  0  0  0  0  0
   37.5024   13.9643  -13.0009 C   0  0  0  0  0  0  0  0  0  0  0  0
   37.2425   12.6261  -13.0770 C   0  0  0  0  0  0  0  0  0  0  0  0
   37.7615   11.8222  -14.0763 C   0  0  0  0  0  0  0  0  0  0  0  0
   38.5712   12.3800  -15.0352 C   0  0  0  0  0  0  0  0  0  0  0  0
   39.2447   11.3702  -16.3193 Cl  0  0  0  0  0  0  0  0  0  0  0  0
   38.8467   13.7346  -14.9758 C   0  0  0  0  0  0  0  0  0  0  0  0
   38.3138   14.5260  -13.9605 C   0  0  0  0  0  0  0  0  0  0  0  0
   42.4071   15.1843  -12.0053 S   0  0  0  0  0  0  0  0  0  0  0  0
   41.5622   14.5054  -13.0748 O   0  0  0  0  0  0  0  0  0  0  0  0
   42.9406   14.1209  -11.0880 O   0  0  0  0  0  0  0  0  0  0  0  0
   43.6929   16.0023  -12.8280 C   0  0  0  0  0  0  0  0  0  0  0  0
   43.8368   17.3586  -12.7425 C   0  0  0  0  0  0  0  0  0  0  0  0
   44.8951   17.9900  -13.4112 C   0  0  0  0  0  0  0  0  0  0  0  0
   45.7909   17.2580  -14.1532 C   0  0  0  0  0  0  0  0  0  0  0  0
   45.6398   15.9059  -14.2330 C   0  0  0  0  0  0  0  0  0  0  0  0
   44.5893   15.2736  -13.5697 C   0  0  0  0  0  0  0  0  0  0  0  0
   44.4817   13.5329  -13.7348 Cl  0  0  0  0  0  0  0  0  0  0  0  0
 12 13  1  0  0  0
 13  8  1  0  0  0
  8  9  1  0  0  0
  9 10  2  0  0  0
  9  1  1  0  0  0
  1  2  1  0  0  0
  2  3  1  0  0  0
  3  4  1  0  0  0
  4  5  1  0  0  0
  5  6  1  0  0  0
  6  7  2  0  0  0
  6 23  1  0  0  0
 23 24  1  0  0  0
 24 25  1  0  0  0
 23 26  1  0  0  0
 26 27  2  0  0  0
 27 28  1  0  0  0
 28 29  2  0  0  0
 29 30  1  0  0  0
 29 31  1  0  0  0
 31 32  2  0  0  0
  3 33  1  0  0  0
 33 34  2  0  0  0
 33 35  2  0  0  0
 33 36  1  0  0  0
 36 37  2  0  0  0
 37 38  1  0  0  0
 38 39  2  0  0  0
 39 40  1  0  0  0
 40 41  2  0  0  0
 41 42  1  0  0  0
 13 14  1  0  0  0
 14 15  2  0  0  0
 14 16  1  0  0  0
 16 17  2  0  0  0
 16 18  1  0  0  0
 18 20  1  0  0  0
 20 21  1  0  0  0
 21 22  1  0  0  0
  5  1  1  0  0  0
 25 23  1  0  0  0
 32 26  1  0  0  0
 41 36  1  0  0  0
 22 20  1  0  0  0
  8 11  1  0  0  0
 18 19  1  0  0  0
M  END
> <minimizedAffinity>
-7.49879

> <CNNscore>
0.0978389382

> <CNNaffinity>
6.2136983871

> <CNN_VS>
0.6079416275

> <CNNaffinity_variance>
0.2993929088

$$$$
[H]c1c([H])c([H])c(S(=O)(=O)[C@@]2([H])C([H])([H])N(C(=O)C3(c4c([H])c([H])c(Cl)c([H])c4[H])C([H])([H])C3([H])[H])[C@]([H])(C(=O)N([H])[C@]([H])(C(=O)C(=O)N([H])C3([H])C([H])([H])C3([H])[H])C([H])([H])[H])C2([H])[H])c(Cl)c1[H]


 42 46  0  0  0  0  0  0  0  0999 V2000
   40.3316   16.2581  -11.8147 C   0  0  0  0  0  0  0  0  0  0  0  0
   39.9154   16.9752  -10.5923 C   0  0  0  0  0  0  0  0  0  0  0  0
   38.6293   16.3339  -10.1584 C   0  0  0  0  0  0  0  0  0  0  0  0
   38.3904   15.2045  -11.0992 C   0  0  0  0  0  0  0  0  0  0  0  0
   39.2854   15.3246  -12.2226 N   0  0  0  0  0  0  0  0  0  0  0  0
   39.2847   14.7291  -13.5082 C   0  0  0  0  0  0  0  0  0  0  0  0
   40.2417   15.0503  -14.3101 O   0  0  0  0  0  0  0  0  0  0  0  0
   42.3988   15.2930  -12.8022 N   0  0  0  0  0  0  0  0  0  0  0  0
   41.6288   15.5835  -11.6561 C   0  0  0  0  0  0  0  0  0  0  0  0
   42.0657   15.2609  -10.5320 O   0  0  0  0  0  0  0  0  0  0  0  0
   42.0580   15.5529  -13.7452 H   0  0  0  0  0  0  0  0  0  0  0  0
   43.6846   13.3922  -11.9071 C   0  0  0  0  0  0  0  0  0  0  0  0
   43.6860   14.6284  -12.7430 C   0  0  0  0  0  0  0  0  0  0  0  0
   44.2028   14.3316  -14.1079 C   0  0  0  0  0  0  0  0  0  0  0  0
   43.4442   13.7968  -14.9291 O   0  0  0  0  0  0  0  0  0  0  0  0
   45.5657   14.6511  -14.5007 C   0  0  0  0  0  0  0  0  0  0  0  0
   45.8728   15.8714  -14.6024 O   0  0  0  0  0  0  0  0  0  0  0  0
   46.4982   13.6193  -14.7549 N   0  0  0  0  0  0  0  0  0  0  0  0
   46.2071   12.6249  -14.6605 H   0  0  0  0  0  0  0  0  0  0  0  0
   47.8653   13.8611  -15.1469 C   0  0  0  0  0  0  0  0  0  0  0  0
   48.8767   14.0011  -14.0756 C   0  0  0  0  0  0  0  0  0  0  0  0
   48.9016   12.8086  -14.9823 C   0  0  0  0  0  0  0  0  0  0  0  0
   38.3152   13.7752  -14.0517 C   0  0  0  0  0  0  0  0  0  0  0  0
   36.8830   14.2052  -13.9718 C   0  0  0  0  0  0  0  0  0  0  0  0
   37.3452   13.0099  -13.2426 C   0  0  0  0  0  0  0  0  0  0  0  0
   38.8021   13.0558  -15.2840 C   0  0  0  0  0  0  0  0  0  0  0  0
   39.9750   13.3373  -15.9236 C   0  0  0  0  0  0  0  0  0  0  0  0
   40.3892   12.6556  -17.0541 C   0  0  0  0  0  0  0  0  0  0  0  0
   39.5987   11.6544  -17.5627 C   0  0  0  0  0  0  0  0  0  0  0  0
   40.1094   10.7726  -19.0061 Cl  0  0  0  0  0  0  0  0  0  0  0  0
   38.4060   11.3537  -16.9291 C   0  0  0  0  0  0  0  0  0  0  0  0
   38.0076   12.0529  -15.7917 C   0  0  0  0  0  0  0  0  0  0  0  0
   37.2837   17.4985  -10.1953 S   0  0  0  0  0  0  0  0  0  0  0  0
   36.5446   17.2770  -11.5080 O   0  0  0  0  0  0  0  0  0  0  0  0
   37.7944   18.9113  -10.1804 O   0  0  0  0  0  0  0  0  0  0  0  0
   36.1366   17.2356   -8.9247 C   0  0  0  0  0  0  0  0  0  0  0  0
   36.2216   17.9176   -7.7434 C   0  0  0  0  0  0  0  0  0  0  0  0
   35.2707   17.6905   -6.7384 C   0  0  0  0  0  0  0  0  0  0  0  0
   34.2523   16.7876   -6.9289 C   0  0  0  0  0  0  0  0  0  0  0  0
   34.1752   16.1119   -8.1099 C   0  0  0  0  0  0  0  0  0  0  0  0
   35.1181   16.3344   -9.1123 C   0  0  0  0  0  0  0  0  0  0  0  0
   34.9321   15.4165  -10.5927 Cl  0  0  0  0  0  0  0  0  0  0  0  0
 12 13  1  0  0  0
 13  8  1  0  0  0
  8  9  1  0  0  0
  9 10  2  0  0  0
  9  1  1  0  0  0
  1  2  1  0  0  0
  2  3  1  0  0  0
  3  4  1  0  0  0
  4  5  1  0  0  0
  5  6  1  0  0  0
  6  7  2  0  0  0
  6 23  1  0  0  0
 23 24  1  0  0  0
 24 25  1  0  0  0
 23 26  1  0  0  0
 26 27  2  0  0  0
 27 28  1  0  0  0
 28 29  2  0  0  0
 29 30  1  0  0  0
 29 31  1  0  0  0
 31 32  2  0  0  0
  3 33  1  0  0  0
 33 34  2  0  0  0
 33 35  2  0  0  0
 33 36  1  0  0  0
 36 37  2  0  0  0
 37 38  1  0  0  0
 38 39  2  0  0  0
 39 40  1  0  0  0
 40 41  2  0  0  0
 41 42  1  0  0  0
 13 14  1  0  0  0
 14 15  2  0  0  0
 14 16  1  0  0  0
 16 17  2  0  0  0
 16 18  1  0  0  0
 18 20  1  0  0  0
 20 21  1  0  0  0
 21 22  1  0  0  0
  5  1  1  0  0  0
 25 23  1  0  0  0
 32 26  1  0  0  0
 41 36  1  0  0  0
 22 20  1  0  0  0
  8 11  1  0  0  0
 18 19  1  0  0  0
M  END
> <minimizedAffinity>
-8.94354

> <CNNscore>
0.0948388726

> <CNNaffinity>
6.3324022293

> <CNN_VS>
0.6005578637

> <CNNaffinity_variance>
0.3058089614

$$$$
[H]c1c([H])c([H])c(S(=O)(=O)[C@@]2([H])C([H])([H])N(C(=O)C3(c4c([H])c([H])c(Cl)c([H])c4[H])C([H])([H])C3([H])[H])[C@]([H])(C(=O)N([H])[C@]([H])(C(=O)C(=O)N([H])C3([H])C([H])([H])C3([H])[H])C([H])([H])[H])C2([H])[H])c(Cl)c1[H]


 42 46  0  0  0  0  0  0  0  0999 V2000
   39.6934   16.5239  -10.9291 C   0  0  0  0  0  0  0  0  0  0  0  0
   39.2481   16.8929   -9.5700 C   0  0  0  0  0  0  0  0  0  0  0  0
   38.1850   15.8986   -9.2026 C   0  0  0  0  0  0  0  0  0  0  0  0
   38.1138   14.9306  -10.3321 C   0  0  0  0  0  0  0  0  0  0  0  0
   38.8469   15.4571  -11.4559 N   0  0  0  0  0  0  0  0  0  0  0  0
   38.8547   15.1169  -12.8313 C   0  0  0  0  0  0  0  0  0  0  0  0
   39.6342   15.7929  -13.6042 O   0  0  0  0  0  0  0  0  0  0  0  0
   41.8964   16.5578  -12.0804 N   0  0  0  0  0  0  0  0  0  0  0  0
   41.1173   16.1586  -10.9738 C   0  0  0  0  0  0  0  0  0  0  0  0
   41.6541   15.5033  -10.0567 O   0  0  0  0  0  0  0  0  0  0  0  0
   41.4737   17.1039  -12.8524 H   0  0  0  0  0  0  0  0  0  0  0  0
   43.5761   15.0716  -13.0992 C   0  0  0  0  0  0  0  0  0  0  0  0
   43.3051   16.2405  -12.2120 C   0  0  0  0  0  0  0  0  0  0  0  0
   44.0849   17.4264  -12.6629 C   0  0  0  0  0  0  0  0  0  0  0  0
   43.5841   18.1833  -13.5070 O   0  0  0  0  0  0  0  0  0  0  0  0
   45.4106   17.7188  -12.1422 C   0  0  0  0  0  0  0  0  0  0  0  0
   45.6195   17.4926  -10.9179 O   0  0  0  0  0  0  0  0  0  0  0  0
   46.4153   18.2366  -12.9914 N   0  0  0  0  0  0  0  0  0  0  0  0
   46.2045   18.4099  -13.9954 H   0  0  0  0  0  0  0  0  0  0  0  0
   47.7512   18.5488  -12.5452 C   0  0  0  0  0  0  0  0  0  0  0  0
   48.7025   19.0924  -13.5400 C   0  0  0  0  0  0  0  0  0  0  0  0
   48.2031   19.9595  -12.4248 C   0  0  0  0  0  0  0  0  0  0  0  0
   38.0739   14.0728  -13.4988 C   0  0  0  0  0  0  0  0  0  0  0  0
   36.6049   14.3433  -13.6042 C   0  0  0  0  0  0  0  0  0  0  0  0
   37.0979   13.1929  -12.8249 C   0  0  0  0  0  0  0  0  0  0  0  0
   38.7915   13.4319  -14.6597 C   0  0  0  0  0  0  0  0  0  0  0  0
   40.0821   13.7069  -15.0102 C   0  0  0  0  0  0  0  0  0  0  0  0
   40.7080   13.0989  -16.0839 C   0  0  0  0  0  0  0  0  0  0  0  0
   40.0149   12.1810  -16.8345 C   0  0  0  0  0  0  0  0  0  0  0  0
   40.7960   11.3942  -18.2102 Cl  0  0  0  0  0  0  0  0  0  0  0  0
   38.7057   11.8884  -16.4957 C   0  0  0  0  0  0  0  0  0  0  0  0
   38.0943   12.5126  -15.4104 C   0  0  0  0  0  0  0  0  0  0  0  0
   36.6169   16.6989   -8.9404 S   0  0  0  0  0  0  0  0  0  0  0  0
   35.8503   16.6079  -10.2529 O   0  0  0  0  0  0  0  0  0  0  0  0
   36.8034   18.1524   -8.6093 O   0  0  0  0  0  0  0  0  0  0  0  0
   35.6525   15.9040   -7.7415 C   0  0  0  0  0  0  0  0  0  0  0  0
   34.4547   15.3305   -8.0642 C   0  0  0  0  0  0  0  0  0  0  0  0
   33.7026   14.6845   -7.0729 C   0  0  0  0  0  0  0  0  0  0  0  0
   34.1579   14.6218   -5.7777 C   0  0  0  0  0  0  0  0  0  0  0  0
   35.3533   15.1965   -5.4648 C   0  0  0  0  0  0  0  0  0  0  0  0
   36.1049   15.8397   -6.4470 C   0  0  0  0  0  0  0  0  0  0  0  0
   37.6268   16.5465   -5.9439 Cl  0  0  0  0  0  0  0  0  0  0  0  0
 12 13  1  0  0  0
 13  8  1  0  0  0
  8  9  1  0  0  0
  9 10  2  0  0  0
  9  1  1  0  0  0
  1  2  1  0  0  0
  2  3  1  0  0  0
  3  4  1  0  0  0
  4  5  1  0  0  0
  5  6  1  0  0  0
  6  7  2  0  0  0
  6 23  1  0  0  0
 23 24  1  0  0  0
 24 25  1  0  0  0
 23 26  1  0  0  0
 26 27  2  0  0  0
 27 28  1  0  0  0
 28 29  2  0  0  0
 29 30  1  0  0  0
 29 31  1  0  0  0
 31 32  2  0  0  0
  3 33  1  0  0  0
 33 34  2  0  0  0
 33 35  2  0  0  0
 33 36  1  0  0  0
 36 37  2  0  0  0
 37 38  1  0  0  0
 38 39  2  0  0  0
 39 40  1  0  0  0
 40 41  2  0  0  0
 41 42  1  0  0  0
 13 14  1  0  0  0
 14 15  2  0  0  0
 14 16  1  0  0  0
 16 17  2  0  0  0
 16 18  1  0  0  0
 18 20  1  0  0  0
 20 21  1  0  0  0
 21 22  1  0  0  0
  5  1  1  0  0  0
 25 23  1  0  0  0
 32 26  1  0  0  0
 41 36  1  0  0  0
 22 20  1  0  0  0
  8 11  1  0  0  0
 18 19  1  0  0  0
M  END
> <minimizedAffinity>
-8.29082

> <CNNscore>
0.0925794989

> <CNNaffinity>
6.2504720688

> <CNN_VS>
0.5786655545

> <CNNaffinity_variance>
0.2010124177

$$$$
[H]c1c([H])c([H])c(C(=O)N(C([H])([H])[H])[C@]2([H])C([H])([H])[C@]3([H])O[C@](C([H])([H])[H])(n4c5c([H])c([H])c([H])c([H])c5c5c6c(c7c8c([H])c([H])c([H])c([H])c8n3c7c54)C(=O)N([H])C6([H])[H])[C@]2([H])OC([H])([H])[H])c([H])c1[H]


 44 52  0  0  0  0  0  0  0  0999 V2000
   36.2738   14.0017  -12.8282 C   0  0  0  0  0  0  0  0  0  0  0  0
   37.2927   14.4983  -11.7609 C   0  0  0  0  0  0  0  0  0  0  0  0
   38.7756   14.2935  -12.2308 C   0  0  0  0  0  0  0  0  0  0  0  0
   38.6133   13.5025  -13.3379 C   0  0  0  0  0  0  0  0  0  0  0  0
   37.8876   12.3940  -12.9340 O   0  0  0  0  0  0  0  0  0  0  0  0
   36.5372   12.6599  -13.3136 C   0  0  0  0  0  0  0  0  0  0  0  0
   35.8123   11.5726  -12.4570 C   0  0  0  0  0  0  0  0  0  0  0  0
   36.4915   12.2650  -14.7036 N   0  0  0  0  0  0  0  0  0  0  0  0
   35.3871   11.7942  -15.3323 C   0  0  0  0  0  0  0  0  0  0  0  0
   34.0532   11.6555  -15.0010 C   0  0  0  0  0  0  0  0  0  0  0  0
   33.1089   11.1384  -15.8378 C   0  0  0  0  0  0  0  0  0  0  0  0
   33.4659   10.7148  -17.1057 C   0  0  0  0  0  0  0  0  0  0  0  0
   34.7905   10.8291  -17.4958 C   0  0  0  0  0  0  0  0  0  0  0  0
   35.7058   11.3546  -16.6225 C   0  0  0  0  0  0  0  0  0  0  0  0
   37.0320   11.5632  -16.7899 C   0  0  0  0  0  0  0  0  0  0  0  0
   37.9955   11.3309  -17.7750 C   0  0  0  0  0  0  0  0  0  0  0  0
   37.7819   10.7459  -19.1111 C   0  0  0  0  0  0  0  0  0  0  0  0
   39.0730   10.7217  -19.7276 N   0  0  0  0  0  0  0  0  0  0  0  0
   40.0633   11.2708  -18.8167 C   0  0  0  0  0  0  0  0  0  0  0  0
   41.2679   11.3634  -19.1118 O   0  0  0  0  0  0  0  0  0  0  0  0
   39.3461   11.6295  -17.6314 C   0  0  0  0  0  0  0  0  0  0  0  0
   39.7959   12.2017  -16.4405 C   0  0  0  0  0  0  0  0  0  0  0  0
   40.9634   12.6680  -15.9385 C   0  0  0  0  0  0  0  0  0  0  0  0
   42.2398   12.7097  -16.4291 C   0  0  0  0  0  0  0  0  0  0  0  0
   43.2177   13.2802  -15.6112 C   0  0  0  0  0  0  0  0  0  0  0  0
   42.9545   13.7898  -14.3612 C   0  0  0  0  0  0  0  0  0  0  0  0
   41.6559   13.7484  -13.8595 C   0  0  0  0  0  0  0  0  0  0  0  0
   40.7003   13.1810  -14.6807 C   0  0  0  0  0  0  0  0  0  0  0  0
   39.4162   13.0410  -14.4031 N   0  0  0  0  0  0  0  0  0  0  0  0
   38.8316   12.4277  -15.4736 C   0  0  0  0  0  0  0  0  0  0  0  0
   37.4882   12.1150  -15.6319 C   0  0  0  0  0  0  0  0  0  0  0  0
   39.2677   10.3629  -20.6864 H   0  0  0  0  0  0  0  0  0  0  0  0
   37.0256   15.8294  -11.3709 N   0  0  0  0  0  0  0  0  0  0  0  0
   35.8727   16.4936  -12.0915 C   0  0  0  0  0  0  0  0  0  0  0  0
   37.6403   16.6887  -10.4678 C   0  0  0  0  0  0  0  0  0  0  0  0
   37.1096   17.8899  -10.4562 O   0  0  0  0  0  0  0  0  0  0  0  0
   38.7252   16.5732   -9.5410 C   0  0  0  0  0  0  0  0  0  0  0  0
   38.5850   16.6103   -8.1815 C   0  0  0  0  0  0  0  0  0  0  0  0
   39.7016   16.4259   -7.3407 C   0  0  0  0  0  0  0  0  0  0  0  0
   40.9568   16.2067   -7.8435 C   0  0  0  0  0  0  0  0  0  0  0  0
   41.1213   16.1673   -9.1900 C   0  0  0  0  0  0  0  0  0  0  0  0
   40.0406   16.3450  -10.0043 C   0  0  0  0  0  0  0  0  0  0  0  0
   34.4760   14.8310  -14.0812 C   0  0  0  0  0  0  0  0  0  0  0  0
   35.7775   14.9626  -13.6465 O   0  0  0  0  0  0  0  0  0  0  0  0
 43 44  1  0  0  0
 44  1  1  0  0  0
  1  2  1  0  0  0
  2  3  1  0  0  0
  3  4  1  0  0  0
  4  5  1  0  0  0
  5  6  1  0  0  0
  6  7  1  0  0  0
  6  8  1  0  0  0
  8  9  1  0  0  0
  9 10  2  0  0  0
 10 11  1  0  0  0
 11 12  2  0  0  0
 12 13  1  0  0  0
 13 14  2  0  0  0
 14 15  1  0  0  0
 15 16  2  0  0  0
 16 17  1  0  0  0
 17 18  1  0  0  0
 18 19  1  0  0  0
 19 20  2  0  0  0
 19 21  1  0  0  0
 21 22  2  0  0  0
 22 23  1  0  0  0
 23 24  2  0  0  0
 24 25  1  0  0  0
 25 26  2  0  0  0
 26 27  1  0  0  0
 27 28  2  0  0  0
 28 29  1  0  0  0
 29 30  1  0  0  0
 30 31  2  0  0  0
  2 33  1  0  0  0
 33 34  1  0  0  0
 33 35  1  0  0  0
 35 36  2  0  0  0
 35 37  1  0  0  0
 37 38  2  0  0  0
 38 39  1  0  0  0
 39 40  2  0  0  0
 40 41  1  0  0  0
 41 42  2  0  0  0
  6  1  1  0  0  0
 31  8  1  0  0  0
 42 37  1  0  0  0
 29  4  1  0  0  0
 14  9  1  0  0  0
 31 15  1  0  0  0
 21 16  1  0  0  0
 30 22  1  0  0  0
 28 23  1  0  0  0
 18 32  1  0  0  0
M  END
> <minimizedAffinity>
-11.08031

> <CNNscore>
0.6834533811

> <CNNaffinity>
7.9833130836

> <CNN_VS>
5.4562225342

> <CNNaffinity_variance>
0.1465443075

$$$$
[H]c1c([H])c([H])c(C(=O)N(C([H])([H])[H])[C@]2([H])C([H])([H])[C@]3([H])O[C@](C([H])([H])[H])(n4c5c([H])c([H])c([H])c([H])c5c5c6c(c7c8c([H])c([H])c([H])c([H])c8n3c7c54)C(=O)N([H])C6([H])[H])[C@]2([H])OC([H])([H])[H])c([H])c1[H]


 44 52  0  0  0  0  0  0  0  0999 V2000
   35.8288   13.7285  -12.7265 C   0  0  0  0  0  0  0  0  0  0  0  0
   36.7691   14.2497  -11.6004 C   0  0  0  0  0  0  0  0  0  0  0  0
   38.2796   14.1635  -12.0157 C   0  0  0  0  0  0  0  0  0  0  0  0
   38.2151   13.4076  -13.1569 C   0  0  0  0  0  0  0  0  0  0  0  0
   37.5518   12.2380  -12.8243 O   0  0  0  0  0  0  0  0  0  0  0  0
   36.2022   12.4275  -13.2495 C   0  0  0  0  0  0  0  0  0  0  0  0
   35.5208   11.2612  -12.4642 C   0  0  0  0  0  0  0  0  0  0  0  0
   36.2377   12.0856  -14.6538 N   0  0  0  0  0  0  0  0  0  0  0  0
   35.1934   11.5670  -15.3445 C   0  0  0  0  0  0  0  0  0  0  0  0
   33.8602   11.3264  -15.0741 C   0  0  0  0  0  0  0  0  0  0  0  0
   32.9868   10.7806  -15.9677 C   0  0  0  0  0  0  0  0  0  0  0  0
   33.4210   10.4322  -17.2344 C   0  0  0  0  0  0  0  0  0  0  0  0
   34.7488   10.6502  -17.5649 C   0  0  0  0  0  0  0  0  0  0  0  0
   35.5913   11.2010  -16.6357 C   0  0  0  0  0  0  0  0  0  0  0  0
   36.9056   11.5044  -16.7402 C   0  0  0  0  0  0  0  0  0  0  0  0
   37.9203   11.3762  -17.6925 C   0  0  0  0  0  0  0  0  0  0  0  0
   37.7993   10.8313  -19.0568 C   0  0  0  0  0  0  0  0  0  0  0  0
   39.1120   10.9180  -19.6198 N   0  0  0  0  0  0  0  0  0  0  0  0
   40.0263   11.4958  -18.6491 C   0  0  0  0  0  0  0  0  0  0  0  0
   41.2323   11.6805  -18.8904 O   0  0  0  0  0  0  0  0  0  0  0  0
   39.2407   11.7586  -17.4821 C   0  0  0  0  0  0  0  0  0  0  0  0
   39.6036   12.3123  -16.2535 C   0  0  0  0  0  0  0  0  0  0  0  0
   40.7161   12.8356  -15.6868 C   0  0  0  0  0  0  0  0  0  0  0  0
   42.0047   12.9820  -16.1221 C   0  0  0  0  0  0  0  0  0  0  0  0
   42.9087   13.5841  -15.2441 C   0  0  0  0  0  0  0  0  0  0  0  0
   42.5629   14.0252  -13.9882 C   0  0  0  0  0  0  0  0  0  0  0  0
   41.2517   13.8771  -13.5426 C   0  0  0  0  0  0  0  0  0  0  0  0
   40.3698   13.2798  -14.4229 C   0  0  0  0  0  0  0  0  0  0  0  0
   39.0885   13.0433  -14.2041 N   0  0  0  0  0  0  0  0  0  0  0  0
   38.5893   12.4350  -15.3197 C   0  0  0  0  0  0  0  0  0  0  0  0
   37.2777   12.0394  -15.5449 C   0  0  0  0  0  0  0  0  0  0  0  0
   39.3680   10.6111  -20.5822 H   0  0  0  0  0  0  0  0  0  0  0  0
   36.3965   15.5436  -11.1732 N   0  0  0  0  0  0  0  0  0  0  0  0
   36.7062   16.6588  -12.1479 C   0  0  0  0  0  0  0  0  0  0  0  0
   35.8248   16.0208   -9.9997 C   0  0  0  0  0  0  0  0  0  0  0  0
   35.7043   17.3284   -9.9796 O   0  0  0  0  0  0  0  0  0  0  0  0
   35.3338   15.4190   -8.7972 C   0  0  0  0  0  0  0  0  0  0  0  0
   36.0893   14.6508   -7.9555 C   0  0  0  0  0  0  0  0  0  0  0  0
   35.5406   14.1478   -6.7581 C   0  0  0  0  0  0  0  0  0  0  0  0
   34.2450   14.4026   -6.3935 C   0  0  0  0  0  0  0  0  0  0  0  0
   33.4748   15.1615   -7.2138 C   0  0  0  0  0  0  0  0  0  0  0  0
   34.0058   15.6491   -8.3725 C   0  0  0  0  0  0  0  0  0  0  0  0
   33.9363   14.6779  -13.7300 C   0  0  0  0  0  0  0  0  0  0  0  0
   35.3000   14.6855  -13.5289 O   0  0  0  0  0  0  0  0  0  0  0  0
 43 44  1  0  0  0
 44  1  1  0  0  0
  1  2  1  0  0  0
  2  3  1  0  0  0
  3  4  1  0  0  0
  4  5  1  0  0  0
  5  6  1  0  0  0
  6  7  1  0  0  0
  6  8  1  0  0  0
  8  9  1  0  0  0
  9 10  2  0  0  0
 10 11  1  0  0  0
 11 12  2  0  0  0
 12 13  1  0  0  0
 13 14  2  0  0  0
 14 15  1  0  0  0
 15 16  2  0  0  0
 16 17  1  0  0  0
 17 18  1  0  0  0
 18 19  1  0  0  0
 19 20  2  0  0  0
 19 21  1  0  0  0
 21 22  2  0  0  0
 22 23  1  0  0  0
 23 24  2  0  0  0
 24 25  1  0  0  0
 25 26  2  0  0  0
 26 27  1  0  0  0
 27 28  2  0  0  0
 28 29  1  0  0  0
 29 30  1  0  0  0
 30 31  2  0  0  0
  2 33  1  0  0  0
 33 34  1  0  0  0
 33 35  1  0  0  0
 35 36  2  0  0  0
 35 37  1  0  0  0
 37 38  2  0  0  0
 38 39  1  0  0  0
 39 40  2  0  0  0
 40 41  1  0  0  0
 41 42  2  0  0  0
  6  1  1  0  0  0
 31  8  1  0  0  0
 42 37  1  0  0  0
 29  4  1  0  0  0
 14  9  1  0  0  0
 31 15  1  0  0  0
 21 16  1  0  0  0
 30 22  1  0  0  0
 28 23  1  0  0  0
 18 32  1  0  0  0
M  END
> <minimizedAffinity>
-9.50545

> <CNNscore>
0.6521169543

> <CNNaffinity>
7.9350595474

> <CNN_VS>
5.1745867729

> <CNNaffinity_variance>
0.2205063105

$$$$
[H]c1c([H])c([H])c(C(=O)N(C([H])([H])[H])[C@]2([H])C([H])([H])[C@]3([H])O[C@](C([H])([H])[H])(n4c5c([H])c([H])c([H])c([H])c5c5c6c(c7c8c([H])c([H])c([H])c([H])c8n3c7c54)C(=O)N([H])C6([H])[H])[C@]2([H])OC([H])([H])[H])c([H])c1[H]


 44 52  0  0  0  0  0  0  0  0999 V2000
   40.1110   15.8793  -10.7240 C   0  0  0  0  0  0  0  0  0  0  0  0
   38.5733   16.0867  -10.5975 C   0  0  0  0  0  0  0  0  0  0  0  0
   37.7941   15.4056  -11.7768 C   0  0  0  0  0  0  0  0  0  0  0  0
   38.8111   15.0822  -12.6364 C   0  0  0  0  0  0  0  0  0  0  0  0
   39.5066   16.2528  -12.8908 O   0  0  0  0  0  0  0  0  0  0  0  0
   40.6450   16.2181  -12.0300 C   0  0  0  0  0  0  0  0  0  0  0  0
   41.0769   17.7171  -12.1171 C   0  0  0  0  0  0  0  0  0  0  0  0
   41.5990   15.4149  -12.7614 N   0  0  0  0  0  0  0  0  0  0  0  0
   42.9446   15.5488  -12.6712 C   0  0  0  0  0  0  0  0  0  0  0  0
   43.8072   16.2812  -11.8789 C   0  0  0  0  0  0  0  0  0  0  0  0
   45.1658   16.2371  -11.9868 C   0  0  0  0  0  0  0  0  0  0  0  0
   45.7581   15.4215  -12.9347 C   0  0  0  0  0  0  0  0  0  0  0  0
   44.9440   14.6617  -13.7593 C   0  0  0  0  0  0  0  0  0  0  0  0
   43.5837   14.7373  -13.6159 C   0  0  0  0  0  0  0  0  0  0  0  0
   42.6105   14.0899  -14.2971 C   0  0  0  0  0  0  0  0  0  0  0  0
   42.5220   13.1929  -15.3651 C   0  0  0  0  0  0  0  0  0  0  0  0
   43.6367   12.5921  -16.1197 C   0  0  0  0  0  0  0  0  0  0  0  0
   43.0228   11.7528  -17.1028 N   0  0  0  0  0  0  0  0  0  0  0  0
   41.5769   11.8203  -16.9735 C   0  0  0  0  0  0  0  0  0  0  0  0
   40.8067   11.1810  -17.7117 O   0  0  0  0  0  0  0  0  0  0  0  0
   41.3241   12.7200  -15.8897 C   0  0  0  0  0  0  0  0  0  0  0  0
   40.1184   13.1477  -15.3319 C   0  0  0  0  0  0  0  0  0  0  0  0
   38.7985   12.9020  -15.5051 C   0  0  0  0  0  0  0  0  0  0  0  0
   38.1021   12.1236  -16.3886 C   0  0  0  0  0  0  0  0  0  0  0  0
   36.7107   12.1121  -16.2675 C   0  0  0  0  0  0  0  0  0  0  0  0
   36.0288   12.8358  -15.3173 C   0  0  0  0  0  0  0  0  0  0  0  0
   36.7354   13.6292  -14.4168 C   0  0  0  0  0  0  0  0  0  0  0  0
   38.1108   13.6296  -14.5498 C   0  0  0  0  0  0  0  0  0  0  0  0
   38.9668   14.3073  -13.8058 N   0  0  0  0  0  0  0  0  0  0  0  0
   40.2199   14.0348  -14.2742 C   0  0  0  0  0  0  0  0  0  0  0  0
   41.4254   14.5028  -13.7692 C   0  0  0  0  0  0  0  0  0  0  0  0
   43.5404   11.1812  -17.8038 H   0  0  0  0  0  0  0  0  0  0  0  0
   38.0996   15.6834   -9.3293 N   0  0  0  0  0  0  0  0  0  0  0  0
   37.9876   14.1878   -9.1283 C   0  0  0  0  0  0  0  0  0  0  0  0
   37.6695   16.3928   -8.2142 C   0  0  0  0  0  0  0  0  0  0  0  0
   37.2359   15.6183   -7.2463 O   0  0  0  0  0  0  0  0  0  0  0  0
   37.5851   17.7797   -7.8694 C   0  0  0  0  0  0  0  0  0  0  0  0
   37.3897   18.2478   -6.5997 C   0  0  0  0  0  0  0  0  0  0  0  0
   37.3818   19.6336   -6.3403 C   0  0  0  0  0  0  0  0  0  0  0  0
   37.5650   20.5565   -7.3359 C   0  0  0  0  0  0  0  0  0  0  0  0
   37.7591   20.1159   -8.6047 C   0  0  0  0  0  0  0  0  0  0  0  0
   37.7677   18.7746   -8.8561 C   0  0  0  0  0  0  0  0  0  0  0  0
   41.5944   15.1360   -9.0695 C   0  0  0  0  0  0  0  0  0  0  0  0
   40.6184   14.8507  -10.0002 O   0  0  0  0  0  0  0  0  0  0  0  0
 43 44  1  0  0  0
 44  1  1  0  0  0
  1  2  1  0  0  0
  2  3  1  0  0  0
  3  4  1  0  0  0
  4  5  1  0  0  0
  5  6  1  0  0  0
  6  7  1  0  0  0
  6  8  1  0  0  0
  8  9  1  0  0  0
  9 10  2  0  0  0
 10 11  1  0  0  0
 11 12  2  0  0  0
 12 13  1  0  0  0
 13 14  2  0  0  0
 14 15  1  0  0  0
 15 16  2  0  0  0
 16 17  1  0  0  0
 17 18  1  0  0  0
 18 19  1  0  0  0
 19 20  2  0  0  0
 19 21  1  0  0  0
 21 22  2  0  0  0
 22 23  1  0  0  0
 23 24  2  0  0  0
 24 25  1  0  0  0
 25 26  2  0  0  0
 26 27  1  0  0  0
 27 28  2  0  0  0
 28 29  1  0  0  0
 29 30  1  0  0  0
 30 31  2  0  0  0
  2 33  1  0  0  0
 33 34  1  0  0  0
 33 35  1  0  0  0
 35 36  2  0  0  0
 35 37  1  0  0  0
 37 38  2  0  0  0
 38 39  1  0  0  0
 39 40  2  0  0  0
 40 41  1  0  0  0
 41 42  2  0  0  0
  6  1  1  0  0  0
 31  8  1  0  0  0
 42 37  1  0  0  0
 29  4  1  0  0  0
 14  9  1  0  0  0
 31 15  1  0  0  0
 21 16  1  0  0  0
 30 22  1  0  0  0
 28 23  1  0  0  0
 18 32  1  0  0  0
M  END
> <minimizedAffinity>
-8.25608

> <CNNscore>
0.1908144951

> <CNNaffinity>
6.6432867050

> <CNN_VS>
1.2676353455

> <CNNaffinity_variance>
0.1181763262

$$$$
[H]c1c([H])c([H])c(C(=O)N(C([H])([H])[H])[C@]2([H])C([H])([H])[C@]3([H])O[C@](C([H])([H])[H])(n4c5c([H])c([H])c([H])c([H])c5c5c6c(c7c8c([H])c([H])c([H])c([H])c8n3c7c54)C(=O)N([H])C6([H])[H])[C@]2([H])OC([H])([H])[H])c([H])c1[H]


 44 52  0  0  0  0  0  0  0  0999 V2000
   40.1248   15.6300  -10.6538 C   0  0  0  0  0  0  0  0  0  0  0  0
   38.5740   15.7261  -10.5571 C   0  0  0  0  0  0  0  0  0  0  0  0
   37.8700   15.0441  -11.7822 C   0  0  0  0  0  0  0  0  0  0  0  0
   38.9255   14.8280  -12.6289 C   0  0  0  0  0  0  0  0  0  0  0  0
   39.5434   16.0532  -12.8178 O   0  0  0  0  0  0  0  0  0  0  0  0
   40.6624   16.0598  -11.9312 C   0  0  0  0  0  0  0  0  0  0  0  0
   40.9910   17.5873  -11.9461 C   0  0  0  0  0  0  0  0  0  0  0  0
   41.6856   15.3557  -12.6711 N   0  0  0  0  0  0  0  0  0  0  0  0
   43.0164   15.5774  -12.5423 C   0  0  0  0  0  0  0  0  0  0  0  0
   43.8086   16.3327  -11.6995 C   0  0  0  0  0  0  0  0  0  0  0  0
   45.1689   16.3863  -11.7754 C   0  0  0  0  0  0  0  0  0  0  0  0
   45.8370   15.6542  -12.7410 C   0  0  0  0  0  0  0  0  0  0  0  0
   45.0958   14.8764  -13.6160 C   0  0  0  0  0  0  0  0  0  0  0  0
   43.7308   14.8525  -13.5033 C   0  0  0  0  0  0  0  0  0  0  0  0
   42.8200   14.1696  -14.2343 C   0  0  0  0  0  0  0  0  0  0  0  0
   42.8173   13.3151  -15.3401 C   0  0  0  0  0  0  0  0  0  0  0  0
   43.9872   12.8246  -16.0909 C   0  0  0  0  0  0  0  0  0  0  0  0
   43.4548   11.9879  -17.1225 N   0  0  0  0  0  0  0  0  0  0  0  0
   42.0052   11.9507  -17.0263 C   0  0  0  0  0  0  0  0  0  0  0  0
   41.2975   11.2922  -17.8089 O   0  0  0  0  0  0  0  0  0  0  0  0
   41.6669   12.7841  -15.9131 C   0  0  0  0  0  0  0  0  0  0  0  0
   40.4225   13.1041  -15.3682 C   0  0  0  0  0  0  0  0  0  0  0  0
   39.1269   12.7763  -15.5840 C   0  0  0  0  0  0  0  0  0  0  0  0
   38.5057   11.9903  -16.5156 C   0  0  0  0  0  0  0  0  0  0  0  0
   37.1162   11.8785  -16.4296 C   0  0  0  0  0  0  0  0  0  0  0  0
   36.3651   12.5127  -15.4677 C   0  0  0  0  0  0  0  0  0  0  0  0
   36.9951   13.3135  -14.5182 C   0  0  0  0  0  0  0  0  0  0  0  0
   38.3697   13.4137  -14.6170 C   0  0  0  0  0  0  0  0  0  0  0  0
   39.1601   14.1160  -13.8248 N   0  0  0  0  0  0  0  0  0  0  0  0
   40.4390   13.9501  -14.2729 C   0  0  0  0  0  0  0  0  0  0  0  0
   41.5979   14.4776  -13.7194 C   0  0  0  0  0  0  0  0  0  0  0  0
   44.0259   11.4835  -17.8333 H   0  0  0  0  0  0  0  0  0  0  0  0
   38.1019   15.2376   -9.3185 N   0  0  0  0  0  0  0  0  0  0  0  0
   39.1720   14.7429   -8.3701 C   0  0  0  0  0  0  0  0  0  0  0  0
   36.8253   15.0787   -8.7925 C   0  0  0  0  0  0  0  0  0  0  0  0
   36.8228   14.5121   -7.6078 O   0  0  0  0  0  0  0  0  0  0  0  0
   35.5015   15.3877   -9.2415 C   0  0  0  0  0  0  0  0  0  0  0  0
   35.0982   15.3345  -10.5469 C   0  0  0  0  0  0  0  0  0  0  0  0
   33.7567   15.5950  -10.8935 C   0  0  0  0  0  0  0  0  0  0  0  0
   32.8144   15.9098   -9.9504 C   0  0  0  0  0  0  0  0  0  0  0  0
   33.1912   15.9703   -8.6481 C   0  0  0  0  0  0  0  0  0  0  0  0
   34.4895   15.7174   -8.3120 C   0  0  0  0  0  0  0  0  0  0  0  0
   41.8196   14.8756   -9.2225 C   0  0  0  0  0  0  0  0  0  0  0  0
   40.6864   14.6085   -9.9605 O   0  0  0  0  0  0  0  0  0  0  0  0
 43 44  1  0  0  0
 44  1  1  0  0  0
  1  2  1  0  0  0
  2  3  1  0  0  0
  3  4  1  0  0  0
  4  5  1  0  0  0
  5  6  1  0  0  0
  6  7  1  0  0  0
  6  8  1  0  0  0
  8  9  1  0  0  0
  9 10  2  0  0  0
 10 11  1  0  0  0
 11 12  2  0  0  0
 12 13  1  0  0  0
 13 14  2  0  0  0
 14 15  1  0  0  0
 15 16  2  0  0  0
 16 17  1  0  0  0
 17 18  1  0  0  0
 18 19  1  0  0  0
 19 20  2  0  0  0
 19 21  1  0  0  0
 21 22  2  0  0  0
 22 23  1  0  0  0
 23 24  2  0  0  0
 24 25  1  0  0  0
 25 26  2  0  0  0
 26 27  1  0  0  0
 27 28  2  0  0  0
 28 29  1  0  0  0
 29 30  1  0  0  0
 30 31  2  0  0  0
  2 33  1  0  0  0
 33 34  1  0  0  0
 33 35  1  0  0  0
 35 36  2  0  0  0
 35 37  1  0  0  0
 37 38  2  0  0  0
 38 39  1  0  0  0
 39 40  2  0  0  0
 40 41  1  0  0  0
 41 42  2  0  0  0
  6  1  1  0  0  0
 31  8  1  0  0  0
 42 37  1  0  0  0
 29  4  1  0  0  0
 14  9  1  0  0  0
 31 15  1  0  0  0
 21 16  1  0  0  0
 30 22  1  0  0  0
 28 23  1  0  0  0
 18 32  1  0  0  0
M  END
> <minimizedAffinity>
-8.82227

> <CNNscore>
0.1894193292

> <CNNaffinity>
6.6900162697

> <CNN_VS>
1.2672183514

> <CNNaffinity_variance>
0.1387047321

$$$$
[H]c1c([H])c([H])c(C(=O)N(C([H])([H])[H])[C@]2([H])C([H])([H])[C@]3([H])O[C@](C([H])([H])[H])(n4c5c([H])c([H])c([H])c([H])c5c5c6c(c7c8c([H])c([H])c([H])c([H])c8n3c7c54)C(=O)N([H])C6([H])[H])[C@]2([H])OC([H])([H])[H])c([H])c1[H]


 44 52  0  0  0  0  0  0  0  0999 V2000
   45.2804   15.6800  -10.3904 C   0  0  0  0  0  0  0  0  0  0  0  0
   44.7340   14.3041  -10.8720 C   0  0  0  0  0  0  0  0  0  0  0  0
   43.5999   13.7654   -9.9311 C   0  0  0  0  0  0  0  0  0  0  0  0
   43.6891   14.6210   -8.8644 C   0  0  0  0  0  0  0  0  0  0  0  0
   44.9997   14.5688   -8.4190 O   0  0  0  0  0  0  0  0  0  0  0  0
   45.6437   15.7098   -8.9859 C   0  0  0  0  0  0  0  0  0  0  0  0
   47.1345   15.3022   -8.7561 C   0  0  0  0  0  0  0  0  0  0  0  0
   45.3066   16.7785   -8.0724 N   0  0  0  0  0  0  0  0  0  0  0  0
   46.0858   17.8620   -7.8370 C   0  0  0  0  0  0  0  0  0  0  0  0
   47.2491   18.3713   -8.3809 C   0  0  0  0  0  0  0  0  0  0  0  0
   47.8525   19.5176   -7.9552 C   0  0  0  0  0  0  0  0  0  0  0  0
   47.2986   20.2463   -6.9175 C   0  0  0  0  0  0  0  0  0  0  0  0
   46.1306   19.7855   -6.3315 C   0  0  0  0  0  0  0  0  0  0  0  0
   45.5586   18.6287   -6.7913 C   0  0  0  0  0  0  0  0  0  0  0  0
   44.4313   18.0047   -6.3791 C   0  0  0  0  0  0  0  0  0  0  0  0
   43.4608   18.1779   -5.3886 C   0  0  0  0  0  0  0  0  0  0  0  0
   43.3727   19.2755   -4.4086 C   0  0  0  0  0  0  0  0  0  0  0  0
   42.2101   18.9933   -3.6235 N   0  0  0  0  0  0  0  0  0  0  0  0
   41.5877   17.7657   -4.0901 C   0  0  0  0  0  0  0  0  0  0  0  0
   40.5573   17.2978   -3.5742 O   0  0  0  0  0  0  0  0  0  0  0  0
   42.3979   17.3066   -5.1768 C   0  0  0  0  0  0  0  0  0  0  0  0
   42.2642   16.1818   -5.9922 C   0  0  0  0  0  0  0  0  0  0  0  0
   41.3889   15.1604   -6.1441 C   0  0  0  0  0  0  0  0  0  0  0  0
   40.2532   14.7970   -5.4735 C   0  0  0  0  0  0  0  0  0  0  0  0
   39.5878   13.6536   -5.9214 C   0  0  0  0  0  0  0  0  0  0  0  0
   40.0192   12.8960   -6.9852 C   0  0  0  0  0  0  0  0  0  0  0  0
   41.1752   13.2638   -7.6693 C   0  0  0  0  0  0  0  0  0  0  0  0
   41.8216   14.3971   -7.2140 C   0  0  0  0  0  0  0  0  0  0  0  0
   42.9274   14.9190   -7.7142 N   0  0  0  0  0  0  0  0  0  0  0  0
   43.2309   16.0226   -6.9698 C   0  0  0  0  0  0  0  0  0  0  0  0
   44.2905   16.8991   -7.1610 C   0  0  0  0  0  0  0  0  0  0  0  0
   41.8662   19.5833   -2.8364 H   0  0  0  0  0  0  0  0  0  0  0  0
   44.3387   14.3503  -12.2274 N   0  0  0  0  0  0  0  0  0  0  0  0
   42.8545   14.5299  -12.4606 C   0  0  0  0  0  0  0  0  0  0  0  0
   45.0421   14.2247  -13.4195 C   0  0  0  0  0  0  0  0  0  0  0  0
   44.2690   14.2603  -14.4804 O   0  0  0  0  0  0  0  0  0  0  0  0
   46.4215   14.0625  -13.7668 C   0  0  0  0  0  0  0  0  0  0  0  0
   46.9320   12.9663  -14.4047 C   0  0  0  0  0  0  0  0  0  0  0  0
   48.2942   12.9167  -14.7650 C   0  0  0  0  0  0  0  0  0  0  0  0
   49.1519   13.9496  -14.4932 C   0  0  0  0  0  0  0  0  0  0  0  0
   48.6686   15.0478  -13.8590 C   0  0  0  0  0  0  0  0  0  0  0  0
   47.3500   15.0965  -13.5108 C   0  0  0  0  0  0  0  0  0  0  0  0
   45.6009   17.6673  -11.5896 C   0  0  0  0  0  0  0  0  0  0  0  0
   44.7414   16.7637  -11.0023 O   0  0  0  0  0  0  0  0  0  0  0  0
 43 44  1  0  0  0
 44  1  1  0  0  0
  1  2  1  0  0  0
  2  3  1  0  0  0
  3  4  1  0  0  0
  4  5  1  0  0  0
  5  6  1  0  0  0
  6  7  1  0  0  0
  6  8  1  0  0  0
  8  9  1  0  0  0
  9 10  2  0  0  0
 10 11  1  0  0  0
 11 12  2  0  0  0
 12 13  1  0  0  0
 13 14  2  0  0  0
 14 15  1  0  0  0
 15 16  2  0  0  0
 16 17  1  0  0  0
 17 18  1  0  0  0
 18 19  1  0  0  0
 19 20  2  0  0  0
 19 21  1  0  0  0
 21 22  2  0  0  0
 22 23  1  0  0  0
 23 24  2  0  0  0
 24 25  1  0  0  0
 25 26  2  0  0  0
 26 27  1  0  0  0
 27 28  2  0  0  0
 28 29  1  0  0  0
 29 30  1  0  0  0
 30 31  2  0  0  0
  2 33  1  0  0  0
 33 34  1  0  0  0
 33 35  1  0  0  0
 35 36  2  0  0  0
 35 37  1  0  0  0
 37 38  2  0  0  0
 38 39  1  0  0  0
 39 40  2  0  0  0
 40 41  1  0  0  0
 41 42  2  0  0  0
  6  1  1  0  0  0
 31  8  1  0  0  0
 42 37  1  0  0  0
 29  4  1  0  0  0
 14  9  1  0  0  0
 31 15  1  0  0  0
 21 16  1  0  0  0
 30 22  1  0  0  0
 28 23  1  0  0  0
 18 32  1  0  0  0
M  END
> <minimizedAffinity>
-5.57775

> <CNNscore>
0.1289741248

> <CNNaffinity>
5.7801213264

> <CNN_VS>
0.7454860806

> <CNNaffinity_variance>
0.0726615563

$$$$
[H]c1c([H])c([H])c(C(=O)N(C([H])([H])[H])[C@]2([H])C([H])([H])[C@]3([H])O[C@](C([H])([H])[H])(n4c5c([H])c([H])c([H])c([H])c5c5c6c(c7c8c([H])c([H])c([H])c([H])c8n3c7c54)C(=O)N([H])C6([H])[H])[C@]2([H])OC([H])([H])[H])c([H])c1[H]


 44 52  0  0  0  0  0  0  0  0999 V2000
   43.5414   15.9591  -11.3063 C   0  0  0  0  0  0  0  0  0  0  0  0
   42.2055   15.3066  -10.8444 C   0  0  0  0  0  0  0  0  0  0  0  0
   41.8924   15.6216   -9.3397 C   0  0  0  0  0  0  0  0  0  0  0  0
   43.0753   16.1670   -8.9142 C   0  0  0  0  0  0  0  0  0  0  0  0
   44.0676   15.2456   -9.2053 O   0  0  0  0  0  0  0  0  0  0  0  0
   44.6621   15.6933  -10.4237 C   0  0  0  0  0  0  0  0  0  0  0  0
   45.4307   14.3936  -10.8255 C   0  0  0  0  0  0  0  0  0  0  0  0
   45.6196   16.6856   -9.9894 N   0  0  0  0  0  0  0  0  0  0  0  0
   46.7746   16.9734  -10.6372 C   0  0  0  0  0  0  0  0  0  0  0  0
   47.3436   16.6036  -11.8405 C   0  0  0  0  0  0  0  0  0  0  0  0
   48.5552   17.0483  -12.2804 C   0  0  0  0  0  0  0  0  0  0  0  0
   49.2929   17.9253  -11.5051 C   0  0  0  0  0  0  0  0  0  0  0  0
   48.7738   18.3332  -10.2869 C   0  0  0  0  0  0  0  0  0  0  0  0
   47.5524   17.8610   -9.8845 C   0  0  0  0  0  0  0  0  0  0  0  0
   46.8589   18.1256   -8.7534 C   0  0  0  0  0  0  0  0  0  0  0  0
   47.0421   18.8638   -7.5811 C   0  0  0  0  0  0  0  0  0  0  0  0
   48.1969   19.7108   -7.2318 C   0  0  0  0  0  0  0  0  0  0  0  0
   47.9021   20.2421   -5.9362 N   0  0  0  0  0  0  0  0  0  0  0  0
   46.6110   19.7504   -5.4852 C   0  0  0  0  0  0  0  0  0  0  0  0
   46.1201   20.0643   -4.3865 O   0  0  0  0  0  0  0  0  0  0  0  0
   46.1265   18.9074   -6.5353 C   0  0  0  0  0  0  0  0  0  0  0  0
   44.9390   18.1813   -6.6369 C   0  0  0  0  0  0  0  0  0  0  0  0
   43.8163   18.0006   -5.9024 C   0  0  0  0  0  0  0  0  0  0  0  0
   43.4205   18.4572   -4.6750 C   0  0  0  0  0  0  0  0  0  0  0  0
   42.1614   18.0564   -4.2224 C   0  0  0  0  0  0  0  0  0  0  0  0
   41.3233   17.2397   -4.9449 C   0  0  0  0  0  0  0  0  0  0  0  0
   41.7240   16.7735   -6.1947 C   0  0  0  0  0  0  0  0  0  0  0  0
   42.9719   17.1790   -6.6279 C   0  0  0  0  0  0  0  0  0  0  0  0
   43.5434   16.8552   -7.7743 N   0  0  0  0  0  0  0  0  0  0  0  0
   44.7692   17.4555   -7.8032 C   0  0  0  0  0  0  0  0  0  0  0  0
   45.6990   17.4174   -8.8336 C   0  0  0  0  0  0  0  0  0  0  0  0
   48.5239   20.8848   -5.4013 H   0  0  0  0  0  0  0  0  0  0  0  0
   41.1383   15.6490  -11.7043 N   0  0  0  0  0  0  0  0  0  0  0  0
   40.1209   16.6047  -11.1206 C   0  0  0  0  0  0  0  0  0  0  0  0
   40.8010   15.2515  -12.9927 C   0  0  0  0  0  0  0  0  0  0  0  0
   39.6667   15.7652  -13.4102 O   0  0  0  0  0  0  0  0  0  0  0  0
   41.4018   14.4061  -13.9795 C   0  0  0  0  0  0  0  0  0  0  0  0
   42.7003   13.9798  -13.9420 C   0  0  0  0  0  0  0  0  0  0  0  0
   43.1931   13.0964  -14.9241 C   0  0  0  0  0  0  0  0  0  0  0  0
   42.4031   12.6359  -15.9441 C   0  0  0  0  0  0  0  0  0  0  0  0
   41.1109   13.0466  -16.0034 C   0  0  0  0  0  0  0  0  0  0  0  0
   40.6333   13.9011  -15.0525 C   0  0  0  0  0  0  0  0  0  0  0  0
   44.0679   17.3067  -13.1494 C   0  0  0  0  0  0  0  0  0  0  0  0
   43.4146   17.1483  -11.9459 O   0  0  0  0  0  0  0  0  0  0  0  0
 43 44  1  0  0  0
 44  1  1  0  0  0
  1  2  1  0  0  0
  2  3  1  0  0  0
  3  4  1  0  0  0
  4  5  1  0  0  0
  5  6  1  0  0  0
  6  7  1  0  0  0
  6  8  1  0  0  0
  8  9  1  0  0  0
  9 10  2  0  0  0
 10 11  1  0  0  0
 11 12  2  0  0  0
 12 13  1  0  0  0
 13 14  2  0  0  0
 14 15  1  0  0  0
 15 16  2  0  0  0
 16 17  1  0  0  0
 17 18  1  0  0  0
 18 19  1  0  0  0
 19 20  2  0  0  0
 19 21  1  0  0  0
 21 22  2  0  0  0
 22 23  1  0  0  0
 23 24  2  0  0  0
 24 25  1  0  0  0
 25 26  2  0  0  0
 26 27  1  0  0  0
 27 28  2  0  0  0
 28 29  1  0  0  0
 29 30  1  0  0  0
 30 31  2  0  0  0
  2 33  1  0  0  0
 33 34  1  0  0  0
 33 35  1  0  0  0
 35 36  2  0  0  0
 35 37  1  0  0  0
 37 38  2  0  0  0
 38 39  1  0  0  0
 39 40  2  0  0  0
 40 41  1  0  0  0
 41 42  2  0  0  0
  6  1  1  0  0  0
 31  8  1  0  0  0
 42 37  1  0  0  0
 29  4  1  0  0  0
 14  9  1  0  0  0
 31 15  1  0  0  0
 21 16  1  0  0  0
 30 22  1  0  0  0
 28 23  1  0  0  0
 18 32  1  0  0  0
M  END
> <minimizedAffinity>
-6.99253

> <CNNscore>
0.1180620566

> <CNNaffinity>
5.7158226967

> <CNN_VS>
0.6748217940

> <CNNaffinity_variance>
0.2712755799

$$$$
[H]c1c([H])c([H])c(C(=O)N(C([H])([H])[H])[C@]2([H])C([H])([H])[C@]3([H])O[C@](C([H])([H])[H])(n4c5c([H])c([H])c([H])c([H])c5c5c6c(c7c8c([H])c([H])c([H])c([H])c8n3c7c54)C(=O)N([H])C6([H])[H])[C@]2([H])OC([H])([H])[H])c([H])c1[H]


 44 52  0  0  0  0  0  0  0  0999 V2000
   42.8955   15.4192  -10.9061 C   0  0  0  0  0  0  0  0  0  0  0  0
   41.9212   16.2388  -10.0102 C   0  0  0  0  0  0  0  0  0  0  0  0
   40.4450   16.1675  -10.5371 C   0  0  0  0  0  0  0  0  0  0  0  0
   40.6135   15.5920  -11.7693 C   0  0  0  0  0  0  0  0  0  0  0  0
   41.5245   16.3777  -12.4559 O   0  0  0  0  0  0  0  0  0  0  0  0
   42.7815   15.7141  -12.3223 C   0  0  0  0  0  0  0  0  0  0  0  0
   43.7312   16.8755  -12.7587 C   0  0  0  0  0  0  0  0  0  0  0  0
   42.7520   14.7177  -13.3694 N   0  0  0  0  0  0  0  0  0  0  0  0
   43.8482   14.2463  -14.0120 C   0  0  0  0  0  0  0  0  0  0  0  0
   45.2135   14.3934  -13.8610 C   0  0  0  0  0  0  0  0  0  0  0  0
   46.1389   13.7921  -14.6618 C   0  0  0  0  0  0  0  0  0  0  0  0
   45.7283   12.9761  -15.7010 C   0  0  0  0  0  0  0  0  0  0  0  0
   44.3702   12.7895  -15.9023 C   0  0  0  0  0  0  0  0  0  0  0  0
   43.4756   13.4134  -15.0734 C   0  0  0  0  0  0  0  0  0  0  0  0
   42.1234   13.3701  -15.0800 C   0  0  0  0  0  0  0  0  0  0  0  0
   41.1145   12.7931  -15.8559 C   0  0  0  0  0  0  0  0  0  0  0  0
   41.2827   11.9118  -17.0254 C   0  0  0  0  0  0  0  0  0  0  0  0
   39.9560   11.5959  -17.4588 N   0  0  0  0  0  0  0  0  0  0  0  0
   38.9877   12.2516  -16.5961 C   0  0  0  0  0  0  0  0  0  0  0  0
   37.7598   12.1385  -16.7582 O   0  0  0  0  0  0  0  0  0  0  0  0
   39.7547   12.9742  -15.6278 C   0  0  0  0  0  0  0  0  0  0  0  0
   39.3419   13.7743  -14.5613 C   0  0  0  0  0  0  0  0  0  0  0  0
   38.1723   14.1494  -13.9923 C   0  0  0  0  0  0  0  0  0  0  0  0
   36.8626   13.9059  -14.3036 C   0  0  0  0  0  0  0  0  0  0  0  0
   35.8946   14.4696  -13.4693 C   0  0  0  0  0  0  0  0  0  0  0  0
   36.1989   15.2420  -12.3727 C   0  0  0  0  0  0  0  0  0  0  0  0
   37.5315   15.4914  -12.0538 C   0  0  0  0  0  0  0  0  0  0  0  0
   38.4767   14.9268  -12.8888 C   0  0  0  0  0  0  0  0  0  0  0  0
   39.7880   15.0363  -12.7702 N   0  0  0  0  0  0  0  0  0  0  0  0
   40.3507   14.3387  -13.8000 C   0  0  0  0  0  0  0  0  0  0  0  0
   41.7041   14.1533  -14.0483 C   0  0  0  0  0  0  0  0  0  0  0  0
   39.7251   10.9865  -18.2719 H   0  0  0  0  0  0  0  0  0  0  0  0
   42.0313   15.8673   -8.6518 N   0  0  0  0  0  0  0  0  0  0  0  0
   40.9733   14.9046   -8.1586 C   0  0  0  0  0  0  0  0  0  0  0  0
   42.9087   16.2405   -7.6405 C   0  0  0  0  0  0  0  0  0  0  0  0
   42.6147   15.7031   -6.4788 O   0  0  0  0  0  0  0  0  0  0  0  0
   44.0655   17.0804   -7.5650 C   0  0  0  0  0  0  0  0  0  0  0  0
   45.0324   17.1492   -8.5292 C   0  0  0  0  0  0  0  0  0  0  0  0
   46.1081   18.0517   -8.4020 C   0  0  0  0  0  0  0  0  0  0  0  0
   46.2291   18.8846   -7.3212 C   0  0  0  0  0  0  0  0  0  0  0  0
   45.2824   18.8332   -6.3502 C   0  0  0  0  0  0  0  0  0  0  0  0
   44.2406   17.9605   -6.4733 C   0  0  0  0  0  0  0  0  0  0  0  0
   44.4894   13.8384  -10.2351 C   0  0  0  0  0  0  0  0  0  0  0  0
   43.1707   14.1659  -10.4669 O   0  0  0  0  0  0  0  0  0  0  0  0
 43 44  1  0  0  0
 44  1  1  0  0  0
  1  2  1  0  0  0
  2  3  1  0  0  0
  3  4  1  0  0  0
  4  5  1  0  0  0
  5  6  1  0  0  0
  6  7  1  0  0  0
  6  8  1  0  0  0
  8  9  1  0  0  0
  9 10  2  0  0  0
 10 11  1  0  0  0
 11 12  2  0  0  0
 12 13  1  0  0  0
 13 14  2  0  0  0
 14 15  1  0  0  0
 15 16  2  0  0  0
 16 17  1  0  0  0
 17 18  1  0  0  0
 18 19  1  0  0  0
 19 20  2  0  0  0
 19 21  1  0  0  0
 21 22  2  0  0  0
 22 23  1  0  0  0
 23 24  2  0  0  0
 24 25  1  0  0  0
 25 26  2  0  0  0
 26 27  1  0  0  0
 27 28  2  0  0  0
 28 29  1  0  0  0
 29 30  1  0  0  0
 30 31  2  0  0  0
  2 33  1  0  0  0
 33 34  1  0  0  0
 33 35  1  0  0  0
 35 36  2  0  0  0
 35 37  1  0  0  0
 37 38  2  0  0  0
 38 39  1  0  0  0
 39 40  2  0  0  0
 40 41  1  0  0  0
 41 42  2  0  0  0
  6  1  1  0  0  0
 31  8  1  0  0  0
 42 37  1  0  0  0
 29  4  1  0  0  0
 14  9  1  0  0  0
 31 15  1  0  0  0
 21 16  1  0  0  0
 30 22  1  0  0  0
 28 23  1  0  0  0
 18 32  1  0  0  0
M  END
> <minimizedAffinity>
-10.60696

> <CNNscore>
0.1130756363

> <CNNaffinity>
6.5327162743

> <CNN_VS>
0.7386910319

> <CNNaffinity_variance>
0.1915241033

$$$$
[H]c1c([H])c([H])c(C(=O)N(C([H])([H])[H])[C@]2([H])C([H])([H])[C@]3([H])O[C@](C([H])([H])[H])(n4c5c([H])c([H])c([H])c([H])c5c5c6c(c7c8c([H])c([H])c([H])c([H])c8n3c7c54)C(=O)N([H])C6([H])[H])[C@]2([H])OC([H])([H])[H])c([H])c1[H]


 44 52  0  0  0  0  0  0  0  0999 V2000
   43.8825   14.8599  -11.7068 C   0  0  0  0  0  0  0  0  0  0  0  0
   43.4088   15.8599  -10.6116 C   0  0  0  0  0  0  0  0  0  0  0  0
   41.8624   16.1145  -10.6841 C   0  0  0  0  0  0  0  0  0  0  0  0
   41.5367   15.5304  -11.8802 C   0  0  0  0  0  0  0  0  0  0  0  0
   42.3489   16.1090  -12.8415 O   0  0  0  0  0  0  0  0  0  0  0  0
   43.4215   15.1886  -13.0428 C   0  0  0  0  0  0  0  0  0  0  0  0
   44.4219   16.1230  -13.7960 C   0  0  0  0  0  0  0  0  0  0  0  0
   42.8775   14.2340  -13.9825 N   0  0  0  0  0  0  0  0  0  0  0  0
   43.6122   13.5449  -14.8891 C   0  0  0  0  0  0  0  0  0  0  0  0
   44.9606   13.3925  -15.1479 C   0  0  0  0  0  0  0  0  0  0  0  0
   45.4623   12.6151  -16.1495 C   0  0  0  0  0  0  0  0  0  0  0  0
   44.6030   11.9187  -16.9808 C   0  0  0  0  0  0  0  0  0  0  0  0
   43.2382   12.0316  -16.7702 C   0  0  0  0  0  0  0  0  0  0  0  0
   42.7782   12.8240  -15.7518 C   0  0  0  0  0  0  0  0  0  0  0  0
   41.5062   13.0733  -15.3644 C   0  0  0  0  0  0  0  0  0  0  0  0
   40.2164   12.7363  -15.7834 C   0  0  0  0  0  0  0  0  0  0  0  0
   39.8449   11.8529  -16.9034 C   0  0  0  0  0  0  0  0  0  0  0  0
   38.4141   11.8353  -16.9168 N   0  0  0  0  0  0  0  0  0  0  0  0
   37.9019   12.6744  -15.8465 C   0  0  0  0  0  0  0  0  0  0  0  0
   36.6855   12.8305  -15.6400 O   0  0  0  0  0  0  0  0  0  0  0  0
   39.0532   13.2036  -15.1812 C   0  0  0  0  0  0  0  0  0  0  0  0
   39.1493   14.0615  -14.0846 C   0  0  0  0  0  0  0  0  0  0  0  0
   38.3044   14.6735  -13.2220 C   0  0  0  0  0  0  0  0  0  0  0  0
   36.9405   14.7216  -13.1274 C   0  0  0  0  0  0  0  0  0  0  0  0
   36.4011   15.4710  -12.0796 C   0  0  0  0  0  0  0  0  0  0  0  0
   37.1690   16.1470  -11.1604 C   0  0  0  0  0  0  0  0  0  0  0  0
   38.5577   16.0997  -11.2545 C   0  0  0  0  0  0  0  0  0  0  0  0
   39.0755   15.3542  -12.2965 C   0  0  0  0  0  0  0  0  0  0  0  0
   40.3562   15.1772  -12.5685 N   0  0  0  0  0  0  0  0  0  0  0  0
   40.4321   14.3865  -13.6789 C   0  0  0  0  0  0  0  0  0  0  0  0
   41.5824   13.9166  -14.2982 C   0  0  0  0  0  0  0  0  0  0  0  0
   37.8321   11.2994  -17.5950 H   0  0  0  0  0  0  0  0  0  0  0  0
   43.8333   15.4578   -9.3257 N   0  0  0  0  0  0  0  0  0  0  0  0
   42.7877   14.7472   -8.4943 C   0  0  0  0  0  0  0  0  0  0  0  0
   45.0289   15.6164   -8.6351 C   0  0  0  0  0  0  0  0  0  0  0  0
   44.9834   15.1442   -7.4105 O   0  0  0  0  0  0  0  0  0  0  0  0
   46.3083   16.1791   -8.9452 C   0  0  0  0  0  0  0  0  0  0  0  0
   47.0271   15.8856  -10.0705 C   0  0  0  0  0  0  0  0  0  0  0  0
   48.2523   16.5342  -10.3276 C   0  0  0  0  0  0  0  0  0  0  0  0
   48.7676   17.4714   -9.4717 C   0  0  0  0  0  0  0  0  0  0  0  0
   48.0728   17.7783   -8.3470 C   0  0  0  0  0  0  0  0  0  0  0  0
   46.8865   17.1512   -8.0982 C   0  0  0  0  0  0  0  0  0  0  0  0
   45.2236   12.9517  -11.4821 C   0  0  0  0  0  0  0  0  0  0  0  0
   44.0059   13.5717  -11.3007 O   0  0  0  0  0  0  0  0  0  0  0  0
 43 44  1  0  0  0
 44  1  1  0  0  0
  1  2  1  0  0  0
  2  3  1  0  0  0
  3  4  1  0  0  0
  4  5  1  0  0  0
  5  6  1  0  0  0
  6  7  1  0  0  0
  6  8  1  0  0  0
  8  9  1  0  0  0
  9 10  2  0  0  0
 10 11  1  0  0  0
 11 12  2  0  0  0
 12 13  1  0  0  0
 13 14  2  0  0  0
 14 15  1  0  0  0
 15 16  2  0  0  0
 16 17  1  0  0  0
 17 18  1  0  0  0
 18 19  1  0  0  0
 19 20  2  0  0  0
 19 21  1  0  0  0
 21 22  2  0  0  0
 22 23  1  0  0  0
 23 24  2  0  0  0
 24 25  1  0  0  0
 25 26  2  0  0  0
 26 27  1  0  0  0
 27 28  2  0  0  0
 28 29  1  0  0  0
 29 30  1  0  0  0
 30 31  2  0  0  0
  2 33  1  0  0  0
 33 34  1  0  0  0
 33 35  1  0  0  0
 35 36  2  0  0  0
 35 37  1  0  0  0
 37 38  2  0  0  0
 38 39  1  0  0  0
 39 40  2  0  0  0
 40 41  1  0  0  0
 41 42  2  0  0  0
  6  1  1  0  0  0
 31  8  1  0  0  0
 42 37  1  0  0  0
 29  4  1  0  0  0
 14  9  1  0  0  0
 31 15  1  0  0  0
 21 16  1  0  0  0
 30 22  1  0  0  0
 28 23  1  0  0  0
 18 32  1  0  0  0
M  END
> <minimizedAffinity>
-9.91787

> <CNNscore>
0.0848868266

> <CNNaffinity>
6.2435126305

> <CNN_VS>
0.5299919844

> <CNNaffinity_variance>
0.4729880691

$$$$
[H]c1c([H])c([H])c(C(=O)N(C([H])([H])[H])[C@]2([H])C([H])([H])[C@]3([H])O[C@](C([H])([H])[H])(n4c5c([H])c([H])c([H])c([H])c5c5c6c(c7c8c([H])c([H])c([H])c([H])c8n3c7c54)C(=O)N([H])C6([H])[H])[C@]2([H])OC([H])([H])[H])c([H])c1[H]


 44 52  0  0  0  0  0  0  0  0999 V2000
   42.2487   15.4751  -11.0326 C   0  0  0  0  0  0  0  0  0  0  0  0
   41.4497   16.3760  -10.0457 C   0  0  0  0  0  0  0  0  0  0  0  0
   39.9139   16.3730  -10.3665 C   0  0  0  0  0  0  0  0  0  0  0  0
   39.8826   15.7514  -11.5874 C   0  0  0  0  0  0  0  0  0  0  0  0
   40.7315   16.4625  -12.4194 O   0  0  0  0  0  0  0  0  0  0  0  0
   41.9585   15.7326  -12.4307 C   0  0  0  0  0  0  0  0  0  0  0  0
   42.8994   16.8241  -13.0346 C   0  0  0  0  0  0  0  0  0  0  0  0
   41.7345   14.7080  -13.4258 N   0  0  0  0  0  0  0  0  0  0  0  0
   42.7067   14.1554  -14.1914 C   0  0  0  0  0  0  0  0  0  0  0  0
   44.0856   14.2288  -14.2309 C   0  0  0  0  0  0  0  0  0  0  0  0
   44.8606   13.5515  -15.1253 C   0  0  0  0  0  0  0  0  0  0  0  0
   44.2701   12.7289  -16.0682 C   0  0  0  0  0  0  0  0  0  0  0  0
   42.8893   12.6141  -16.0781 C   0  0  0  0  0  0  0  0  0  0  0  0
   42.1498   13.3130  -15.1608 C   0  0  0  0  0  0  0  0  0  0  0  0
   40.8090   13.3469  -14.9841 C   0  0  0  0  0  0  0  0  0  0  0  0
   39.6749   12.8050  -15.5949 C   0  0  0  0  0  0  0  0  0  0  0  0
   39.6359   11.8801  -16.7421 C   0  0  0  0  0  0  0  0  0  0  0  0
   38.2478   11.6274  -16.9811 N   0  0  0  0  0  0  0  0  0  0  0  0
   37.4417   12.3633  -16.0216 C   0  0  0  0  0  0  0  0  0  0  0  0
   36.1989   12.3157  -16.0129 O   0  0  0  0  0  0  0  0  0  0  0  0
   38.3702   13.0703  -15.1933 C   0  0  0  0  0  0  0  0  0  0  0  0
   38.1491   13.9248  -14.1122 C   0  0  0  0  0  0  0  0  0  0  0  0
   37.0891   14.3833  -13.4060 C   0  0  0  0  0  0  0  0  0  0  0  0
   35.7383   14.2056  -13.5290 C   0  0  0  0  0  0  0  0  0  0  0  0
   34.9238   14.8488  -12.5943 C   0  0  0  0  0  0  0  0  0  0  0  0
   35.4147   15.6357  -11.5787 C   0  0  0  0  0  0  0  0  0  0  0  0
   36.7896   15.8183  -11.4514 C   0  0  0  0  0  0  0  0  0  0  0  0
   37.5813   15.1753  -12.3837 C   0  0  0  0  0  0  0  0  0  0  0  0
   38.9005   15.2134  -12.4465 N   0  0  0  0  0  0  0  0  0  0  0  0
   39.2804   14.4537  -13.5153 C   0  0  0  0  0  0  0  0  0  0  0  0
   40.5757   14.1838  -13.9359 C   0  0  0  0  0  0  0  0  0  0  0  0
   37.8767   11.0076  -17.7321 H   0  0  0  0  0  0  0  0  0  0  0  0
   41.7243   16.0404   -8.7013 N   0  0  0  0  0  0  0  0  0  0  0  0
   40.6399   15.2531   -7.9987 C   0  0  0  0  0  0  0  0  0  0  0  0
   42.7929   16.3223   -7.8585 C   0  0  0  0  0  0  0  0  0  0  0  0
   42.6188   15.8723   -6.6371 O   0  0  0  0  0  0  0  0  0  0  0  0
   44.0482   16.9942   -8.0082 C   0  0  0  0  0  0  0  0  0  0  0  0
   44.7969   16.9830   -9.1521 C   0  0  0  0  0  0  0  0  0  0  0  0
   45.9931   17.7249   -9.2328 C   0  0  0  0  0  0  0  0  0  0  0  0
   46.4500   18.4763   -8.1824 C   0  0  0  0  0  0  0  0  0  0  0  0
   45.7247   18.5017   -7.0357 C   0  0  0  0  0  0  0  0  0  0  0  0
   44.5664   17.7844   -6.9575 C   0  0  0  0  0  0  0  0  0  0  0  0
   43.8250   13.7936  -10.6107 C   0  0  0  0  0  0  0  0  0  0  0  0
   42.5150   14.2221  -10.5870 O   0  0  0  0  0  0  0  0  0  0  0  0
 43 44  1  0  0  0
 44  1  1  0  0  0
  1  2  1  0  0  0
  2  3  1  0  0  0
  3  4  1  0  0  0
  4  5  1  0  0  0
  5  6  1  0  0  0
  6  7  1  0  0  0
  6  8  1  0  0  0
  8  9  1  0  0  0
  9 10  2  0  0  0
 10 11  1  0  0  0
 11 12  2  0  0  0
 12 13  1  0  0  0
 13 14  2  0  0  0
 14 15  1  0  0  0
 15 16  2  0  0  0
 16 17  1  0  0  0
 17 18  1  0  0  0
 18 19  1  0  0  0
 19 20  2  0  0  0
 19 21  1  0  0  0
 21 22  2  0  0  0
 22 23  1  0  0  0
 23 24  2  0  0  0
 24 25  1  0  0  0
 25 26  2  0  0  0
 26 27  1  0  0  0
 27 28  2  0  0  0
 28 29  1  0  0  0
 29 30  1  0  0  0
 30 31  2  0  0  0
  2 33  1  0  0  0
 33 34  1  0  0  0
 33 35  1  0  0  0
 35 36  2  0  0  0
 35 37  1  0  0  0
 37 38  2  0  0  0
 38 39  1  0  0  0
 39 40  2  0  0  0
 40 41  1  0  0  0
 41 42  2  0  0  0
  6  1  1  0  0  0
 31  8  1  0  0  0
 42 37  1  0  0  0
 29  4  1  0  0  0
 14  9  1  0  0  0
 31 15  1  0  0  0
 21 16  1  0  0  0
 30 22  1  0  0  0
 28 23  1  0  0  0
 18 32  1  0  0  0
M  END
> <minimizedAffinity>
-10.98168

> <CNNscore>
0.0659509376

> <CNNaffinity>
6.2964315414

> <CNN_VS>
0.4152555764

> <CNNaffinity_variance>
0.4273799360

$$$$
[H]N=C(N([H])[H])N([H])C([H])([H])C([H])([H])C([H])([H])[C@@]([H])(C(=O)c1nc2c([H])c([H])c([H])c([H])c2s1)N([H])C(=O)[C@@]1([H])N(C(=O)[C@@]([H])(N([H])C(=O)OC([H])([H])c2c([H])c([H])c([H])c([H])c2[H])C([H])([H])c2c([H])c([H])c([H])c([H])c2[H])C([H])([H])C([H])([H])C1([H])[H]


 54 58  0  0  0  0  0  0  0  0999 V2000
   35.2777   14.9368  -10.5128 N   0  0  0  0  0  0  0  0  0  0  0  0
   35.5150   15.3763  -11.8290 C   0  0  0  0  0  0  0  0  0  0  0  0
   36.1242   16.5300  -11.8793 O   0  0  0  0  0  0  0  0  0  0  0  0
   34.8199   14.0408  -10.2577 H   0  0  0  0  0  0  0  0  0  0  0  0
   35.1857   14.7194  -13.0243 C   0  0  0  0  0  0  0  0  0  0  0  0
   34.0254   13.7320  -13.0351 C   0  0  0  0  0  0  0  0  0  0  0  0
   33.9334   13.5375  -14.5622 C   0  0  0  0  0  0  0  0  0  0  0  0
   35.2892   14.0087  -15.1282 C   0  0  0  0  0  0  0  0  0  0  0  0
   36.0909   14.0087  -13.8712 N   0  0  0  0  0  0  0  0  0  0  0  0
   37.2732   13.3235  -13.6779 C   0  0  0  0  0  0  0  0  0  0  0  0
   37.5245   13.0765  -12.4055 O   0  0  0  0  0  0  0  0  0  0  0  0
   38.3215   12.8075  -14.5452 C   0  0  0  0  0  0  0  0  0  0  0  0
   39.6603   13.1561  -14.0874 N   0  0  0  0  0  0  0  0  0  0  0  0
   40.1931   14.4545  -14.1966 C   0  0  0  0  0  0  0  0  0  0  0  0
   39.5616   15.4254  -14.6951 O   0  0  0  0  0  0  0  0  0  0  0  0
   40.2333   12.4041  -13.6685 H   0  0  0  0  0  0  0  0  0  0  0  0
   41.4788   14.6851  -13.7328 O   0  0  0  0  0  0  0  0  0  0  0  0
   42.3991   13.7197  -13.3651 C   0  0  0  0  0  0  0  0  0  0  0  0
   43.4017   13.3415  -14.3752 C   0  0  0  0  0  0  0  0  0  0  0  0
   42.9982   12.7709  -15.5908 C   0  0  0  0  0  0  0  0  0  0  0  0
   43.9155   12.4107  -16.5472 C   0  0  0  0  0  0  0  0  0  0  0  0
   45.2648   12.6039  -16.3318 C   0  0  0  0  0  0  0  0  0  0  0  0
   45.6706   13.1659  -15.1365 C   0  0  0  0  0  0  0  0  0  0  0  0
   44.7401   13.5276  -14.1743 C   0  0  0  0  0  0  0  0  0  0  0  0
   38.2488   11.4372  -15.0953 C   0  0  0  0  0  0  0  0  0  0  0  0
   38.7058   11.4114  -16.5451 C   0  0  0  0  0  0  0  0  0  0  0  0
   37.9083   10.8341  -17.5096 C   0  0  0  0  0  0  0  0  0  0  0  0
   38.3413   10.8232  -18.8178 C   0  0  0  0  0  0  0  0  0  0  0  0
   39.5450   11.3679  -19.2072 C   0  0  0  0  0  0  0  0  0  0  0  0
   40.3452   11.9470  -18.2409 C   0  0  0  0  0  0  0  0  0  0  0  0
   39.9068   11.9538  -16.9384 C   0  0  0  0  0  0  0  0  0  0  0  0
   35.7184   15.7236   -9.3538 C   0  0  0  0  0  0  0  0  0  0  0  0
   36.7108   14.9786   -8.5624 C   0  0  0  0  0  0  0  0  0  0  0  0
   36.3757   14.0270   -7.7805 O   0  0  0  0  0  0  0  0  0  0  0  0
   38.1435   15.2678   -8.6146 C   0  0  0  0  0  0  0  0  0  0  0  0
   38.9135   15.5311   -9.6480 N   0  0  0  0  0  0  0  0  0  0  0  0
   40.1843   15.7520   -9.4973 C   0  0  0  0  0  0  0  0  0  0  0  0
   41.1113   16.0381  -10.5212 C   0  0  0  0  0  0  0  0  0  0  0  0
   42.4166   16.2439  -10.2140 C   0  0  0  0  0  0  0  0  0  0  0  0
   42.9387   16.1962   -8.9418 C   0  0  0  0  0  0  0  0  0  0  0  0
   42.0442   15.9175   -7.9354 C   0  0  0  0  0  0  0  0  0  0  0  0
   40.6867   15.6998   -8.2201 C   0  0  0  0  0  0  0  0  0  0  0  0
   39.2855   15.3340   -7.3164 S   0  0  0  0  0  0  0  0  0  0  0  0
   34.5905   16.2996   -8.5548 C   0  0  0  0  0  0  0  0  0  0  0  0
   33.2096   15.9963   -9.0138 C   0  0  0  0  0  0  0  0  0  0  0  0
   32.5679   15.1744   -7.8892 C   0  0  0  0  0  0  0  0  0  0  0  0
   31.4776   14.3599   -8.3285 N   0  0  0  0  0  0  0  0  0  0  0  0
   31.3469   13.3712   -7.9481 H   0  0  0  0  0  0  0  0  0  0  0  0
   30.4663   14.3970  -10.6235 N   0  0  0  0  0  0  0  0  0  0  0  0
   30.4999   14.7608   -9.2777 C   0  0  0  0  0  0  0  0  0  0  0  0
   29.5615   15.5378   -8.8212 N   0  0  0  0  0  0  0  0  0  0  0  0
   29.6485   14.5875  -11.2133 H   0  0  0  0  0  0  0  0  0  0  0  0
   31.2878   13.9144  -11.0549 H   0  0  0  0  0  0  0  0  0  0  0  0
   29.5303   15.8400   -7.8429 H   0  0  0  0  0  0  0  0  0  0  0  0
 49 50  1  0  0  0
 50 51  2  0  0  0
 50 47  1  0  0  0
 47 46  1  0  0  0
 46 45  1  0  0  0
 45 44  1  0  0  0
 44 32  1  0  0  0
 32  1  1  0  0  0
  1  2  1  0  0  0
  2  3  2  0  0  0
  2  5  1  0  0  0
  5  6  1  0  0  0
  6  7  1  0  0  0
  7  8  1  0  0  0
  8  9  1  0  0  0
  9 10  1  0  0  0
 10 11  2  0  0  0
 10 12  1  0  0  0
 12 25  1  0  0  0
 25 26  1  0  0  0
 26 27  2  0  0  0
 27 28  1  0  0  0
 28 29  2  0  0  0
 29 30  1  0  0  0
 30 31  2  0  0  0
 12 13  1  0  0  0
 13 14  1  0  0  0
 14 15  2  0  0  0
 14 17  1  0  0  0
 17 18  1  0  0  0
 18 19  1  0  0  0
 19 20  2  0  0  0
 20 21  1  0  0  0
 21 22  2  0  0  0
 22 23  1  0  0  0
 23 24  2  0  0  0
 32 33  1  0  0  0
 33 34  2  0  0  0
 33 35  1  0  0  0
 35 36  2  0  0  0
 36 37  1  0  0  0
 37 38  2  0  0  0
 38 39  1  0  0  0
 39 40  2  0  0  0
 40 41  1  0  0  0
 41 42  2  0  0  0
 42 43  1  0  0  0
  9  5  1  0  0  0
 31 26  1  0  0  0
 24 19  1  0  0  0
 43 35  1  0  0  0
 42 37  1  0  0  0
 49 52  1  0  0  0
 49 53  1  0  0  0
 51 54  1  0  0  0
 47 48  1  0  0  0
  1  4  1  0  0  0
 13 16  1  0  0  0
M  END
> <minimizedAffinity>
-9.33767

> <CNNscore>
0.5269603133

> <CNNaffinity>
7.8119721413

> <CNN_VS>
4.1165990829

> <CNNaffinity_variance>
0.2590592206

$$$$
[H]N=C(N([H])[H])N([H])C([H])([H])C([H])([H])C([H])([H])[C@@]([H])(C(=O)c1nc2c([H])c([H])c([H])c([H])c2s1)N([H])C(=O)[C@@]1([H])N(C(=O)[C@@]([H])(N([H])C(=O)OC([H])([H])c2c([H])c([H])c([H])c([H])c2[H])C([H])([H])c2c([H])c([H])c([H])c([H])c2[H])C([H])([H])C([H])([H])C1([H])[H]


 54 58  0  0  0  0  0  0  0  0999 V2000
   42.3025   15.7781  -11.4976 N   0  0  0  0  0  0  0  0  0  0  0  0
   41.0231   16.3650  -11.4711 C   0  0  0  0  0  0  0  0  0  0  0  0
   40.6274   16.7786  -12.6446 O   0  0  0  0  0  0  0  0  0  0  0  0
   42.7898   15.3750  -10.6745 H   0  0  0  0  0  0  0  0  0  0  0  0
   40.1771   16.5265  -10.3633 C   0  0  0  0  0  0  0  0  0  0  0  0
   40.5716   15.9052   -9.0294 C   0  0  0  0  0  0  0  0  0  0  0  0
   39.4998   16.5899   -8.1572 C   0  0  0  0  0  0  0  0  0  0  0  0
   38.4057   17.0681   -9.1342 C   0  0  0  0  0  0  0  0  0  0  0  0
   38.7745   16.2561  -10.3290 N   0  0  0  0  0  0  0  0  0  0  0  0
   37.9302   15.3967  -11.0023 C   0  0  0  0  0  0  0  0  0  0  0  0
   38.5750   14.4612  -11.6747 O   0  0  0  0  0  0  0  0  0  0  0  0
   36.4883   15.2748  -11.1555 C   0  0  0  0  0  0  0  0  0  0  0  0
   35.7496   15.7958  -10.0126 N   0  0  0  0  0  0  0  0  0  0  0  0
   35.6509   15.1098   -8.7872 C   0  0  0  0  0  0  0  0  0  0  0  0
   36.1921   13.9916   -8.5710 O   0  0  0  0  0  0  0  0  0  0  0  0
   35.2797   16.7103  -10.1234 H   0  0  0  0  0  0  0  0  0  0  0  0
   34.9229   15.6889   -7.7596 O   0  0  0  0  0  0  0  0  0  0  0  0
   33.9099   15.0850   -7.0362 C   0  0  0  0  0  0  0  0  0  0  0  0
   32.5900   15.7371   -7.0733 C   0  0  0  0  0  0  0  0  0  0  0  0
   31.7812   15.7586   -5.9282 C   0  0  0  0  0  0  0  0  0  0  0  0
   30.5471   16.3609   -5.9396 C   0  0  0  0  0  0  0  0  0  0  0  0
   30.0721   16.9633   -7.0867 C   0  0  0  0  0  0  0  0  0  0  0  0
   30.8633   16.9468   -8.2194 C   0  0  0  0  0  0  0  0  0  0  0  0
   32.1085   16.3370   -8.2022 C   0  0  0  0  0  0  0  0  0  0  0  0
   35.8309   15.5815  -12.4437 C   0  0  0  0  0  0  0  0  0  0  0  0
   35.6137   14.3143  -13.2552 C   0  0  0  0  0  0  0  0  0  0  0  0
   35.6103   14.3693  -14.6324 C   0  0  0  0  0  0  0  0  0  0  0  0
   35.4132   13.2083  -15.3481 C   0  0  0  0  0  0  0  0  0  0  0  0
   35.2180   11.9861  -14.7437 C   0  0  0  0  0  0  0  0  0  0  0  0
   35.2213   11.9301  -13.3631 C   0  0  0  0  0  0  0  0  0  0  0  0
   35.4182   13.0920  -12.6561 C   0  0  0  0  0  0  0  0  0  0  0  0
   43.0561   15.6458  -12.7510 C   0  0  0  0  0  0  0  0  0  0  0  0
   43.1410   14.2357  -13.1641 C   0  0  0  0  0  0  0  0  0  0  0  0
   43.9508   13.4173  -12.6130 O   0  0  0  0  0  0  0  0  0  0  0  0
   42.3087   13.6702  -14.2254 C   0  0  0  0  0  0  0  0  0  0  0  0
   41.0122   13.4499  -14.2532 N   0  0  0  0  0  0  0  0  0  0  0  0
   40.4451   12.9200  -15.2944 C   0  0  0  0  0  0  0  0  0  0  0  0
   39.0728   12.6303  -15.4435 C   0  0  0  0  0  0  0  0  0  0  0  0
   38.6206   12.0694  -16.5930 C   0  0  0  0  0  0  0  0  0  0  0  0
   39.4127   11.7443  -17.6702 C   0  0  0  0  0  0  0  0  0  0  0  0
   40.7528   12.0217  -17.5359 C   0  0  0  0  0  0  0  0  0  0  0  0
   41.2524   12.6021  -16.3592 C   0  0  0  0  0  0  0  0  0  0  0  0
   42.7837   13.0914  -15.7852 S   0  0  0  0  0  0  0  0  0  0  0  0
   44.3655   16.3724  -12.7442 C   0  0  0  0  0  0  0  0  0  0  0  0
   44.3424   17.8158  -13.0984 C   0  0  0  0  0  0  0  0  0  0  0  0
   45.7805   18.1703  -13.4960 C   0  0  0  0  0  0  0  0  0  0  0  0
   46.4016   19.1087  -12.6135 N   0  0  0  0  0  0  0  0  0  0  0  0
   45.8817   19.4809  -11.7588 H   0  0  0  0  0  0  0  0  0  0  0  0
   48.7525   19.0179  -13.4832 N   0  0  0  0  0  0  0  0  0  0  0  0
   47.7150   19.6246  -12.7759 C   0  0  0  0  0  0  0  0  0  0  0  0
   47.9418   20.7700  -12.2020 N   0  0  0  0  0  0  0  0  0  0  0  0
   49.6232   19.5170  -13.6974 H   0  0  0  0  0  0  0  0  0  0  0  0
   48.6528   18.0302  -13.8122 H   0  0  0  0  0  0  0  0  0  0  0  0
   47.2214   21.2660  -11.6688 H   0  0  0  0  0  0  0  0  0  0  0  0
 49 50  1  0  0  0
 50 51  2  0  0  0
 50 47  1  0  0  0
 47 46  1  0  0  0
 46 45  1  0  0  0
 45 44  1  0  0  0
 44 32  1  0  0  0
 32  1  1  0  0  0
  1  2  1  0  0  0
  2  3  2  0  0  0
  2  5  1  0  0  0
  5  6  1  0  0  0
  6  7  1  0  0  0
  7  8  1  0  0  0
  8  9  1  0  0  0
  9 10  1  0  0  0
 10 11  2  0  0  0
 10 12  1  0  0  0
 12 25  1  0  0  0
 25 26  1  0  0  0
 26 27  2  0  0  0
 27 28  1  0  0  0
 28 29  2  0  0  0
 29 30  1  0  0  0
 30 31  2  0  0  0
 12 13  1  0  0  0
 13 14  1  0  0  0
 14 15  2  0  0  0
 14 17  1  0  0  0
 17 18  1  0  0  0
 18 19  1  0  0  0
 19 20  2  0  0  0
 20 21  1  0  0  0
 21 22  2  0  0  0
 22 23  1  0  0  0
 23 24  2  0  0  0
 32 33  1  0  0  0
 33 34  2  0  0  0
 33 35  1  0  0  0
 35 36  2  0  0  0
 36 37  1  0  0  0
 37 38  2  0  0  0
 38 39  1  0  0  0
 39 40  2  0  0  0
 40 41  1  0  0  0
 41 42  2  0  0  0
 42 43  1  0  0  0
  9  5  1  0  0  0
 31 26  1  0  0  0
 24 19  1  0  0  0
 43 35  1  0  0  0
 42 37  1  0  0  0
 49 52  1  0  0  0
 49 53  1  0  0  0
 51 54  1  0  0  0
 47 48  1  0  0  0
  1  4  1  0  0  0
 13 16  1  0  0  0
M  END
> <minimizedAffinity>
-8.49950

> <CNNscore>
0.4273295999

> <CNNaffinity>
7.3445777893

> <CNN_VS>
3.1385555267

> <CNNaffinity_variance>
0.1809758693

$$$$
[H]N=C(N([H])[H])N([H])C([H])([H])C([H])([H])C([H])([H])[C@@]([H])(C(=O)c1nc2c([H])c([H])c([H])c([H])c2s1)N([H])C(=O)[C@@]1([H])N(C(=O)[C@@]([H])(N([H])C(=O)OC([H])([H])c2c([H])c([H])c([H])c([H])c2[H])C([H])([H])c2c([H])c([H])c([H])c([H])c2[H])C([H])([H])C([H])([H])C1([H])[H]


 54 58  0  0  0  0  0  0  0  0999 V2000
   38.0248   16.0441  -11.3960 N   0  0  0  0  0  0  0  0  0  0  0  0
   37.7977   15.7780  -10.0324 C   0  0  0  0  0  0  0  0  0  0  0  0
   37.5129   14.5255   -9.7978 O   0  0  0  0  0  0  0  0  0  0  0  0
   38.2779   16.9714  -11.7875 H   0  0  0  0  0  0  0  0  0  0  0  0
   37.8575   16.6823   -8.9612 C   0  0  0  0  0  0  0  0  0  0  0  0
   38.0792   18.1620   -9.2485 C   0  0  0  0  0  0  0  0  0  0  0  0
   37.7920   18.6936   -7.8296 C   0  0  0  0  0  0  0  0  0  0  0  0
   37.9421   17.4806   -6.8881 C   0  0  0  0  0  0  0  0  0  0  0  0
   38.6773   16.5559   -7.7978 N   0  0  0  0  0  0  0  0  0  0  0  0
   39.8891   15.9572   -7.5189 C   0  0  0  0  0  0  0  0  0  0  0  0
   40.5529   15.6054   -8.6046 O   0  0  0  0  0  0  0  0  0  0  0  0
   40.6159   15.6124   -6.3063 C   0  0  0  0  0  0  0  0  0  0  0  0
   41.0170   14.2122   -6.2634 N   0  0  0  0  0  0  0  0  0  0  0  0
   40.2694   13.2213   -5.5992 C   0  0  0  0  0  0  0  0  0  0  0  0
   39.1914   13.4563   -4.9887 O   0  0  0  0  0  0  0  0  0  0  0  0
   41.8944   13.9511   -6.7445 H   0  0  0  0  0  0  0  0  0  0  0  0
   40.7364   11.9164   -5.6143 O   0  0  0  0  0  0  0  0  0  0  0  0
   41.6053   11.3500   -4.6988 C   0  0  0  0  0  0  0  0  0  0  0  0
   43.0061   11.1920   -5.1250 C   0  0  0  0  0  0  0  0  0  0  0  0
   43.9902   10.8292   -4.1944 C   0  0  0  0  0  0  0  0  0  0  0  0
   45.3023   10.6760   -4.5693 C   0  0  0  0  0  0  0  0  0  0  0  0
   45.6845   10.8767   -5.8800 C   0  0  0  0  0  0  0  0  0  0  0  0
   44.7207   11.2341   -6.8033 C   0  0  0  0  0  0  0  0  0  0  0  0
   43.3972   11.3876   -6.4192 C   0  0  0  0  0  0  0  0  0  0  0  0
   41.6481   16.5156   -5.7545 C   0  0  0  0  0  0  0  0  0  0  0  0
   42.9661   15.7809   -5.5684 C   0  0  0  0  0  0  0  0  0  0  0  0
   43.8472   15.6673   -6.6222 C   0  0  0  0  0  0  0  0  0  0  0  0
   45.0369   14.9987   -6.4309 C   0  0  0  0  0  0  0  0  0  0  0  0
   45.3872   14.4346   -5.2241 C   0  0  0  0  0  0  0  0  0  0  0  0
   44.5045   14.5481   -4.1671 C   0  0  0  0  0  0  0  0  0  0  0  0
   43.3200   15.2160   -4.3655 C   0  0  0  0  0  0  0  0  0  0  0  0
   37.9626   14.9770  -12.4030 C   0  0  0  0  0  0  0  0  0  0  0  0
   39.1283   15.0350  -13.2995 C   0  0  0  0  0  0  0  0  0  0  0  0
   40.0701   15.8799  -13.1304 O   0  0  0  0  0  0  0  0  0  0  0  0
   39.2957   14.1344  -14.4397 C   0  0  0  0  0  0  0  0  0  0  0  0
   38.4726   13.2333  -14.9303 N   0  0  0  0  0  0  0  0  0  0  0  0
   38.8065   12.5087  -15.9551 C   0  0  0  0  0  0  0  0  0  0  0  0
   38.0189   11.5115  -16.5672 C   0  0  0  0  0  0  0  0  0  0  0  0
   38.5024   10.8280  -17.6347 C   0  0  0  0  0  0  0  0  0  0  0  0
   39.7424   11.0282  -18.1965 C   0  0  0  0  0  0  0  0  0  0  0  0
   40.5194   11.9978  -17.6076 C   0  0  0  0  0  0  0  0  0  0  0  0
   40.0482   12.7230  -16.5016 C   0  0  0  0  0  0  0  0  0  0  0  0
   40.6549   13.9619  -15.4963 S   0  0  0  0  0  0  0  0  0  0  0  0
   36.6421   14.8887  -13.1038 C   0  0  0  0  0  0  0  0  0  0  0  0
   35.7626   13.7431  -12.7520 C   0  0  0  0  0  0  0  0  0  0  0  0
   34.6146   13.7718  -13.7687 C   0  0  0  0  0  0  0  0  0  0  0  0
   33.6324   14.7736  -13.4920 N   0  0  0  0  0  0  0  0  0  0  0  0
   33.5295   15.6268  -14.1251 H   0  0  0  0  0  0  0  0  0  0  0  0
   31.4271   14.2550  -12.4153 N   0  0  0  0  0  0  0  0  0  0  0  0
   32.7333   14.7429  -12.3927 C   0  0  0  0  0  0  0  0  0  0  0  0
   33.1986   15.2195  -11.2751 N   0  0  0  0  0  0  0  0  0  0  0  0
   30.8895   14.1132  -11.5529 H   0  0  0  0  0  0  0  0  0  0  0  0
   30.9727   14.0206  -13.3277 H   0  0  0  0  0  0  0  0  0  0  0  0
   34.1494   15.5920  -11.1938 H   0  0  0  0  0  0  0  0  0  0  0  0
 49 50  1  0  0  0
 50 51  2  0  0  0
 50 47  1  0  0  0
 47 46  1  0  0  0
 46 45  1  0  0  0
 45 44  1  0  0  0
 44 32  1  0  0  0
 32  1  1  0  0  0
  1  2  1  0  0  0
  2  3  2  0  0  0
  2  5  1  0  0  0
  5  6  1  0  0  0
  6  7  1  0  0  0
  7  8  1  0  0  0
  8  9  1  0  0  0
  9 10  1  0  0  0
 10 11  2  0  0  0
 10 12  1  0  0  0
 12 25  1  0  0  0
 25 26  1  0  0  0
 26 27  2  0  0  0
 27 28  1  0  0  0
 28 29  2  0  0  0
 29 30  1  0  0  0
 30 31  2  0  0  0
 12 13  1  0  0  0
 13 14  1  0  0  0
 14 15  2  0  0  0
 14 17  1  0  0  0
 17 18  1  0  0  0
 18 19  1  0  0  0
 19 20  2  0  0  0
 20 21  1  0  0  0
 21 22  2  0  0  0
 22 23  1  0  0  0
 23 24  2  0  0  0
 32 33  1  0  0  0
 33 34  2  0  0  0
 33 35  1  0  0  0
 35 36  2  0  0  0
 36 37  1  0  0  0
 37 38  2  0  0  0
 38 39  1  0  0  0
 39 40  2  0  0  0
 40 41  1  0  0  0
 41 42  2  0  0  0
 42 43  1  0  0  0
  9  5  1  0  0  0
 31 26  1  0  0  0
 24 19  1  0  0  0
 43 35  1  0  0  0
 42 37  1  0  0  0
 49 52  1  0  0  0
 49 53  1  0  0  0
 51 54  1  0  0  0
 47 48  1  0  0  0
  1  4  1  0  0  0
 13 16  1  0  0  0
M  END
> <minimizedAffinity>
-8.47729

> <CNNscore>
0.4258670807

> <CNNaffinity>
7.2642354965

> <CNN_VS>
3.0935988426

> <CNNaffinity_variance>
0.1597650349

$$$$
[H]N=C(N([H])[H])N([H])C([H])([H])C([H])([H])C([H])([H])[C@@]([H])(C(=O)c1nc2c([H])c([H])c([H])c([H])c2s1)N([H])C(=O)[C@@]1([H])N(C(=O)[C@@]([H])(N([H])C(=O)OC([H])([H])c2c([H])c([H])c([H])c([H])c2[H])C([H])([H])c2c([H])c([H])c([H])c([H])c2[H])C([H])([H])C([H])([H])C1([H])[H]


 54 58  0  0  0  0  0  0  0  0999 V2000
   34.7403   14.9936  -10.4874 N   0  0  0  0  0  0  0  0  0  0  0  0
   35.2289   15.3322  -11.7635 C   0  0  0  0  0  0  0  0  0  0  0  0
   36.0244   16.3675  -11.7468 O   0  0  0  0  0  0  0  0  0  0  0  0
   34.1074   14.1964  -10.2844 H   0  0  0  0  0  0  0  0  0  0  0  0
   34.9636   14.6880  -12.9815 C   0  0  0  0  0  0  0  0  0  0  0  0
   33.8202   13.6840  -13.0581 C   0  0  0  0  0  0  0  0  0  0  0  0
   33.7997   13.5104  -14.5904 C   0  0  0  0  0  0  0  0  0  0  0  0
   35.1720   14.0096  -15.0882 C   0  0  0  0  0  0  0  0  0  0  0  0
   35.9166   14.0031  -13.7965 N   0  0  0  0  0  0  0  0  0  0  0  0
   37.0994   13.3325  -13.5598 C   0  0  0  0  0  0  0  0  0  0  0  0
   37.2972   13.0708  -12.2809 O   0  0  0  0  0  0  0  0  0  0  0  0
   38.1933   12.8446  -14.3861 C   0  0  0  0  0  0  0  0  0  0  0  0
   39.5052   13.1624  -13.8373 N   0  0  0  0  0  0  0  0  0  0  0  0
   40.1207   14.4178  -14.0020 C   0  0  0  0  0  0  0  0  0  0  0  0
   39.5928   15.3733  -14.6332 O   0  0  0  0  0  0  0  0  0  0  0  0
   39.9946   12.4209  -13.3082 H   0  0  0  0  0  0  0  0  0  0  0  0
   41.3724   14.6214  -13.4425 O   0  0  0  0  0  0  0  0  0  0  0  0
   42.5176   13.8962  -13.7191 C   0  0  0  0  0  0  0  0  0  0  0  0
   43.6401   14.0461  -12.7777 C   0  0  0  0  0  0  0  0  0  0  0  0
   43.7557   13.1876  -11.6751 C   0  0  0  0  0  0  0  0  0  0  0  0
   44.7940   13.3087  -10.7845 C   0  0  0  0  0  0  0  0  0  0  0  0
   45.7540   14.2850  -10.9562 C   0  0  0  0  0  0  0  0  0  0  0  0
   45.6474   15.1349  -12.0404 C   0  0  0  0  0  0  0  0  0  0  0  0
   44.5969   15.0081  -12.9365 C   0  0  0  0  0  0  0  0  0  0  0  0
   38.1444   11.4993  -14.9971 C   0  0  0  0  0  0  0  0  0  0  0  0
   38.7609   11.5138  -16.3869 C   0  0  0  0  0  0  0  0  0  0  0  0
   38.0975   10.9252  -17.4419 C   0  0  0  0  0  0  0  0  0  0  0  0
   38.6737   10.9514  -18.6933 C   0  0  0  0  0  0  0  0  0  0  0  0
   39.8926   11.5442  -18.9385 C   0  0  0  0  0  0  0  0  0  0  0  0
   40.5584   12.1346  -17.8814 C   0  0  0  0  0  0  0  0  0  0  0  0
   39.9776   12.1043  -16.6363 C   0  0  0  0  0  0  0  0  0  0  0  0
   35.1413   15.7461   -9.2918 C   0  0  0  0  0  0  0  0  0  0  0  0
   36.0875   14.9675   -8.4765 C   0  0  0  0  0  0  0  0  0  0  0  0
   35.6933   14.1064   -7.6206 O   0  0  0  0  0  0  0  0  0  0  0  0
   37.5380   15.1181   -8.5871 C   0  0  0  0  0  0  0  0  0  0  0  0
   38.2632   15.5971   -9.5745 N   0  0  0  0  0  0  0  0  0  0  0  0
   39.5587   15.6389   -9.4950 C   0  0  0  0  0  0  0  0  0  0  0  0
   40.4427   16.1213  -10.4824 C   0  0  0  0  0  0  0  0  0  0  0  0
   41.7811   16.0994  -10.2615 C   0  0  0  0  0  0  0  0  0  0  0  0
   42.3778   15.6294   -9.1141 C   0  0  0  0  0  0  0  0  0  0  0  0
   41.5256   15.1559   -8.1444 C   0  0  0  0  0  0  0  0  0  0  0  0
   40.1357   15.1650   -8.3421 C   0  0  0  0  0  0  0  0  0  0  0  0
   38.7642   14.6883   -7.4446 S   0  0  0  0  0  0  0  0  0  0  0  0
   33.9879   16.3204   -8.5285 C   0  0  0  0  0  0  0  0  0  0  0  0
   32.6283   15.8413   -8.8913 C   0  0  0  0  0  0  0  0  0  0  0  0
   32.0062   15.3271   -7.5873 C   0  0  0  0  0  0  0  0  0  0  0  0
   32.0735   13.9058   -7.4447 N   0  0  0  0  0  0  0  0  0  0  0  0
   33.0074   13.3937   -7.5149 H   0  0  0  0  0  0  0  0  0  0  0  0
   29.9245   12.7970   -8.1111 N   0  0  0  0  0  0  0  0  0  0  0  0
   30.9548   13.0626   -7.2096 C   0  0  0  0  0  0  0  0  0  0  0  0
   30.9143   12.4996   -6.0374 N   0  0  0  0  0  0  0  0  0  0  0  0
   29.2354   12.0564   -7.9394 H   0  0  0  0  0  0  0  0  0  0  0  0
   29.8422   13.3575   -8.9903 H   0  0  0  0  0  0  0  0  0  0  0  0
   31.6406   12.6543   -5.3317 H   0  0  0  0  0  0  0  0  0  0  0  0
 49 50  1  0  0  0
 50 51  2  0  0  0
 50 47  1  0  0  0
 47 46  1  0  0  0
 46 45  1  0  0  0
 45 44  1  0  0  0
 44 32  1  0  0  0
 32  1  1  0  0  0
  1  2  1  0  0  0
  2  3  2  0  0  0
  2  5  1  0  0  0
  5  6  1  0  0  0
  6  7  1  0  0  0
  7  8  1  0  0  0
  8  9  1  0  0  0
  9 10  1  0  0  0
 10 11  2  0  0  0
 10 12  1  0  0  0
 12 25  1  0  0  0
 25 26  1  0  0  0
 26 27  2  0  0  0
 27 28  1  0  0  0
 28 29  2  0  0  0
 29 30  1  0  0  0
 30 31  2  0  0  0
 12 13  1  0  0  0
 13 14  1  0  0  0
 14 15  2  0  0  0
 14 17  1  0  0  0
 17 18  1  0  0  0
 18 19  1  0  0  0
 19 20  2  0  0  0
 20 21  1  0  0  0
 21 22  2  0  0  0
 22 23  1  0  0  0
 23 24  2  0  0  0
 32 33  1  0  0  0
 33 34  2  0  0  0
 33 35  1  0  0  0
 35 36  2  0  0  0
 36 37  1  0  0  0
 37 38  2  0  0  0
 38 39  1  0  0  0
 39 40  2  0  0  0
 40 41  1  0  0  0
 41 42  2  0  0  0
 42 43  1  0  0  0
  9  5  1  0  0  0
 31 26  1  0  0  0
 24 19  1  0  0  0
 43 35  1  0  0  0
 42 37  1  0  0  0
 49 52  1  0  0  0
 49 53  1  0  0  0
 51 54  1  0  0  0
 47 48  1  0  0  0
  1  4  1  0  0  0
 13 16  1  0  0  0
M  END
> <minimizedAffinity>
-9.14257

> <CNNscore>
0.3841759264

> <CNNaffinity>
7.4327940941

> <CNN_VS>
2.8555004597

> <CNNaffinity_variance>
0.5982552767

$$$$
[H]N=C(N([H])[H])N([H])C([H])([H])C([H])([H])C([H])([H])[C@@]([H])(C(=O)c1nc2c([H])c([H])c([H])c([H])c2s1)N([H])C(=O)[C@@]1([H])N(C(=O)[C@@]([H])(N([H])C(=O)OC([H])([H])c2c([H])c([H])c([H])c([H])c2[H])C([H])([H])c2c([H])c([H])c([H])c([H])c2[H])C([H])([H])C([H])([H])C1([H])[H]


 54 58  0  0  0  0  0  0  0  0999 V2000
   35.4065   14.6893  -10.4299 N   0  0  0  0  0  0  0  0  0  0  0  0
   35.4414   15.3097  -11.6931 C   0  0  0  0  0  0  0  0  0  0  0  0
   35.8133   16.5601  -11.6371 O   0  0  0  0  0  0  0  0  0  0  0  0
   35.1513   13.6976  -10.2605 H   0  0  0  0  0  0  0  0  0  0  0  0
   35.1411   14.7364  -12.9381 C   0  0  0  0  0  0  0  0  0  0  0  0
   33.9459   13.7991  -13.0564 C   0  0  0  0  0  0  0  0  0  0  0  0
   33.9150   13.6964  -14.5948 C   0  0  0  0  0  0  0  0  0  0  0  0
   35.3116   14.1439  -15.0739 C   0  0  0  0  0  0  0  0  0  0  0  0
   36.0557   14.0393  -13.7862 N   0  0  0  0  0  0  0  0  0  0  0  0
   37.2013   13.2967  -13.5837 C   0  0  0  0  0  0  0  0  0  0  0  0
   37.3858   12.9672  -12.3186 O   0  0  0  0  0  0  0  0  0  0  0  0
   38.2670   12.7892  -14.4346 C   0  0  0  0  0  0  0  0  0  0  0  0
   39.5967   13.0984  -13.9250 N   0  0  0  0  0  0  0  0  0  0  0  0
   40.1951   14.3650  -14.0649 C   0  0  0  0  0  0  0  0  0  0  0  0
   39.6354   15.3388  -14.6380 O   0  0  0  0  0  0  0  0  0  0  0  0
   40.1123   12.3420  -13.4441 H   0  0  0  0  0  0  0  0  0  0  0  0
   41.4660   14.5590  -13.5467 O   0  0  0  0  0  0  0  0  0  0  0  0
   42.5594   13.7329  -13.7361 C   0  0  0  0  0  0  0  0  0  0  0  0
   43.7166   13.9525  -12.8521 C   0  0  0  0  0  0  0  0  0  0  0  0
   43.8767   13.1785  -11.6939 C   0  0  0  0  0  0  0  0  0  0  0  0
   44.9478   13.3657  -10.8552 C   0  0  0  0  0  0  0  0  0  0  0  0
   45.8978   14.3265  -11.1357 C   0  0  0  0  0  0  0  0  0  0  0  0
   45.7474   15.0932  -12.2753 C   0  0  0  0  0  0  0  0  0  0  0  0
   44.6638   14.9000  -13.1186 C   0  0  0  0  0  0  0  0  0  0  0  0
   38.1875   11.4386  -15.0306 C   0  0  0  0  0  0  0  0  0  0  0  0
   38.6897   11.4502  -16.4656 C   0  0  0  0  0  0  0  0  0  0  0  0
   39.9054   12.0257  -16.7663 C   0  0  0  0  0  0  0  0  0  0  0  0
   40.3419   12.0236  -18.0734 C   0  0  0  0  0  0  0  0  0  0  0  0
   39.6116   11.4677  -19.1004 C   0  0  0  0  0  0  0  0  0  0  0  0
   38.3927   10.8905  -18.7998 C   0  0  0  0  0  0  0  0  0  0  0  0
   37.9639   10.8966  -17.4942 C   0  0  0  0  0  0  0  0  0  0  0  0
   35.7878   15.4154   -9.2117 C   0  0  0  0  0  0  0  0  0  0  0  0
   36.8623   14.7087   -8.4961 C   0  0  0  0  0  0  0  0  0  0  0  0
   36.6194   13.7593   -7.6782 O   0  0  0  0  0  0  0  0  0  0  0  0
   38.2772   15.0360   -8.6693 C   0  0  0  0  0  0  0  0  0  0  0  0
   38.9034   15.5479   -9.7066 N   0  0  0  0  0  0  0  0  0  0  0  0
   40.1846   15.7583   -9.6786 C   0  0  0  0  0  0  0  0  0  0  0  0
   40.9678   16.2937  -10.7222 C   0  0  0  0  0  0  0  0  0  0  0  0
   42.3041   16.4543  -10.5515 C   0  0  0  0  0  0  0  0  0  0  0  0
   42.9919   16.1281   -9.4051 C   0  0  0  0  0  0  0  0  0  0  0  0
   42.2385   15.6046   -8.3809 C   0  0  0  0  0  0  0  0  0  0  0  0
   40.8535   15.4260   -8.5259 C   0  0  0  0  0  0  0  0  0  0  0  0
   39.5836   14.8294   -7.5538 S   0  0  0  0  0  0  0  0  0  0  0  0
   34.6227   15.8068   -8.3561 C   0  0  0  0  0  0  0  0  0  0  0  0
   34.9096   16.6400   -7.1591 C   0  0  0  0  0  0  0  0  0  0  0  0
   35.2966   18.0231   -7.6973 C   0  0  0  0  0  0  0  0  0  0  0  0
   36.6842   18.3295   -7.5376 N   0  0  0  0  0  0  0  0  0  0  0  0
   37.1922   18.1020   -6.6268 H   0  0  0  0  0  0  0  0  0  0  0  0
   38.3382   20.0390   -8.3334 N   0  0  0  0  0  0  0  0  0  0  0  0
   37.4957   18.9450   -8.5278 C   0  0  0  0  0  0  0  0  0  0  0  0
   37.4267   18.4180   -9.7153 N   0  0  0  0  0  0  0  0  0  0  0  0
   39.0156   20.3315   -9.0466 H   0  0  0  0  0  0  0  0  0  0  0  0
   38.2912   20.5826   -7.4411 H   0  0  0  0  0  0  0  0  0  0  0  0
   36.8272   17.6135   -9.9220 H   0  0  0  0  0  0  0  0  0  0  0  0
 49 50  1  0  0  0
 50 51  2  0  0  0
 50 47  1  0  0  0
 47 46  1  0  0  0
 46 45  1  0  0  0
 45 44  1  0  0  0
 44 32  1  0  0  0
 32  1  1  0  0  0
  1  2  1  0  0  0
  2  3  2  0  0  0
  2  5  1  0  0  0
  5  6  1  0  0  0
  6  7  1  0  0  0
  7  8  1  0  0  0
  8  9  1  0  0  0
  9 10  1  0  0  0
 10 11  2  0  0  0
 10 12  1  0  0  0
 12 25  1  0  0  0
 25 26  1  0  0  0
 26 27  2  0  0  0
 27 28  1  0  0  0
 28 29  2  0  0  0
 29 30  1  0  0  0
 30 31  2  0  0  0
 12 13  1  0  0  0
 13 14  1  0  0  0
 14 15  2  0  0  0
 14 17  1  0  0  0
 17 18  1  0  0  0
 18 19  1  0  0  0
 19 20  2  0  0  0
 20 21  1  0  0  0
 21 22  2  0  0  0
 22 23  1  0  0  0
 23 24  2  0  0  0
 32 33  1  0  0  0
 33 34  2  0  0  0
 33 35  1  0  0  0
 35 36  2  0  0  0
 36 37  1  0  0  0
 37 38  2  0  0  0
 38 39  1  0  0  0
 39 40  2  0  0  0
 40 41  1  0  0  0
 41 42  2  0  0  0
 42 43  1  0  0  0
  9  5  1  0  0  0
 31 26  1  0  0  0
 24 19  1  0  0  0
 43 35  1  0  0  0
 42 37  1  0  0  0
 49 52  1  0  0  0
 49 53  1  0  0  0
 51 54  1  0  0  0
 47 48  1  0  0  0
  1  4  1  0  0  0
 13 16  1  0  0  0
M  END
> <minimizedAffinity>
-8.56582

> <CNNscore>
0.2929342389

> <CNNaffinity>
7.2637887001

> <CNN_VS>
2.1278123856

> <CNNaffinity_variance>
0.8615745306

$$$$
[H]N=C(N([H])[H])N([H])C([H])([H])C([H])([H])C([H])([H])[C@@]([H])(C(=O)c1nc2c([H])c([H])c([H])c([H])c2s1)N([H])C(=O)[C@@]1([H])N(C(=O)[C@@]([H])(N([H])C(=O)OC([H])([H])c2c([H])c([H])c([H])c([H])c2[H])C([H])([H])c2c([H])c([H])c([H])c([H])c2[H])C([H])([H])C([H])([H])C1([H])[H]


 54 58  0  0  0  0  0  0  0  0999 V2000
   42.5931   15.7989  -11.7307 N   0  0  0  0  0  0  0  0  0  0  0  0
   41.3489   16.4454  -11.8577 C   0  0  0  0  0  0  0  0  0  0  0  0
   41.2362   17.1206  -12.9695 O   0  0  0  0  0  0  0  0  0  0  0  0
   42.8748   15.2021  -10.9297 H   0  0  0  0  0  0  0  0  0  0  0  0
   40.2750   16.4222  -10.9549 C   0  0  0  0  0  0  0  0  0  0  0  0
   40.4156   15.6458   -9.6517 C   0  0  0  0  0  0  0  0  0  0  0  0
   39.1357   16.1626   -8.9638 C   0  0  0  0  0  0  0  0  0  0  0  0
   38.2469   16.7205  -10.0948 C   0  0  0  0  0  0  0  0  0  0  0  0
   38.9205   16.0911  -11.2666 N   0  0  0  0  0  0  0  0  0  0  0  0
   38.3034   15.2945  -12.2097 C   0  0  0  0  0  0  0  0  0  0  0  0
   39.1420   14.4848  -12.8297 O   0  0  0  0  0  0  0  0  0  0  0  0
   36.9405   15.1337  -12.6936 C   0  0  0  0  0  0  0  0  0  0  0  0
   35.9644   15.8634  -11.8948 N   0  0  0  0  0  0  0  0  0  0  0  0
   35.4062   15.3484  -10.7094 C   0  0  0  0  0  0  0  0  0  0  0  0
   35.7019   14.2178  -10.2358 O   0  0  0  0  0  0  0  0  0  0  0  0
   35.6767   16.7989  -12.2286 H   0  0  0  0  0  0  0  0  0  0  0  0
   34.4830   16.1200  -10.0212 O   0  0  0  0  0  0  0  0  0  0  0  0
   34.1821   16.0244   -8.6742 C   0  0  0  0  0  0  0  0  0  0  0  0
   35.2038   16.5096   -7.7312 C   0  0  0  0  0  0  0  0  0  0  0  0
   35.9450   15.5996   -6.9640 C   0  0  0  0  0  0  0  0  0  0  0  0
   36.9027   16.0292   -6.0787 C   0  0  0  0  0  0  0  0  0  0  0  0
   37.1593   17.3763   -5.9233 C   0  0  0  0  0  0  0  0  0  0  0  0
   36.4334   18.2796   -6.6758 C   0  0  0  0  0  0  0  0  0  0  0  0
   35.4675   17.8401   -7.5682 C   0  0  0  0  0  0  0  0  0  0  0  0
   36.6361   15.1763  -14.1397 C   0  0  0  0  0  0  0  0  0  0  0  0
   35.8119   13.9679  -14.5547 C   0  0  0  0  0  0  0  0  0  0  0  0
   34.4685   13.9124  -14.2519 C   0  0  0  0  0  0  0  0  0  0  0  0
   33.7402   12.8084  -14.6390 C   0  0  0  0  0  0  0  0  0  0  0  0
   34.2995   11.7500  -15.3203 C   0  0  0  0  0  0  0  0  0  0  0  0
   35.6463   11.8049  -15.6243 C   0  0  0  0  0  0  0  0  0  0  0  0
   36.3662   12.9089  -15.2348 C   0  0  0  0  0  0  0  0  0  0  0  0
   43.6106   15.8870  -12.7859 C   0  0  0  0  0  0  0  0  0  0  0  0
   43.9347   14.5515  -13.3129 C   0  0  0  0  0  0  0  0  0  0  0  0
   44.9370   13.8832  -12.8910 O   0  0  0  0  0  0  0  0  0  0  0  0
   43.1378   13.8942  -14.3481 C   0  0  0  0  0  0  0  0  0  0  0  0
   41.8393   13.6943  -14.4128 N   0  0  0  0  0  0  0  0  0  0  0  0
   41.3071   13.0698  -15.4195 C   0  0  0  0  0  0  0  0  0  0  0  0
   39.9367   12.7899  -15.6010 C   0  0  0  0  0  0  0  0  0  0  0  0
   39.5234   12.1214  -16.7069 C   0  0  0  0  0  0  0  0  0  0  0  0
   40.3548   11.6736  -17.7077 C   0  0  0  0  0  0  0  0  0  0  0  0
   41.6934   11.9404  -17.5411 C   0  0  0  0  0  0  0  0  0  0  0  0
   42.1533   12.6303  -16.4080 C   0  0  0  0  0  0  0  0  0  0  0  0
   43.6681   13.1498  -15.8172 S   0  0  0  0  0  0  0  0  0  0  0  0
   44.8011   16.7118  -12.4051 C   0  0  0  0  0  0  0  0  0  0  0  0
   45.5617   17.3551  -13.5083 C   0  0  0  0  0  0  0  0  0  0  0  0
   46.0136   18.7160  -12.9643 C   0  0  0  0  0  0  0  0  0  0  0  0
   44.9298   19.5598  -12.5664 N   0  0  0  0  0  0  0  0  0  0  0  0
   44.7710   19.7958  -11.5375 H   0  0  0  0  0  0  0  0  0  0  0  0
   43.0205   19.4590  -14.1899 N   0  0  0  0  0  0  0  0  0  0  0  0
   43.9899   20.1433  -13.4573 C   0  0  0  0  0  0  0  0  0  0  0  0
   44.0633   21.4364  -13.5807 N   0  0  0  0  0  0  0  0  0  0  0  0
   42.2718   19.9537  -14.6876 H   0  0  0  0  0  0  0  0  0  0  0  0
   43.0435   18.4146  -14.2392 H   0  0  0  0  0  0  0  0  0  0  0  0
   44.7527   21.9958  -13.0697 H   0  0  0  0  0  0  0  0  0  0  0  0
 49 50  1  0  0  0
 50 51  2  0  0  0
 50 47  1  0  0  0
 47 46  1  0  0  0
 46 45  1  0  0  0
 45 44  1  0  0  0
 44 32  1  0  0  0
 32  1  1  0  0  0
  1  2  1  0  0  0
  2  3  2  0  0  0
  2  5  1  0  0  0
  5  6  1  0  0  0
  6  7  1  0  0  0
  7  8  1  0  0  0
  8  9  1  0  0  0
  9 10  1  0  0  0
 10 11  2  0  0  0
 10 12  1  0  0  0
 12 25  1  0  0  0
 25 26  1  0  0  0
 26 27  2  0  0  0
 27 28  1  0  0  0
 28 29  2  0  0  0
 29 30  1  0  0  0
 30 31  2  0  0  0
 12 13  1  0  0  0
 13 14  1  0  0  0
 14 15  2  0  0  0
 14 17  1  0  0  0
 17 18  1  0  0  0
 18 19  1  0  0  0
 19 20  2  0  0  0
 20 21  1  0  0  0
 21 22  2  0  0  0
 22 23  1  0  0  0
 23 24  2  0  0  0
 32 33  1  0  0  0
 33 34  2  0  0  0
 33 35  1  0  0  0
 35 36  2  0  0  0
 36 37  1  0  0  0
 37 38  2  0  0  0
 38 39  1  0  0  0
 39 40  2  0  0  0
 40 41  1  0  0  0
 41 42  2  0  0  0
 42 43  1  0  0  0
  9  5  1  0  0  0
 31 26  1  0  0  0
 24 19  1  0  0  0
 43 35  1  0  0  0
 42 37  1  0  0  0
 49 52  1  0  0  0
 49 53  1  0  0  0
 51 54  1  0  0  0
 47 48  1  0  0  0
  1  4  1  0  0  0
 13 16  1  0  0  0
M  END
> <minimizedAffinity>
-8.80502

> <CNNscore>
0.2577864528

> <CNNaffinity>
7.2546372414

> <CNN_VS>
1.8701472282

> <CNNaffinity_variance>
0.5206414461

$$$$
[H]N=C(N([H])[H])N([H])C([H])([H])C([H])([H])C([H])([H])[C@@]([H])(C(=O)c1nc2c([H])c([H])c([H])c([H])c2s1)N([H])C(=O)[C@@]1([H])N(C(=O)[C@@]([H])(N([H])C(=O)OC([H])([H])c2c([H])c([H])c([H])c([H])c2[H])C([H])([H])c2c([H])c([H])c([H])c([H])c2[H])C([H])([H])C([H])([H])C1([H])[H]


 54 58  0  0  0  0  0  0  0  0999 V2000
   39.4302   13.9341  -13.3504 N   0  0  0  0  0  0  0  0  0  0  0  0
   38.9402   15.0212  -12.6019 C   0  0  0  0  0  0  0  0  0  0  0  0
   39.6476   16.1075  -12.7574 O   0  0  0  0  0  0  0  0  0  0  0  0
   39.0033   12.9884  -13.3762 H   0  0  0  0  0  0  0  0  0  0  0  0
   37.8175   15.0457  -11.7606 C   0  0  0  0  0  0  0  0  0  0  0  0
   36.7878   16.1563  -11.9267 C   0  0  0  0  0  0  0  0  0  0  0  0
   35.7012   15.5709  -11.0020 C   0  0  0  0  0  0  0  0  0  0  0  0
   36.4221   14.5437  -10.1045 C   0  0  0  0  0  0  0  0  0  0  0  0
   37.8329   14.9677  -10.3340 N   0  0  0  0  0  0  0  0  0  0  0  0
   38.7314   15.3205   -9.3476 C   0  0  0  0  0  0  0  0  0  0  0  0
   39.7021   16.0993   -9.7883 O   0  0  0  0  0  0  0  0  0  0  0  0
   38.8713   15.0345   -7.9277 C   0  0  0  0  0  0  0  0  0  0  0  0
   40.1489   14.4171   -7.5959 N   0  0  0  0  0  0  0  0  0  0  0  0
   40.2622   13.3013   -6.7449 C   0  0  0  0  0  0  0  0  0  0  0  0
   39.2736   12.7394   -6.2000 O   0  0  0  0  0  0  0  0  0  0  0  0
   41.0016   14.8307   -8.0095 H   0  0  0  0  0  0  0  0  0  0  0  0
   41.5239   12.7876   -6.4892 O   0  0  0  0  0  0  0  0  0  0  0  0
   41.9625   11.5113   -6.7937 C   0  0  0  0  0  0  0  0  0  0  0  0
   42.4768   10.7031   -5.6752 C   0  0  0  0  0  0  0  0  0  0  0  0
   41.8551   10.7594   -4.4197 C   0  0  0  0  0  0  0  0  0  0  0  0
   42.3172   10.0146   -3.3626 C   0  0  0  0  0  0  0  0  0  0  0  0
   43.4117    9.1877   -3.5135 C   0  0  0  0  0  0  0  0  0  0  0  0
   44.0298    9.1264   -4.7478 C   0  0  0  0  0  0  0  0  0  0  0  0
   43.5590    9.8807   -5.8116 C   0  0  0  0  0  0  0  0  0  0  0  0
   38.4302   16.0094   -6.9077 C   0  0  0  0  0  0  0  0  0  0  0  0
   36.9655   16.3685   -7.1004 C   0  0  0  0  0  0  0  0  0  0  0  0
   36.6202   17.5769   -7.6661 C   0  0  0  0  0  0  0  0  0  0  0  0
   35.2866   17.8811   -7.8329 C   0  0  0  0  0  0  0  0  0  0  0  0
   34.2756   17.0246   -7.4565 C   0  0  0  0  0  0  0  0  0  0  0  0
   34.6209   15.8129   -6.8892 C   0  0  0  0  0  0  0  0  0  0  0  0
   35.9529   15.5166   -6.7259 C   0  0  0  0  0  0  0  0  0  0  0  0
   40.6039   14.0742  -14.2218 C   0  0  0  0  0  0  0  0  0  0  0  0
   40.3265   13.5365  -15.5635 C   0  0  0  0  0  0  0  0  0  0  0  0
   41.1621   13.6468  -16.5221 O   0  0  0  0  0  0  0  0  0  0  0  0
   39.0850   12.8385  -15.8955 C   0  0  0  0  0  0  0  0  0  0  0  0
   37.8661   13.0213  -15.4361 N   0  0  0  0  0  0  0  0  0  0  0  0
   36.8785   12.2841  -15.8455 C   0  0  0  0  0  0  0  0  0  0  0  0
   35.5347   12.3775  -15.4271 C   0  0  0  0  0  0  0  0  0  0  0  0
   34.6058   11.5327  -15.9409 C   0  0  0  0  0  0  0  0  0  0  0  0
   34.8675   10.5530  -16.8710 C   0  0  0  0  0  0  0  0  0  0  0  0
   36.1745   10.4522  -17.2859 C   0  0  0  0  0  0  0  0  0  0  0  0
   37.1596   11.3115  -16.7736 C   0  0  0  0  0  0  0  0  0  0  0  0
   38.8384   11.5261  -16.9958 S   0  0  0  0  0  0  0  0  0  0  0  0
   41.8742   13.5786  -13.6029 C   0  0  0  0  0  0  0  0  0  0  0  0
   43.0261   14.5176  -13.5735 C   0  0  0  0  0  0  0  0  0  0  0  0
   44.2700   13.6594  -13.8350 C   0  0  0  0  0  0  0  0  0  0  0  0
   44.8581   13.8836  -15.1191 N   0  0  0  0  0  0  0  0  0  0  0  0
   45.3701   14.7954  -15.3333 H   0  0  0  0  0  0  0  0  0  0  0  0
   43.6819   12.3328  -16.7012 N   0  0  0  0  0  0  0  0  0  0  0  0
   44.8210   12.9604  -16.1980 C   0  0  0  0  0  0  0  0  0  0  0  0
   45.9699   12.6955  -16.7482 N   0  0  0  0  0  0  0  0  0  0  0  0
   43.7013   11.8047  -17.5809 H   0  0  0  0  0  0  0  0  0  0  0  0
   42.7772   12.3964  -16.1804 H   0  0  0  0  0  0  0  0  0  0  0  0
   46.8423   13.1241  -16.4247 H   0  0  0  0  0  0  0  0  0  0  0  0
 49 50  1  0  0  0
 50 51  2  0  0  0
 50 47  1  0  0  0
 47 46  1  0  0  0
 46 45  1  0  0  0
 45 44  1  0  0  0
 44 32  1  0  0  0
 32  1  1  0  0  0
  1  2  1  0  0  0
  2  3  2  0  0  0
  2  5  1  0  0  0
  5  6  1  0  0  0
  6  7  1  0  0  0
  7  8  1  0  0  0
  8  9  1  0  0  0
  9 10  1  0  0  0
 10 11  2  0  0  0
 10 12  1  0  0  0
 12 25  1  0  0  0
 25 26  1  0  0  0
 26 27  2  0  0  0
 27 28  1  0  0  0
 28 29  2  0  0  0
 29 30  1  0  0  0
 30 31  2  0  0  0
 12 13  1  0  0  0
 13 14  1  0  0  0
 14 15  2  0  0  0
 14 17  1  0  0  0
 17 18  1  0  0  0
 18 19  1  0  0  0
 19 20  2  0  0  0
 20 21  1  0  0  0
 21 22  2  0  0  0
 22 23  1  0  0  0
 23 24  2  0  0  0
 32 33  1  0  0  0
 33 34  2  0  0  0
 33 35  1  0  0  0
 35 36  2  0  0  0
 36 37  1  0  0  0
 37 38  2  0  0  0
 38 39  1  0  0  0
 39 40  2  0  0  0
 40 41  1  0  0  0
 41 42  2  0  0  0
 42 43  1  0  0  0
  9  5  1  0  0  0
 31 26  1  0  0  0
 24 19  1  0  0  0
 43 35  1  0  0  0
 42 37  1  0  0  0
 49 52  1  0  0  0
 49 53  1  0  0  0
 51 54  1  0  0  0
 47 48  1  0  0  0
  1  4  1  0  0  0
 13 16  1  0  0  0
M  END
> <minimizedAffinity>
-8.71267

> <CNNscore>
0.1937375963

> <CNNaffinity>
7.0473351479

> <CNN_VS>
1.3653337955

> <CNNaffinity_variance>
0.1802859753

$$$$
[H]N=C(N([H])[H])N([H])C([H])([H])C([H])([H])C([H])([H])[C@@]([H])(C(=O)c1nc2c([H])c([H])c([H])c([H])c2s1)N([H])C(=O)[C@@]1([H])N(C(=O)[C@@]([H])(N([H])C(=O)OC([H])([H])c2c([H])c([H])c([H])c([H])c2[H])C([H])([H])c2c([H])c([H])c([H])c([H])c2[H])C([H])([H])C([H])([H])C1([H])[H]


 54 58  0  0  0  0  0  0  0  0999 V2000
   38.0507   14.9124  -11.2927 N   0  0  0  0  0  0  0  0  0  0  0  0
   37.4587   16.1502  -10.9773 C   0  0  0  0  0  0  0  0  0  0  0  0
   36.7360   16.6328  -11.9518 O   0  0  0  0  0  0  0  0  0  0  0  0
   38.6491   14.3579  -10.6510 H   0  0  0  0  0  0  0  0  0  0  0  0
   37.5592   16.8666   -9.7751 C   0  0  0  0  0  0  0  0  0  0  0  0
   37.6959   18.3833   -9.8223 C   0  0  0  0  0  0  0  0  0  0  0  0
   37.4924   18.6563   -8.3182 C   0  0  0  0  0  0  0  0  0  0  0  0
   37.7634   17.3142   -7.6071 C   0  0  0  0  0  0  0  0  0  0  0  0
   38.4678   16.5942   -8.7064 N   0  0  0  0  0  0  0  0  0  0  0  0
   39.7214   16.0245   -8.6133 C   0  0  0  0  0  0  0  0  0  0  0  0
   40.3171   15.8939   -9.7843 O   0  0  0  0  0  0  0  0  0  0  0  0
   40.5502   15.5238   -7.5272 C   0  0  0  0  0  0  0  0  0  0  0  0
   41.8156   14.9676   -7.9883 N   0  0  0  0  0  0  0  0  0  0  0  0
   42.0682   13.5839   -8.0463 C   0  0  0  0  0  0  0  0  0  0  0  0
   41.2255   12.7087   -7.7087 O   0  0  0  0  0  0  0  0  0  0  0  0
   42.5523   15.6323   -8.2796 H   0  0  0  0  0  0  0  0  0  0  0  0
   43.3060   13.1539   -8.4984 O   0  0  0  0  0  0  0  0  0  0  0  0
   44.2227   13.9086   -9.2084 C   0  0  0  0  0  0  0  0  0  0  0  0
   43.8986   14.1914  -10.6169 C   0  0  0  0  0  0  0  0  0  0  0  0
   43.8296   13.1460  -11.5487 C   0  0  0  0  0  0  0  0  0  0  0  0
   43.5289   13.3862  -12.8669 C   0  0  0  0  0  0  0  0  0  0  0  0
   43.2859   14.6713  -13.3072 C   0  0  0  0  0  0  0  0  0  0  0  0
   43.3517   15.7071  -12.3951 C   0  0  0  0  0  0  0  0  0  0  0  0
   43.6558   15.4588  -11.0652 C   0  0  0  0  0  0  0  0  0  0  0  0
   40.6893   16.2803   -6.2646 C   0  0  0  0  0  0  0  0  0  0  0  0
   39.6631   15.8191   -5.2420 C   0  0  0  0  0  0  0  0  0  0  0  0
   39.3203   14.4867   -5.1613 C   0  0  0  0  0  0  0  0  0  0  0  0
   38.3892   14.0904   -4.2259 C   0  0  0  0  0  0  0  0  0  0  0  0
   37.7811   14.9738   -3.3614 C   0  0  0  0  0  0  0  0  0  0  0  0
   38.1242   16.3099   -3.4416 C   0  0  0  0  0  0  0  0  0  0  0  0
   39.0534   16.6975   -4.3770 C   0  0  0  0  0  0  0  0  0  0  0  0
   37.8202   14.2642  -12.5901 C   0  0  0  0  0  0  0  0  0  0  0  0
   38.9287   14.5411  -13.5177 C   0  0  0  0  0  0  0  0  0  0  0  0
   39.7542   15.4943  -13.3195 O   0  0  0  0  0  0  0  0  0  0  0  0
   39.1679   13.7496  -14.7241 C   0  0  0  0  0  0  0  0  0  0  0  0
   38.3938   12.8712  -15.3235 N   0  0  0  0  0  0  0  0  0  0  0  0
   38.7892   12.2498  -16.3931 C   0  0  0  0  0  0  0  0  0  0  0  0
   38.0583   11.2874  -17.1203 C   0  0  0  0  0  0  0  0  0  0  0  0
   38.6033   10.7150  -18.2230 C   0  0  0  0  0  0  0  0  0  0  0  0
   39.8561   11.0004  -18.7154 C   0  0  0  0  0  0  0  0  0  0  0  0
   40.5783   11.9371  -18.0141 C   0  0  0  0  0  0  0  0  0  0  0  0
   40.0426   12.5479  -16.8690 C   0  0  0  0  0  0  0  0  0  0  0  0
   40.5704   13.7111  -15.7366 S   0  0  0  0  0  0  0  0  0  0  0  0
   36.4570   14.5193  -13.1552 C   0  0  0  0  0  0  0  0  0  0  0  0
   35.4263   13.4700  -12.9407 C   0  0  0  0  0  0  0  0  0  0  0  0
   34.0743   14.1704  -13.1245 C   0  0  0  0  0  0  0  0  0  0  0  0
   33.4196   14.4795  -11.8913 N   0  0  0  0  0  0  0  0  0  0  0  0
   33.9443   14.4164  -10.9639 H   0  0  0  0  0  0  0  0  0  0  0  0
   31.5878   15.9628  -11.0336 N   0  0  0  0  0  0  0  0  0  0  0  0
   32.0621   14.8810  -11.7749 C   0  0  0  0  0  0  0  0  0  0  0  0
   31.2050   14.1548  -12.4312 N   0  0  0  0  0  0  0  0  0  0  0  0
   30.6206   16.2941  -11.1215 H   0  0  0  0  0  0  0  0  0  0  0  0
   32.2244   16.4603  -10.3695 H   0  0  0  0  0  0  0  0  0  0  0  0
   31.4903   13.3478  -12.9939 H   0  0  0  0  0  0  0  0  0  0  0  0
 49 50  1  0  0  0
 50 51  2  0  0  0
 50 47  1  0  0  0
 47 46  1  0  0  0
 46 45  1  0  0  0
 45 44  1  0  0  0
 44 32  1  0  0  0
 32  1  1  0  0  0
  1  2  1  0  0  0
  2  3  2  0  0  0
  2  5  1  0  0  0
  5  6  1  0  0  0
  6  7  1  0  0  0
  7  8  1  0  0  0
  8  9  1  0  0  0
  9 10  1  0  0  0
 10 11  2  0  0  0
 10 12  1  0  0  0
 12 25  1  0  0  0
 25 26  1  0  0  0
 26 27  2  0  0  0
 27 28  1  0  0  0
 28 29  2  0  0  0
 29 30  1  0  0  0
 30 31  2  0  0  0
 12 13  1  0  0  0
 13 14  1  0  0  0
 14 15  2  0  0  0
 14 17  1  0  0  0
 17 18  1  0  0  0
 18 19  1  0  0  0
 19 20  2  0  0  0
 20 21  1  0  0  0
 21 22  2  0  0  0
 22 23  1  0  0  0
 23 24  2  0  0  0
 32 33  1  0  0  0
 33 34  2  0  0  0
 33 35  1  0  0  0
 35 36  2  0  0  0
 36 37  1  0  0  0
 37 38  2  0  0  0
 38 39  1  0  0  0
 39 40  2  0  0  0
 40 41  1  0  0  0
 41 42  2  0  0  0
 42 43  1  0  0  0
  9  5  1  0  0  0
 31 26  1  0  0  0
 24 19  1  0  0  0
 43 35  1  0  0  0
 42 37  1  0  0  0
 49 52  1  0  0  0
 49 53  1  0  0  0
 51 54  1  0  0  0
 47 48  1  0  0  0
  1  4  1  0  0  0
 13 16  1  0  0  0
M  END
> <minimizedAffinity>
-8.35101

> <CNNscore>
0.1849548668

> <CNNaffinity>
7.0235548019

> <CNN_VS>
1.2990406752

> <CNNaffinity_variance>
0.6098144650

$$$$
[H]N=C(N([H])[H])N([H])C([H])([H])C([H])([H])C([H])([H])[C@@]([H])(C(=O)c1nc2c([H])c([H])c([H])c([H])c2s1)N([H])C(=O)[C@@]1([H])N(C(=O)[C@@]([H])(N([H])C(=O)OC([H])([H])c2c([H])c([H])c([H])c([H])c2[H])C([H])([H])c2c([H])c([H])c([H])c([H])c2[H])C([H])([H])C([H])([H])C1([H])[H]


 54 58  0  0  0  0  0  0  0  0999 V2000
   42.2013   15.7938  -11.4132 N   0  0  0  0  0  0  0  0  0  0  0  0
   40.9176   16.3628  -11.5137 C   0  0  0  0  0  0  0  0  0  0  0  0
   40.5902   16.6695  -12.7399 O   0  0  0  0  0  0  0  0  0  0  0  0
   42.6413   15.4691  -10.5310 H   0  0  0  0  0  0  0  0  0  0  0  0
   40.0045   16.6062  -10.4764 C   0  0  0  0  0  0  0  0  0  0  0  0
   40.2999   16.0648   -9.0833 C   0  0  0  0  0  0  0  0  0  0  0  0
   39.1864   16.8186   -8.3280 C   0  0  0  0  0  0  0  0  0  0  0  0
   38.1672   17.2497   -9.4030 C   0  0  0  0  0  0  0  0  0  0  0  0
   38.5979   16.3586  -10.5181 N   0  0  0  0  0  0  0  0  0  0  0  0
   37.7833   15.4706  -11.1909 C   0  0  0  0  0  0  0  0  0  0  0  0
   38.4531   14.4853  -11.7599 O   0  0  0  0  0  0  0  0  0  0  0  0
   36.3524   15.3599  -11.4312 C   0  0  0  0  0  0  0  0  0  0  0  0
   35.5500   15.8441  -10.3153 N   0  0  0  0  0  0  0  0  0  0  0  0
   35.4645   15.1681   -9.0834 C   0  0  0  0  0  0  0  0  0  0  0  0
   36.0732   14.0916   -8.8375 O   0  0  0  0  0  0  0  0  0  0  0  0
   35.0232   16.7235  -10.4512 H   0  0  0  0  0  0  0  0  0  0  0  0
   34.6720   15.7095   -8.0834 O   0  0  0  0  0  0  0  0  0  0  0  0
   33.4906   16.4061   -8.2656 C   0  0  0  0  0  0  0  0  0  0  0  0
   32.3214   15.6246   -8.7025 C   0  0  0  0  0  0  0  0  0  0  0  0
   31.7268   14.6987   -7.8335 C   0  0  0  0  0  0  0  0  0  0  0  0
   30.6359   13.9592   -8.2193 C   0  0  0  0  0  0  0  0  0  0  0  0
   30.0963   14.1123   -9.4802 C   0  0  0  0  0  0  0  0  0  0  0  0
   30.6762   15.0229  -10.3425 C   0  0  0  0  0  0  0  0  0  0  0  0
   31.7777   15.7668   -9.9476 C   0  0  0  0  0  0  0  0  0  0  0  0
   35.7712   15.7136  -12.7437 C   0  0  0  0  0  0  0  0  0  0  0  0
   35.3138   14.4681  -13.4860 C   0  0  0  0  0  0  0  0  0  0  0  0
   34.0407   13.9776  -13.2911 C   0  0  0  0  0  0  0  0  0  0  0  0
   33.6464   12.8483  -13.9755 C   0  0  0  0  0  0  0  0  0  0  0  0
   34.4746   12.1830  -14.8523 C   0  0  0  0  0  0  0  0  0  0  0  0
   35.7512   12.6742  -15.0483 C   0  0  0  0  0  0  0  0  0  0  0  0
   36.1373   13.8006  -14.3621 C   0  0  0  0  0  0  0  0  0  0  0  0
   43.0308   15.5658  -12.6034 C   0  0  0  0  0  0  0  0  0  0  0  0
   43.0511   14.1384  -12.9614 C   0  0  0  0  0  0  0  0  0  0  0  0
   43.6829   13.2755  -12.2645 O   0  0  0  0  0  0  0  0  0  0  0  0
   42.3523   13.6054  -14.1303 C   0  0  0  0  0  0  0  0  0  0  0  0
   41.0735   13.3518  -14.3051 N   0  0  0  0  0  0  0  0  0  0  0  0
   40.6351   12.8604  -15.4244 C   0  0  0  0  0  0  0  0  0  0  0  0
   39.2957   12.5418  -15.7310 C   0  0  0  0  0  0  0  0  0  0  0  0
   38.9838   12.0280  -16.9473 C   0  0  0  0  0  0  0  0  0  0  0  0
   39.8936   11.7796  -17.9492 C   0  0  0  0  0  0  0  0  0  0  0  0
   41.2028   12.0859  -17.6614 C   0  0  0  0  0  0  0  0  0  0  0  0
   41.5584   12.6190  -16.4122 C   0  0  0  0  0  0  0  0  0  0  0  0
   43.0052   13.1196  -15.6572 S   0  0  0  0  0  0  0  0  0  0  0  0
   44.3817   16.2075  -12.5260 C   0  0  0  0  0  0  0  0  0  0  0  0
   44.9195   16.8093  -13.7743 C   0  0  0  0  0  0  0  0  0  0  0  0
   45.8410   15.7466  -14.3856 C   0  0  0  0  0  0  0  0  0  0  0  0
   46.6842   15.1029  -13.4266 N   0  0  0  0  0  0  0  0  0  0  0  0
   47.0849   15.6465  -12.6000 H   0  0  0  0  0  0  0  0  0  0  0  0
   46.2451   12.6688  -13.8433 N   0  0  0  0  0  0  0  0  0  0  0  0
   47.0640   13.7349  -13.4728 C   0  0  0  0  0  0  0  0  0  0  0  0
   48.2947   13.4836  -13.1337 N   0  0  0  0  0  0  0  0  0  0  0  0
   46.6245   11.7302  -14.0108 H   0  0  0  0  0  0  0  0  0  0  0  0
   45.2163   12.8163  -13.9601 H   0  0  0  0  0  0  0  0  0  0  0  0
   48.9457   14.2228  -12.8523 H   0  0  0  0  0  0  0  0  0  0  0  0
 49 50  1  0  0  0
 50 51  2  0  0  0
 50 47  1  0  0  0
 47 46  1  0  0  0
 46 45  1  0  0  0
 45 44  1  0  0  0
 44 32  1  0  0  0
 32  1  1  0  0  0
  1  2  1  0  0  0
  2  3  2  0  0  0
  2  5  1  0  0  0
  5  6  1  0  0  0
  6  7  1  0  0  0
  7  8  1  0  0  0
  8  9  1  0  0  0
  9 10  1  0  0  0
 10 11  2  0  0  0
 10 12  1  0  0  0
 12 25  1  0  0  0
 25 26  1  0  0  0
 26 27  2  0  0  0
 27 28  1  0  0  0
 28 29  2  0  0  0
 29 30  1  0  0  0
 30 31  2  0  0  0
 12 13  1  0  0  0
 13 14  1  0  0  0
 14 15  2  0  0  0
 14 17  1  0  0  0
 17 18  1  0  0  0
 18 19  1  0  0  0
 19 20  2  0  0  0
 20 21  1  0  0  0
 21 22  2  0  0  0
 22 23  1  0  0  0
 23 24  2  0  0  0
 32 33  1  0  0  0
 33 34  2  0  0  0
 33 35  1  0  0  0
 35 36  2  0  0  0
 36 37  1  0  0  0
 37 38  2  0  0  0
 38 39  1  0  0  0
 39 40  2  0  0  0
 40 41  1  0  0  0
 41 42  2  0  0  0
 42 43  1  0  0  0
  9  5  1  0  0  0
 31 26  1  0  0  0
 24 19  1  0  0  0
 43 35  1  0  0  0
 42 37  1  0  0  0
 49 52  1  0  0  0
 49 53  1  0  0  0
 51 54  1  0  0  0
 47 48  1  0  0  0
  1  4  1  0  0  0
 13 16  1  0  0  0
M  END
> <minimizedAffinity>
-8.28101

> <CNNscore>
0.1743005365

> <CNNaffinity>
6.9873275757

> <CNN_VS>
1.2178949118

> <CNNaffinity_variance>
0.7116063833

$$$$
[H]c1c(F)c([H])c2c(C3=C(c4c([H])n([H])c5c([H])c([H])c([H])c([H])c45)C(=O)N([H])C3=O)nc(N3C([H])([H])C([H])([H])N(C([H])([H])[H])C([H])([H])C3([H])[H])nc2c1[H]


 36 41  0  0  0  0  0  0  0  0999 V2000
   40.4825   14.4724  -13.8222 C   0  0  0  0  0  0  0  0  0  0  0  0
   39.8185   13.7587  -14.7495 N   0  0  0  0  0  0  0  0  0  0  0  0
   40.4294   12.9692  -15.6714 C   0  0  0  0  0  0  0  0  0  0  0  0
   41.8034   12.9142  -15.6374 C   0  0  0  0  0  0  0  0  0  0  0  0
   42.5015   12.1670  -16.5440 C   0  0  0  0  0  0  0  0  0  0  0  0
   43.8856   12.1336  -16.5131 C   0  0  0  0  0  0  0  0  0  0  0  0
   44.5300   11.3776  -17.4322 F   0  0  0  0  0  0  0  0  0  0  0  0
   44.5681   12.8592  -15.5633 C   0  0  0  0  0  0  0  0  0  0  0  0
   43.8957   13.6229  -14.6386 C   0  0  0  0  0  0  0  0  0  0  0  0
   42.5158   13.6506  -14.6774 C   0  0  0  0  0  0  0  0  0  0  0  0
   41.8225   14.3982  -13.8103 N   0  0  0  0  0  0  0  0  0  0  0  0
   39.6301   12.2298  -16.6428 C   0  0  0  0  0  0  0  0  0  0  0  0
   38.3949   11.7509  -16.3610 C   0  0  0  0  0  0  0  0  0  0  0  0
   37.9126   11.0695  -17.5527 C   0  0  0  0  0  0  0  0  0  0  0  0
   36.7815   10.4961  -17.6704 O   0  0  0  0  0  0  0  0  0  0  0  0
   38.8950   11.1460  -18.5583 N   0  0  0  0  0  0  0  0  0  0  0  0
   39.9751   11.8640  -18.0110 C   0  0  0  0  0  0  0  0  0  0  0  0
   41.0347   12.1063  -18.6634 O   0  0  0  0  0  0  0  0  0  0  0  0
   38.7927   10.7277  -19.5228 H   0  0  0  0  0  0  0  0  0  0  0  0
   37.6852   11.9303  -15.1014 C   0  0  0  0  0  0  0  0  0  0  0  0
   38.1118   11.4097  -13.8892 C   0  0  0  0  0  0  0  0  0  0  0  0
   37.2340   11.7361  -12.9356 N   0  0  0  0  0  0  0  0  0  0  0  0
   36.2223   12.4628  -13.4610 C   0  0  0  0  0  0  0  0  0  0  0  0
   35.0968   13.0161  -12.8955 C   0  0  0  0  0  0  0  0  0  0  0  0
   34.2289   13.7093  -13.7095 C   0  0  0  0  0  0  0  0  0  0  0  0
   34.5092   13.8272  -15.0525 C   0  0  0  0  0  0  0  0  0  0  0  0
   35.6395   13.2705  -15.6159 C   0  0  0  0  0  0  0  0  0  0  0  0
   36.5082   12.5825  -14.8213 C   0  0  0  0  0  0  0  0  0  0  0  0
   37.2637   11.4966  -11.9076 H   0  0  0  0  0  0  0  0  0  0  0  0
   38.6133   15.1478   -9.3919 C   0  0  0  0  0  0  0  0  0  0  0  0
   38.8585   16.1125  -10.4280 N   0  0  0  0  0  0  0  0  0  0  0  0
   37.9716   16.0344  -11.5316 C   0  0  0  0  0  0  0  0  0  0  0  0
   38.3856   15.0036  -12.5898 C   0  0  0  0  0  0  0  0  0  0  0  0
   39.7654   15.2679  -12.8957 N   0  0  0  0  0  0  0  0  0  0  0  0
   40.4075   16.3674  -12.2318 C   0  0  0  0  0  0  0  0  0  0  0  0
   40.2439   16.1151  -10.7503 C   0  0  0  0  0  0  0  0  0  0  0  0
 30 31  1  0  0  0
 31 32  1  0  0  0
 32 33  1  0  0  0
 33 34  1  0  0  0
 34 35  1  0  0  0
 35 36  1  0  0  0
 34  1  1  0  0  0
  1  2  2  0  0  0
  2  3  1  0  0  0
  3 12  1  0  0  0
 12 13  2  0  0  0
 13 14  1  0  0  0
 14 15  2  0  0  0
 14 16  1  0  0  0
 16 17  1  0  0  0
 17 18  2  0  0  0
 13 20  1  0  0  0
 20 21  2  0  0  0
 21 22  1  0  0  0
 22 23  1  0  0  0
 23 24  2  0  0  0
 24 25  1  0  0  0
 25 26  2  0  0  0
 26 27  1  0  0  0
 27 28  2  0  0  0
  3  4  2  0  0  0
  4  5  1  0  0  0
  5  6  2  0  0  0
  6  7  1  0  0  0
  6  8  1  0  0  0
  8  9  2  0  0  0
  9 10  1  0  0  0
 10 11  2  0  0  0
 36 31  1  0  0  0
 11  1  1  0  0  0
 17 12  1  0  0  0
 28 20  1  0  0  0
 10  4  1  0  0  0
 28 23  1  0  0  0
 16 19  1  0  0  0
 22 29  1  0  0  0
M  END
> <minimizedAffinity>
-10.53584

> <CNNscore>
0.7718031406

> <CNNaffinity>
7.6911344528

> <CNN_VS>
5.9360418320

> <CNNaffinity_variance>
0.0887548849

$$$$
[H]c1c(F)c([H])c2c(C3=C(c4c([H])n([H])c5c([H])c([H])c([H])c([H])c45)C(=O)N([H])C3=O)nc(N3C([H])([H])C([H])([H])N(C([H])([H])[H])C([H])([H])C3([H])[H])nc2c1[H]


 36 41  0  0  0  0  0  0  0  0999 V2000
   38.8405   14.7305   -5.7538 C   0  0  0  0  0  0  0  0  0  0  0  0
   38.5304   16.0253   -5.9471 N   0  0  0  0  0  0  0  0  0  0  0  0
   37.3714   16.5932   -5.5220 C   0  0  0  0  0  0  0  0  0  0  0  0
   36.4798   15.7794   -4.8625 C   0  0  0  0  0  0  0  0  0  0  0  0
   35.2780   16.2601   -4.4241 C   0  0  0  0  0  0  0  0  0  0  0  0
   34.3793   15.4278   -3.7780 C   0  0  0  0  0  0  0  0  0  0  0  0
   33.2031   15.9525   -3.3625 F   0  0  0  0  0  0  0  0  0  0  0  0
   34.6950   14.1036   -3.5750 C   0  0  0  0  0  0  0  0  0  0  0  0
   35.8946   13.5883   -4.0060 C   0  0  0  0  0  0  0  0  0  0  0  0
   36.7841   14.4254   -4.6496 C   0  0  0  0  0  0  0  0  0  0  0  0
   37.9534   13.9599   -5.1052 N   0  0  0  0  0  0  0  0  0  0  0  0
   37.1161   18.0072   -5.7761 C   0  0  0  0  0  0  0  0  0  0  0  0
   36.5044   18.4498   -6.9005 C   0  0  0  0  0  0  0  0  0  0  0  0
   36.4305   19.9002   -6.8107 C   0  0  0  0  0  0  0  0  0  0  0  0
   35.9130   20.6700   -7.6834 O   0  0  0  0  0  0  0  0  0  0  0  0
   37.0208   20.3192   -5.6032 N   0  0  0  0  0  0  0  0  0  0  0  0
   37.4565   19.1544   -4.9436 C   0  0  0  0  0  0  0  0  0  0  0  0
   38.0412   19.1845   -3.8193 O   0  0  0  0  0  0  0  0  0  0  0  0
   37.0974   21.3272   -5.2970 H   0  0  0  0  0  0  0  0  0  0  0  0
   35.9901   17.6066   -7.9715 C   0  0  0  0  0  0  0  0  0  0  0  0
   36.7378   17.1996   -9.0659 C   0  0  0  0  0  0  0  0  0  0  0  0
   35.9732   16.4542   -9.8698 N   0  0  0  0  0  0  0  0  0  0  0  0
   34.7275   16.3412   -9.3568 C   0  0  0  0  0  0  0  0  0  0  0  0
   33.6017   15.6927   -9.8092 C   0  0  0  0  0  0  0  0  0  0  0  0
   32.4539   15.7692   -9.0521 C   0  0  0  0  0  0  0  0  0  0  0  0
   32.4656   16.4857   -7.8763 C   0  0  0  0  0  0  0  0  0  0  0  0
   33.5973   17.1349   -7.4259 C   0  0  0  0  0  0  0  0  0  0  0  0
   34.7411   17.0665   -8.1650 C   0  0  0  0  0  0  0  0  0  0  0  0
   36.2369   15.9922  -10.7820 H   0  0  0  0  0  0  0  0  0  0  0  0
   42.2660   11.2890   -5.7617 C   0  0  0  0  0  0  0  0  0  0  0  0
   42.0345   12.3385   -6.7153 N   0  0  0  0  0  0  0  0  0  0  0  0
   42.3811   13.6367   -6.2627 C   0  0  0  0  0  0  0  0  0  0  0  0
   41.2781   14.3264   -5.4494 C   0  0  0  0  0  0  0  0  0  0  0  0
   40.0739   14.2209   -6.2278 N   0  0  0  0  0  0  0  0  0  0  0  0
   40.1503   13.5782   -7.5096 C   0  0  0  0  0  0  0  0  0  0  0  0
   40.7255   12.2035   -7.2551 C   0  0  0  0  0  0  0  0  0  0  0  0
 30 31  1  0  0  0
 31 32  1  0  0  0
 32 33  1  0  0  0
 33 34  1  0  0  0
 34 35  1  0  0  0
 35 36  1  0  0  0
 34  1  1  0  0  0
  1  2  2  0  0  0
  2  3  1  0  0  0
  3 12  1  0  0  0
 12 13  2  0  0  0
 13 14  1  0  0  0
 14 15  2  0  0  0
 14 16  1  0  0  0
 16 17  1  0  0  0
 17 18  2  0  0  0
 13 20  1  0  0  0
 20 21  2  0  0  0
 21 22  1  0  0  0
 22 23  1  0  0  0
 23 24  2  0  0  0
 24 25  1  0  0  0
 25 26  2  0  0  0
 26 27  1  0  0  0
 27 28  2  0  0  0
  3  4  2  0  0  0
  4  5  1  0  0  0
  5  6  2  0  0  0
  6  7  1  0  0  0
  6  8  1  0  0  0
  8  9  2  0  0  0
  9 10  1  0  0  0
 10 11  2  0  0  0
 36 31  1  0  0  0
 11  1  1  0  0  0
 17 12  1  0  0  0
 28 20  1  0  0  0
 10  4  1  0  0  0
 28 23  1  0  0  0
 16 19  1  0  0  0
 22 29  1  0  0  0
M  END
> <minimizedAffinity>
-6.65703

> <CNNscore>
0.2152846605

> <CNNaffinity>
5.6306276321

> <CNN_VS>
1.2121877670

> <CNNaffinity_variance>
0.5710409880

$$$$
[H]c1c(F)c([H])c2c(C3=C(c4c([H])n([H])c5c([H])c([H])c([H])c([H])c45)C(=O)N([H])C3=O)nc(N3C([H])([H])C([H])([H])N(C([H])([H])[H])C([H])([H])C3([H])[H])nc2c1[H]


 36 41  0  0  0  0  0  0  0  0999 V2000
   39.5152   13.8981   -6.4380 C   0  0  0  0  0  0  0  0  0  0  0  0
   40.3918   14.9162   -6.5098 N   0  0  0  0  0  0  0  0  0  0  0  0
   41.6892   14.8214   -6.1170 C   0  0  0  0  0  0  0  0  0  0  0  0
   42.1061   13.6088   -5.6190 C   0  0  0  0  0  0  0  0  0  0  0  0
   43.3866   13.4318   -5.1756 C   0  0  0  0  0  0  0  0  0  0  0  0
   43.7911   12.2125   -4.6583 C   0  0  0  0  0  0  0  0  0  0  0  0
   45.0699   12.0881   -4.2334 F   0  0  0  0  0  0  0  0  0  0  0  0
   42.8981   11.1676   -4.5871 C   0  0  0  0  0  0  0  0  0  0  0  0
   41.6022   11.3138   -5.0224 C   0  0  0  0  0  0  0  0  0  0  0  0
   41.2077   12.5332   -5.5361 C   0  0  0  0  0  0  0  0  0  0  0  0
   39.9496   12.7255   -5.9505 N   0  0  0  0  0  0  0  0  0  0  0  0
   42.5714   15.9782   -6.2291 C   0  0  0  0  0  0  0  0  0  0  0  0
   43.2484   16.2750   -7.3640 C   0  0  0  0  0  0  0  0  0  0  0  0
   44.0235   17.4785   -7.1036 C   0  0  0  0  0  0  0  0  0  0  0  0
   44.7832   18.0649   -7.9409 O   0  0  0  0  0  0  0  0  0  0  0  0
   43.7993   17.8947   -5.7774 N   0  0  0  0  0  0  0  0  0  0  0  0
   42.8980   16.9718   -5.2137 C   0  0  0  0  0  0  0  0  0  0  0  0
   42.4908   17.0592   -4.0164 O   0  0  0  0  0  0  0  0  0  0  0  0
   44.2464   18.7443   -5.3371 H   0  0  0  0  0  0  0  0  0  0  0  0
   43.1695   15.5320   -8.6147 C   0  0  0  0  0  0  0  0  0  0  0  0
   42.2742   15.8201   -9.6335 C   0  0  0  0  0  0  0  0  0  0  0  0
   42.4450   14.9468  -10.6308 N   0  0  0  0  0  0  0  0  0  0  0  0
   43.4289   14.0723  -10.3225 C   0  0  0  0  0  0  0  0  0  0  0  0
   43.9595   13.0050  -11.0095 C   0  0  0  0  0  0  0  0  0  0  0  0
   44.9715   12.2833  -10.4167 C   0  0  0  0  0  0  0  0  0  0  0  0
   45.4182   12.6463   -9.1658 C   0  0  0  0  0  0  0  0  0  0  0  0
   44.8831   13.7178   -8.4798 C   0  0  0  0  0  0  0  0  0  0  0  0
   43.8814   14.4420   -9.0556 C   0  0  0  0  0  0  0  0  0  0  0  0
   41.9258   14.8901  -11.5486 H   0  0  0  0  0  0  0  0  0  0  0  0
   35.3077   16.3146   -6.2511 C   0  0  0  0  0  0  0  0  0  0  0  0
   35.7833   15.4007   -7.2525 N   0  0  0  0  0  0  0  0  0  0  0  0
   35.8004   14.0404   -6.8523 C   0  0  0  0  0  0  0  0  0  0  0  0
   37.0651   13.6345   -6.0844 C   0  0  0  0  0  0  0  0  0  0  0  0
   38.1803   14.0831   -6.8731 N   0  0  0  0  0  0  0  0  0  0  0  0
   37.9070   14.7321   -8.1246 C   0  0  0  0  0  0  0  0  0  0  0  0
   36.9977   15.8960   -7.8029 C   0  0  0  0  0  0  0  0  0  0  0  0
 30 31  1  0  0  0
 31 32  1  0  0  0
 32 33  1  0  0  0
 33 34  1  0  0  0
 34 35  1  0  0  0
 35 36  1  0  0  0
 34  1  1  0  0  0
  1  2  2  0  0  0
  2  3  1  0  0  0
  3 12  1  0  0  0
 12 13  2  0  0  0
 13 14  1  0  0  0
 14 15  2  0  0  0
 14 16  1  0  0  0
 16 17  1  0  0  0
 17 18  2  0  0  0
 13 20  1  0  0  0
 20 21  2  0  0  0
 21 22  1  0  0  0
 22 23  1  0  0  0
 23 24  2  0  0  0
 24 25  1  0  0  0
 25 26  2  0  0  0
 26 27  1  0  0  0
 27 28  2  0  0  0
  3  4  2  0  0  0
  4  5  1  0  0  0
  5  6  2  0  0  0
  6  7  1  0  0  0
  6  8  1  0  0  0
  8  9  2  0  0  0
  9 10  1  0  0  0
 10 11  2  0  0  0
 36 31  1  0  0  0
 11  1  1  0  0  0
 17 12  1  0  0  0
 28 20  1  0  0  0
 10  4  1  0  0  0
 28 23  1  0  0  0
 16 19  1  0  0  0
 22 29  1  0  0  0
M  END
> <minimizedAffinity>
-6.38192

> <CNNscore>
0.1093309298

> <CNNaffinity>
5.0385107994

> <CNN_VS>
0.5508650541

> <CNNaffinity_variance>
0.2176491022

$$$$
[H]c1c(F)c([H])c2c(C3=C(c4c([H])n([H])c5c([H])c([H])c([H])c([H])c45)C(=O)N([H])C3=O)nc(N3C([H])([H])C([H])([H])N(C([H])([H])[H])C([H])([H])C3([H])[H])nc2c1[H]


 36 41  0  0  0  0  0  0  0  0999 V2000
   39.9426   15.6517   -8.8221 C   0  0  0  0  0  0  0  0  0  0  0  0
   39.0545   15.2447   -7.8971 N   0  0  0  0  0  0  0  0  0  0  0  0
   37.7628   14.9317   -8.1802 C   0  0  0  0  0  0  0  0  0  0  0  0
   37.3629   15.0475   -9.4911 C   0  0  0  0  0  0  0  0  0  0  0  0
   36.0750   14.7793   -9.8614 C   0  0  0  0  0  0  0  0  0  0  0  0
   35.6776   14.9174  -11.1808 C   0  0  0  0  0  0  0  0  0  0  0  0
   34.3915   14.6387  -11.4963 F   0  0  0  0  0  0  0  0  0  0  0  0
   36.5846   15.3297  -12.1305 C   0  0  0  0  0  0  0  0  0  0  0  0
   37.8869   15.6099  -11.7903 C   0  0  0  0  0  0  0  0  0  0  0  0
   38.2738   15.4699  -10.4724 C   0  0  0  0  0  0  0  0  0  0  0  0
   39.5260   15.7535  -10.0939 N   0  0  0  0  0  0  0  0  0  0  0  0
   36.8665   14.4994   -7.1129 C   0  0  0  0  0  0  0  0  0  0  0  0
   35.9486   15.3211   -6.5505 C   0  0  0  0  0  0  0  0  0  0  0  0
   35.2514   14.5560   -5.5280 C   0  0  0  0  0  0  0  0  0  0  0  0
   34.3112   14.9937   -4.7887 O   0  0  0  0  0  0  0  0  0  0  0  0
   35.7798   13.2517   -5.4860 N   0  0  0  0  0  0  0  0  0  0  0  0
   36.7896   13.1957   -6.4653 C   0  0  0  0  0  0  0  0  0  0  0  0
   37.4730   12.1503   -6.6825 O   0  0  0  0  0  0  0  0  0  0  0  0
   35.4475   12.4963   -4.8269 H   0  0  0  0  0  0  0  0  0  0  0  0
   35.6982   16.7024   -6.9404 C   0  0  0  0  0  0  0  0  0  0  0  0
   34.5552   17.1277   -7.6000 C   0  0  0  0  0  0  0  0  0  0  0  0
   34.6408   18.4419   -7.8281 N   0  0  0  0  0  0  0  0  0  0  0  0
   35.8072   18.9248   -7.3444 C   0  0  0  0  0  0  0  0  0  0  0  0
   36.3484   20.1897   -7.3413 C   0  0  0  0  0  0  0  0  0  0  0  0
   37.5871   20.3699   -6.7672 C   0  0  0  0  0  0  0  0  0  0  0  0
   38.2422   19.2899   -6.2189 C   0  0  0  0  0  0  0  0  0  0  0  0
   37.6957   18.0225   -6.2242 C   0  0  0  0  0  0  0  0  0  0  0  0
   36.4693   17.8300   -6.7881 C   0  0  0  0  0  0  0  0  0  0  0  0
   33.9410   19.0709   -8.3074 H   0  0  0  0  0  0  0  0  0  0  0  0
   44.1691   14.3346   -6.8275 C   0  0  0  0  0  0  0  0  0  0  0  0
   43.8777   15.4607   -7.6707 N   0  0  0  0  0  0  0  0  0  0  0  0
   43.1266   16.4889   -7.0467 C   0  0  0  0  0  0  0  0  0  0  0  0
   41.6105   16.2558   -7.0755 C   0  0  0  0  0  0  0  0  0  0  0  0
   41.2721   15.9548   -8.4400 N   0  0  0  0  0  0  0  0  0  0  0  0
   42.3244   15.9664   -9.4170 C   0  0  0  0  0  0  0  0  0  0  0  0
   43.3711   14.9973   -8.9163 C   0  0  0  0  0  0  0  0  0  0  0  0
 30 31  1  0  0  0
 31 32  1  0  0  0
 32 33  1  0  0  0
 33 34  1  0  0  0
 34 35  1  0  0  0
 35 36  1  0  0  0
 34  1  1  0  0  0
  1  2  2  0  0  0
  2  3  1  0  0  0
  3 12  1  0  0  0
 12 13  2  0  0  0
 13 14  1  0  0  0
 14 15  2  0  0  0
 14 16  1  0  0  0
 16 17  1  0  0  0
 17 18  2  0  0  0
 13 20  1  0  0  0
 20 21  2  0  0  0
 21 22  1  0  0  0
 22 23  1  0  0  0
 23 24  2  0  0  0
 24 25  1  0  0  0
 25 26  2  0  0  0
 26 27  1  0  0  0
 27 28  2  0  0  0
  3  4  2  0  0  0
  4  5  1  0  0  0
  5  6  2  0  0  0
  6  7  1  0  0  0
  6  8  1  0  0  0
  8  9  2  0  0  0
  9 10  1  0  0  0
 10 11  2  0  0  0
 36 31  1  0  0  0
 11  1  1  0  0  0
 17 12  1  0  0  0
 28 20  1  0  0  0
 10  4  1  0  0  0
 28 23  1  0  0  0
 16 19  1  0  0  0
 22 29  1  0  0  0
M  END
> <minimizedAffinity>
-6.77738

> <CNNscore>
0.1086471006

> <CNNaffinity>
5.6479673386

> <CNN_VS>
0.6136353016

> <CNNaffinity_variance>
0.2260372341

$$$$
[H]c1c(F)c([H])c2c(C3=C(c4c([H])n([H])c5c([H])c([H])c([H])c([H])c45)C(=O)N([H])C3=O)nc(N3C([H])([H])C([H])([H])N(C([H])([H])[H])C([H])([H])C3([H])[H])nc2c1[H]


 36 41  0  0  0  0  0  0  0  0999 V2000
   39.6631   15.8642   -8.9744 C   0  0  0  0  0  0  0  0  0  0  0  0
   39.2707   16.8982   -8.2083 N   0  0  0  0  0  0  0  0  0  0  0  0
   37.9732   17.2715   -8.0549 C   0  0  0  0  0  0  0  0  0  0  0  0
   37.0261   16.5389   -8.7320 C   0  0  0  0  0  0  0  0  0  0  0  0
   35.7001   16.8604   -8.6569 C   0  0  0  0  0  0  0  0  0  0  0  0
   34.7564   16.1282   -9.3577 C   0  0  0  0  0  0  0  0  0  0  0  0
   33.4559   16.4865   -9.2493 F   0  0  0  0  0  0  0  0  0  0  0  0
   35.1538   15.0672  -10.1392 C   0  0  0  0  0  0  0  0  0  0  0  0
   36.4803   14.7193  -10.2381 C   0  0  0  0  0  0  0  0  0  0  0  0
   37.4140   15.4554   -9.5363 C   0  0  0  0  0  0  0  0  0  0  0  0
   38.7179   15.1651   -9.6218 N   0  0  0  0  0  0  0  0  0  0  0  0
   37.6371   18.4083   -7.2041 C   0  0  0  0  0  0  0  0  0  0  0  0
   37.4733   18.2965   -5.8644 C   0  0  0  0  0  0  0  0  0  0  0  0
   37.1404   19.6189   -5.3570 C   0  0  0  0  0  0  0  0  0  0  0  0
   36.9202   19.9094   -4.1367 O   0  0  0  0  0  0  0  0  0  0  0  0
   37.1021   20.5295   -6.4302 N   0  0  0  0  0  0  0  0  0  0  0  0
   37.4072   19.7947   -7.5916 C   0  0  0  0  0  0  0  0  0  0  0  0
   37.4510   20.3239   -8.7427 O   0  0  0  0  0  0  0  0  0  0  0  0
   36.8812   21.5575   -6.3303 H   0  0  0  0  0  0  0  0  0  0  0  0
   37.6417   17.0734   -5.0908 C   0  0  0  0  0  0  0  0  0  0  0  0
   38.8170   16.7180   -4.4468 C   0  0  0  0  0  0  0  0  0  0  0  0
   38.6501   15.5365   -3.8446 N   0  0  0  0  0  0  0  0  0  0  0  0
   37.3972   15.0760   -4.0590 C   0  0  0  0  0  0  0  0  0  0  0  0
   36.7594   13.9245   -3.6588 C   0  0  0  0  0  0  0  0  0  0  0  0
   35.4539   13.7296   -4.0513 C   0  0  0  0  0  0  0  0  0  0  0  0
   34.8308   14.6827   -4.8255 C   0  0  0  0  0  0  0  0  0  0  0  0
   35.4743   15.8366   -5.2249 C   0  0  0  0  0  0  0  0  0  0  0  0
   36.7666   16.0430   -4.8423 C   0  0  0  0  0  0  0  0  0  0  0  0
   39.3476   14.9883   -3.2719 H   0  0  0  0  0  0  0  0  0  0  0  0
   44.3326   17.0170   -8.3079 C   0  0  0  0  0  0  0  0  0  0  0  0
   43.7445   15.7306   -8.5597 N   0  0  0  0  0  0  0  0  0  0  0  0
   43.2768   15.5427   -9.8851 C   0  0  0  0  0  0  0  0  0  0  0  0
   41.8598   16.0793  -10.1259 C   0  0  0  0  0  0  0  0  0  0  0  0
   41.0383   15.5416   -9.0756 N   0  0  0  0  0  0  0  0  0  0  0  0
   41.6509   14.6623   -8.1197 C   0  0  0  0  0  0  0  0  0  0  0  0
   42.8118   15.4296   -7.5290 C   0  0  0  0  0  0  0  0  0  0  0  0
 30 31  1  0  0  0
 31 32  1  0  0  0
 32 33  1  0  0  0
 33 34  1  0  0  0
 34 35  1  0  0  0
 35 36  1  0  0  0
 34  1  1  0  0  0
  1  2  2  0  0  0
  2  3  1  0  0  0
  3 12  1  0  0  0
 12 13  2  0  0  0
 13 14  1  0  0  0
 14 15  2  0  0  0
 14 16  1  0  0  0
 16 17  1  0  0  0
 17 18  2  0  0  0
 13 20  1  0  0  0
 20 21  2  0  0  0
 21 22  1  0  0  0
 22 23  1  0  0  0
 23 24  2  0  0  0
 24 25  1  0  0  0
 25 26  2  0  0  0
 26 27  1  0  0  0
 27 28  2  0  0  0
  3  4  2  0  0  0
  4  5  1  0  0  0
  5  6  2  0  0  0
  6  7  1  0  0  0
  6  8  1  0  0  0
  8  9  2  0  0  0
  9 10  1  0  0  0
 10 11  2  0  0  0
 36 31  1  0  0  0
 11  1  1  0  0  0
 17 12  1  0  0  0
 28 20  1  0  0  0
 10  4  1  0  0  0
 28 23  1  0  0  0
 16 19  1  0  0  0
 22 29  1  0  0  0
M  END
> <minimizedAffinity>
-6.30783

> <CNNscore>
0.1085497513

> <CNNaffinity>
5.4778113365

> <CNN_VS>
0.5946150422

> <CNNaffinity_variance>
0.2745909989

$$$$
[H]c1c(F)c([H])c2c(C3=C(c4c([H])n([H])c5c([H])c([H])c([H])c([H])c45)C(=O)N([H])C3=O)nc(N3C([H])([H])C([H])([H])N(C([H])([H])[H])C([H])([H])C3([H])[H])nc2c1[H]


 36 41  0  0  0  0  0  0  0  0999 V2000
   39.7525   16.2419   -7.7621 C   0  0  0  0  0  0  0  0  0  0  0  0
   38.7698   17.1063   -7.4502 N   0  0  0  0  0  0  0  0  0  0  0  0
   37.6990   17.3491   -8.2507 C   0  0  0  0  0  0  0  0  0  0  0  0
   37.6389   16.6641   -9.4419 C   0  0  0  0  0  0  0  0  0  0  0  0
   36.6117   16.8665  -10.3203 C   0  0  0  0  0  0  0  0  0  0  0  0
   36.5705   16.1858  -11.5256 C   0  0  0  0  0  0  0  0  0  0  0  0
   35.5315   16.4209  -12.3603 F   0  0  0  0  0  0  0  0  0  0  0  0
   37.5720   15.2978  -11.8462 C   0  0  0  0  0  0  0  0  0  0  0  0
   38.6205   15.0734  -10.9856 C   0  0  0  0  0  0  0  0  0  0  0  0
   38.6535   15.7569   -9.7865 C   0  0  0  0  0  0  0  0  0  0  0  0
   39.6673   15.5852   -8.9295 N   0  0  0  0  0  0  0  0  0  0  0  0
   36.6788   18.3055   -7.8336 C   0  0  0  0  0  0  0  0  0  0  0  0
   35.5259   17.9291   -7.2307 C   0  0  0  0  0  0  0  0  0  0  0  0
   34.7588   19.1379   -6.9707 C   0  0  0  0  0  0  0  0  0  0  0  0
   33.6176   19.1830   -6.4069 O   0  0  0  0  0  0  0  0  0  0  0  0
   35.4795   20.2526   -7.4399 N   0  0  0  0  0  0  0  0  0  0  0  0
   36.6792   19.7554   -7.9834 C   0  0  0  0  0  0  0  0  0  0  0  0
   37.5584   20.5084   -8.5002 O   0  0  0  0  0  0  0  0  0  0  0  0
   35.1408   21.2508   -7.3733 H   0  0  0  0  0  0  0  0  0  0  0  0
   35.1602   16.5624   -6.8829 C   0  0  0  0  0  0  0  0  0  0  0  0
   34.2524   15.7960   -7.5977 C   0  0  0  0  0  0  0  0  0  0  0  0
   34.1258   14.6015   -7.0116 N   0  0  0  0  0  0  0  0  0  0  0  0
   34.9192   14.5307   -5.9193 C   0  0  0  0  0  0  0  0  0  0  0  0
   35.1304   13.5301   -4.9990 C   0  0  0  0  0  0  0  0  0  0  0  0
   36.0132   13.7647   -3.9685 C   0  0  0  0  0  0  0  0  0  0  0  0
   36.6524   14.9818   -3.8891 C   0  0  0  0  0  0  0  0  0  0  0  0
   36.4376   15.9831   -4.8144 C   0  0  0  0  0  0  0  0  0  0  0  0
   35.5671   15.7639   -5.8407 C   0  0  0  0  0  0  0  0  0  0  0  0
   33.5173   13.7893   -7.3036 H   0  0  0  0  0  0  0  0  0  0  0  0
   42.7538   13.2882   -5.3444 C   0  0  0  0  0  0  0  0  0  0  0  0
   42.8832   14.6953   -5.6047 N   0  0  0  0  0  0  0  0  0  0  0  0
   42.0002   15.5186   -4.8611 C   0  0  0  0  0  0  0  0  0  0  0  0
   40.6121   15.6735   -5.4959 C   0  0  0  0  0  0  0  0  0  0  0  0
   40.8323   16.0465   -6.8669 N   0  0  0  0  0  0  0  0  0  0  0  0
   42.1865   16.2161   -7.3133 C   0  0  0  0  0  0  0  0  0  0  0  0
   42.8934   14.9148   -7.0100 C   0  0  0  0  0  0  0  0  0  0  0  0
 30 31  1  0  0  0
 31 32  1  0  0  0
 32 33  1  0  0  0
 33 34  1  0  0  0
 34 35  1  0  0  0
 35 36  1  0  0  0
 34  1  1  0  0  0
  1  2  2  0  0  0
  2  3  1  0  0  0
  3 12  1  0  0  0
 12 13  2  0  0  0
 13 14  1  0  0  0
 14 15  2  0  0  0
 14 16  1  0  0  0
 16 17  1  0  0  0
 17 18  2  0  0  0
 13 20  1  0  0  0
 20 21  2  0  0  0
 21 22  1  0  0  0
 22 23  1  0  0  0
 23 24  2  0  0  0
 24 25  1  0  0  0
 25 26  2  0  0  0
 26 27  1  0  0  0
 27 28  2  0  0  0
  3  4  2  0  0  0
  4  5  1  0  0  0
  5  6  2  0  0  0
  6  7  1  0  0  0
  6  8  1  0  0  0
  8  9  2  0  0  0
  9 10  1  0  0  0
 10 11  2  0  0  0
 36 31  1  0  0  0
 11  1  1  0  0  0
 17 12  1  0  0  0
 28 20  1  0  0  0
 10  4  1  0  0  0
 28 23  1  0  0  0
 16 19  1  0  0  0
 22 29  1  0  0  0
M  END
> <minimizedAffinity>
-6.62496

> <CNNscore>
0.1025283560

> <CNNaffinity>
5.6145224571

> <CNN_VS>
0.5756477714

> <CNNaffinity_variance>
0.3428914249

$$$$
[H]c1c(F)c([H])c2c(C3=C(c4c([H])n([H])c5c([H])c([H])c([H])c([H])c45)C(=O)N([H])C3=O)nc(N3C([H])([H])C([H])([H])N(C([H])([H])[H])C([H])([H])C3([H])[H])nc2c1[H]


 36 41  0  0  0  0  0  0  0  0999 V2000
   33.2896   15.8485   -9.8239 C   0  0  0  0  0  0  0  0  0  0  0  0
   33.7065   16.5316   -8.7424 N   0  0  0  0  0  0  0  0  0  0  0  0
   32.9412   16.7316   -7.6375 C   0  0  0  0  0  0  0  0  0  0  0  0
   31.6728   16.1996   -7.6490 C   0  0  0  0  0  0  0  0  0  0  0  0
   30.8252   16.3753   -6.5915 C   0  0  0  0  0  0  0  0  0  0  0  0
   29.5435   15.8518   -6.6210 C   0  0  0  0  0  0  0  0  0  0  0  0
   28.7433   16.0526   -5.5483 F   0  0  0  0  0  0  0  0  0  0  0  0
   29.1151   15.1489   -7.7241 C   0  0  0  0  0  0  0  0  0  0  0  0
   29.9422   14.9566   -8.8054 C   0  0  0  0  0  0  0  0  0  0  0  0
   31.2182   15.4826   -8.7672 C   0  0  0  0  0  0  0  0  0  0  0  0
   32.0484   15.3380   -9.8072 N   0  0  0  0  0  0  0  0  0  0  0  0
   33.4740   17.4871   -6.5085 C   0  0  0  0  0  0  0  0  0  0  0  0
   34.3457   16.9557   -5.6186 C   0  0  0  0  0  0  0  0  0  0  0  0
   34.6465   17.9879   -4.6381 C   0  0  0  0  0  0  0  0  0  0  0  0
   35.4367   17.8596   -3.6475 O   0  0  0  0  0  0  0  0  0  0  0  0
   33.9262   19.1542   -4.9590 N   0  0  0  0  0  0  0  0  0  0  0  0
   33.1871   18.8628   -6.1212 C   0  0  0  0  0  0  0  0  0  0  0  0
   32.4215   19.7088   -6.6736 O   0  0  0  0  0  0  0  0  0  0  0  0
   33.9669   20.0506   -4.4019 H   0  0  0  0  0  0  0  0  0  0  0  0
   34.8958   15.6078   -5.6750 C   0  0  0  0  0  0  0  0  0  0  0  0
   34.2766   14.4934   -5.1300 C   0  0  0  0  0  0  0  0  0  0  0  0
   35.0439   13.4183   -5.3346 N   0  0  0  0  0  0  0  0  0  0  0  0
   36.1670   13.7662   -6.0019 C   0  0  0  0  0  0  0  0  0  0  0  0
   37.2469   13.0301   -6.4318 C   0  0  0  0  0  0  0  0  0  0  0  0
   38.2631   13.6841   -7.0923 C   0  0  0  0  0  0  0  0  0  0  0  0
   38.1706   15.0420   -7.3008 C   0  0  0  0  0  0  0  0  0  0  0  0
   37.0854   15.7768   -6.8678 C   0  0  0  0  0  0  0  0  0  0  0  0
   36.0714   15.1419   -6.2137 C   0  0  0  0  0  0  0  0  0  0  0  0
   34.8622   12.4188   -5.0464 H   0  0  0  0  0  0  0  0  0  0  0  0
   36.5441   13.2210  -12.2901 C   0  0  0  0  0  0  0  0  0  0  0  0
   35.7652   14.3445  -12.7320 N   0  0  0  0  0  0  0  0  0  0  0  0
   36.1703   15.5932  -12.1962 C   0  0  0  0  0  0  0  0  0  0  0  0
   35.5716   15.9016  -10.8177 C   0  0  0  0  0  0  0  0  0  0  0  0
   34.1550   15.6844  -10.9328 N   0  0  0  0  0  0  0  0  0  0  0  0
   33.6320   15.2909  -12.2110 C   0  0  0  0  0  0  0  0  0  0  0  0
   34.3823   14.0383  -12.6027 C   0  0  0  0  0  0  0  0  0  0  0  0
 30 31  1  0  0  0
 31 32  1  0  0  0
 32 33  1  0  0  0
 33 34  1  0  0  0
 34 35  1  0  0  0
 35 36  1  0  0  0
 34  1  1  0  0  0
  1  2  2  0  0  0
  2  3  1  0  0  0
  3 12  1  0  0  0
 12 13  2  0  0  0
 13 14  1  0  0  0
 14 15  2  0  0  0
 14 16  1  0  0  0
 16 17  1  0  0  0
 17 18  2  0  0  0
 13 20  1  0  0  0
 20 21  2  0  0  0
 21 22  1  0  0  0
 22 23  1  0  0  0
 23 24  2  0  0  0
 24 25  1  0  0  0
 25 26  2  0  0  0
 26 27  1  0  0  0
 27 28  2  0  0  0
  3  4  2  0  0  0
  4  5  1  0  0  0
  5  6  2  0  0  0
  6  7  1  0  0  0
  6  8  1  0  0  0
  8  9  2  0  0  0
  9 10  1  0  0  0
 10 11  2  0  0  0
 36 31  1  0  0  0
 11  1  1  0  0  0
 17 12  1  0  0  0
 28 20  1  0  0  0
 10  4  1  0  0  0
 28 23  1  0  0  0
 16 19  1  0  0  0
 22 29  1  0  0  0
M  END
> <minimizedAffinity>
-7.18817

> <CNNscore>
0.0983197391

> <CNNaffinity>
5.6995697021

> <CNN_VS>
0.5603802204

> <CNNaffinity_variance>
0.8013504744

$$$$
[H]c1c(F)c([H])c2c(C3=C(c4c([H])n([H])c5c([H])c([H])c([H])c([H])c45)C(=O)N([H])C3=O)nc(N3C([H])([H])C([H])([H])N(C([H])([H])[H])C([H])([H])C3([H])[H])nc2c1[H]


 36 41  0  0  0  0  0  0  0  0999 V2000
   40.2320   15.6655   -9.1350 C   0  0  0  0  0  0  0  0  0  0  0  0
   41.1309   14.9625   -8.4224 N   0  0  0  0  0  0  0  0  0  0  0  0
   40.9344   14.5764   -7.1344 C   0  0  0  0  0  0  0  0  0  0  0  0
   39.7446   14.9380   -6.5465 C   0  0  0  0  0  0  0  0  0  0  0  0
   39.4743   14.6153   -5.2463 C   0  0  0  0  0  0  0  0  0  0  0  0
   38.2814   15.0007   -4.6578 C   0  0  0  0  0  0  0  0  0  0  0  0
   38.0612   14.6557   -3.3679 F   0  0  0  0  0  0  0  0  0  0  0  0
   37.3578   15.7165   -5.3851 C   0  0  0  0  0  0  0  0  0  0  0  0
   37.6003   16.0591   -6.6943 C   0  0  0  0  0  0  0  0  0  0  0  0
   38.7925   15.6711   -7.2725 C   0  0  0  0  0  0  0  0  0  0  0  0
   39.0786   16.0028   -8.5373 N   0  0  0  0  0  0  0  0  0  0  0  0
   41.9653   13.8160   -6.4358 C   0  0  0  0  0  0  0  0  0  0  0  0
   43.0800   14.3918   -5.9257 C   0  0  0  0  0  0  0  0  0  0  0  0
   43.8726   13.3350   -5.3155 C   0  0  0  0  0  0  0  0  0  0  0  0
   44.9901   13.4949   -4.7259 O   0  0  0  0  0  0  0  0  0  0  0  0
   43.2067   12.1053   -5.4781 N   0  0  0  0  0  0  0  0  0  0  0  0
   42.0158   12.3825   -6.1759 C   0  0  0  0  0  0  0  0  0  0  0  0
   41.1825   11.4803   -6.4899 O   0  0  0  0  0  0  0  0  0  0  0  0
   43.5730   11.1794   -5.1256 H   0  0  0  0  0  0  0  0  0  0  0  0
   43.3886   15.8152   -5.9609 C   0  0  0  0  0  0  0  0  0  0  0  0
   44.2098   16.4081   -6.9077 C   0  0  0  0  0  0  0  0  0  0  0  0
   44.3034   17.7168   -6.6528 N   0  0  0  0  0  0  0  0  0  0  0  0
   43.5714   18.0335   -5.5612 C   0  0  0  0  0  0  0  0  0  0  0  0
   43.3582   19.2273   -4.9113 C   0  0  0  0  0  0  0  0  0  0  0  0
   42.5505   19.2297   -3.7959 C   0  0  0  0  0  0  0  0  0  0  0  0
   41.9857   18.0494   -3.3671 C   0  0  0  0  0  0  0  0  0  0  0  0
   42.2021   16.8539   -4.0221 C   0  0  0  0  0  0  0  0  0  0  0  0
   42.9986   16.8372   -5.1286 C   0  0  0  0  0  0  0  0  0  0  0  0
   44.8481   18.4504   -7.1822 H   0  0  0  0  0  0  0  0  0  0  0  0
   41.3388   14.4222  -13.6964 C   0  0  0  0  0  0  0  0  0  0  0  0
   40.8328   15.6701  -13.1954 N   0  0  0  0  0  0  0  0  0  0  0  0
   41.7705   16.4352  -12.4565 C   0  0  0  0  0  0  0  0  0  0  0  0
   41.8645   16.0422  -10.9764 C   0  0  0  0  0  0  0  0  0  0  0  0
   40.5172   16.0240  -10.4750 N   0  0  0  0  0  0  0  0  0  0  0  0
   39.4553   16.3794  -11.3741 C   0  0  0  0  0  0  0  0  0  0  0  0
   39.5805   15.4485  -12.5586 C   0  0  0  0  0  0  0  0  0  0  0  0
 30 31  1  0  0  0
 31 32  1  0  0  0
 32 33  1  0  0  0
 33 34  1  0  0  0
 34 35  1  0  0  0
 35 36  1  0  0  0
 34  1  1  0  0  0
  1  2  2  0  0  0
  2  3  1  0  0  0
  3 12  1  0  0  0
 12 13  2  0  0  0
 13 14  1  0  0  0
 14 15  2  0  0  0
 14 16  1  0  0  0
 16 17  1  0  0  0
 17 18  2  0  0  0
 13 20  1  0  0  0
 20 21  2  0  0  0
 21 22  1  0  0  0
 22 23  1  0  0  0
 23 24  2  0  0  0
 24 25  1  0  0  0
 25 26  2  0  0  0
 26 27  1  0  0  0
 27 28  2  0  0  0
  3  4  2  0  0  0
  4  5  1  0  0  0
  5  6  2  0  0  0
  6  7  1  0  0  0
  6  8  1  0  0  0
  8  9  2  0  0  0
  9 10  1  0  0  0
 10 11  2  0  0  0
 36 31  1  0  0  0
 11  1  1  0  0  0
 17 12  1  0  0  0
 28 20  1  0  0  0
 10  4  1  0  0  0
 28 23  1  0  0  0
 16 19  1  0  0  0
 22 29  1  0  0  0
M  END
> <minimizedAffinity>
-6.31857

> <CNNscore>
0.0716164038

> <CNNaffinity>
5.2316317558

> <CNN_VS>
0.3746706545

> <CNNaffinity_variance>
0.1811987162

$$$$
[H]c1c(F)c([H])c2c(C3=C(c4c([H])n([H])c5c([H])c([H])c([H])c([H])c45)C(=O)N([H])C3=O)nc(N3C([H])([H])C([H])([H])N(C([H])([H])[H])C([H])([H])C3([H])[H])nc2c1[H]


 36 41  0  0  0  0  0  0  0  0999 V2000
   39.5277   15.2275   -8.3954 C   0  0  0  0  0  0  0  0  0  0  0  0
   40.6332   15.9885   -8.3011 N   0  0  0  0  0  0  0  0  0  0  0  0
   41.8023   15.5539   -7.7617 C   0  0  0  0  0  0  0  0  0  0  0  0
   41.8328   14.2622   -7.2899 C   0  0  0  0  0  0  0  0  0  0  0  0
   42.9584   13.7512   -6.7072 C   0  0  0  0  0  0  0  0  0  0  0  0
   42.9728   12.4557   -6.2182 C   0  0  0  0  0  0  0  0  0  0  0  0
   44.1124   11.9964   -5.6509 F   0  0  0  0  0  0  0  0  0  0  0  0
   41.8448   11.6730   -6.3166 C   0  0  0  0  0  0  0  0  0  0  0  0
   40.6957   12.1579   -6.8949 C   0  0  0  0  0  0  0  0  0  0  0  0
   40.6905   13.4509   -7.3792 C   0  0  0  0  0  0  0  0  0  0  0  0
   39.5863   13.9702   -7.9294 N   0  0  0  0  0  0  0  0  0  0  0  0
   42.9532   16.4486   -7.6984 C   0  0  0  0  0  0  0  0  0  0  0  0
   43.8677   16.5360   -8.6937 C   0  0  0  0  0  0  0  0  0  0  0  0
   44.8644   17.5124   -8.2812 C   0  0  0  0  0  0  0  0  0  0  0  0
   45.8795   17.8671   -8.9638 O   0  0  0  0  0  0  0  0  0  0  0  0
   44.5279   18.0061   -7.0063 N   0  0  0  0  0  0  0  0  0  0  0  0
   43.3402   17.3544   -6.6238 C   0  0  0  0  0  0  0  0  0  0  0  0
   42.7687   17.5725   -5.5135 O   0  0  0  0  0  0  0  0  0  0  0  0
   45.0922   18.7273   -6.4799 H   0  0  0  0  0  0  0  0  0  0  0  0
   43.8202   15.8043   -9.9526 C   0  0  0  0  0  0  0  0  0  0  0  0
   43.2145   16.2811  -11.1051 C   0  0  0  0  0  0  0  0  0  0  0  0
   43.3286   15.3673  -12.0738 N   0  0  0  0  0  0  0  0  0  0  0  0
   43.9931   14.2824  -11.6164 C   0  0  0  0  0  0  0  0  0  0  0  0
   44.3481   13.0987  -12.2210 C   0  0  0  0  0  0  0  0  0  0  0  0
   45.0289   12.1619  -11.4758 C   0  0  0  0  0  0  0  0  0  0  0  0
   45.3313   12.4337  -10.1602 C   0  0  0  0  0  0  0  0  0  0  0  0
   44.9732   13.6226   -9.5574 C   0  0  0  0  0  0  0  0  0  0  0  0
   44.2999   14.5596  -10.2839 C   0  0  0  0  0  0  0  0  0  0  0  0
   42.9772   15.4188  -13.0682 H   0  0  0  0  0  0  0  0  0  0  0  0
   36.5355   15.7137  -12.1885 C   0  0  0  0  0  0  0  0  0  0  0  0
   36.2923   15.9970  -10.8011 N   0  0  0  0  0  0  0  0  0  0  0  0
   36.9523   17.1511  -10.3081 C   0  0  0  0  0  0  0  0  0  0  0  0
   38.3960   16.8958   -9.8561 C   0  0  0  0  0  0  0  0  0  0  0  0
   38.3508   15.7599   -8.9759 N   0  0  0  0  0  0  0  0  0  0  0  0
   37.0718   15.1696   -8.6974 C   0  0  0  0  0  0  0  0  0  0  0  0
   36.4755   14.8100  -10.0392 C   0  0  0  0  0  0  0  0  0  0  0  0
 30 31  1  0  0  0
 31 32  1  0  0  0
 32 33  1  0  0  0
 33 34  1  0  0  0
 34 35  1  0  0  0
 35 36  1  0  0  0
 34  1  1  0  0  0
  1  2  2  0  0  0
  2  3  1  0  0  0
  3 12  1  0  0  0
 12 13  2  0  0  0
 13 14  1  0  0  0
 14 15  2  0  0  0
 14 16  1  0  0  0
 16 17  1  0  0  0
 17 18  2  0  0  0
 13 20  1  0  0  0
 20 21  2  0  0  0
 21 22  1  0  0  0
 22 23  1  0  0  0
 23 24  2  0  0  0
 24 25  1  0  0  0
 25 26  2  0  0  0
 26 27  1  0  0  0
 27 28  2  0  0  0
  3  4  2  0  0  0
  4  5  1  0  0  0
  5  6  2  0  0  0
  6  7  1  0  0  0
  6  8  1  0  0  0
  8  9  2  0  0  0
  9 10  1  0  0  0
 10 11  2  0  0  0
 36 31  1  0  0  0
 11  1  1  0  0  0
 17 12  1  0  0  0
 28 20  1  0  0  0
 10  4  1  0  0  0
 28 23  1  0  0  0
 16 19  1  0  0  0
 22 29  1  0  0  0
M  END
> <minimizedAffinity>
-6.32862

> <CNNscore>
0.0592393540

> <CNNaffinity>
5.1689672470

> <CNN_VS>
0.3062062860

> <CNNaffinity_variance>
0.1959256083

$$$$
[H]Oc1c([H])c2c(c([H])c1O[H])C([H])([H])C([H])([H])N(C(=O)c1c([H])c(C(C([H])([H])[H])(C([H])([H])[H])C([H])([H])[H])c(O[H])c([H])c1O[H])C2([H])[H]


 30 32  0  0  0  0  0  0  0  0999 V2000
   37.7695   12.6613  -13.5990 C   0  0  0  0  0  0  0  0  0  0  0  0
   37.4917   11.4943  -13.0254 O   0  0  0  0  0  0  0  0  0  0  0  0
   37.1033   13.7705  -13.0560 N   0  0  0  0  0  0  0  0  0  0  0  0
   37.2010   15.0863  -13.5415 C   0  0  0  0  0  0  0  0  0  0  0  0
   35.9835   15.8932  -13.0345 C   0  0  0  0  0  0  0  0  0  0  0  0
   36.1096   15.8921  -11.5683 C   0  0  0  0  0  0  0  0  0  0  0  0
   36.0961   16.9863  -10.7771 C   0  0  0  0  0  0  0  0  0  0  0  0
   36.2218   16.8926   -9.3814 C   0  0  0  0  0  0  0  0  0  0  0  0
   36.1976   18.0681   -8.6449 O   0  0  0  0  0  0  0  0  0  0  0  0
   36.3638   15.6512   -8.7919 C   0  0  0  0  0  0  0  0  0  0  0  0
   36.4891   15.5197   -7.4335 O   0  0  0  0  0  0  0  0  0  0  0  0
   36.3804   14.4997   -9.5964 C   0  0  0  0  0  0  0  0  0  0  0  0
   36.2552   14.6382  -10.9483 C   0  0  0  0  0  0  0  0  0  0  0  0
   36.2636   13.4881  -11.8665 C   0  0  0  0  0  0  0  0  0  0  0  0
   36.2775   18.1229   -7.6595 H   0  0  0  0  0  0  0  0  0  0  0  0
   36.4917   16.2517   -6.7664 H   0  0  0  0  0  0  0  0  0  0  0  0
   39.3454   11.8039  -16.9182 C   0  0  0  0  0  0  0  0  0  0  0  0
   38.4494   11.8696  -15.8303 C   0  0  0  0  0  0  0  0  0  0  0  0
   38.7022   12.5539  -14.6729 C   0  0  0  0  0  0  0  0  0  0  0  0
   39.9260   13.2401  -14.5490 C   0  0  0  0  0  0  0  0  0  0  0  0
   40.2264   13.9595  -13.3726 O   0  0  0  0  0  0  0  0  0  0  0  0
   40.7987   13.1869  -15.5879 C   0  0  0  0  0  0  0  0  0  0  0  0
   40.5255   12.4779  -16.7704 C   0  0  0  0  0  0  0  0  0  0  0  0
   41.4724   12.4758  -17.7748 O   0  0  0  0  0  0  0  0  0  0  0  0
   41.0765   14.4521  -13.2534 H   0  0  0  0  0  0  0  0  0  0  0  0
   41.3453   11.9931  -18.6193 H   0  0  0  0  0  0  0  0  0  0  0  0
   39.1299   11.8123  -19.4150 C   0  0  0  0  0  0  0  0  0  0  0  0
   38.9623   11.0351  -18.1394 C   0  0  0  0  0  0  0  0  0  0  0  0
   37.4764   10.6460  -18.0991 C   0  0  0  0  0  0  0  0  0  0  0  0
   39.7222    9.7204  -18.1578 C   0  0  0  0  0  0  0  0  0  0  0  0
 27 28  1  0  0  0
 28 29  1  0  0  0
 28 30  1  0  0  0
 28 17  1  0  0  0
 17 18  2  0  0  0
 18 19  1  0  0  0
 19  1  1  0  0  0
  1  2  2  0  0  0
  1  3  1  0  0  0
  3  4  1  0  0  0
  4  5  1  0  0  0
  5  6  1  0  0  0
  6  7  2  0  0  0
  7  8  1  0  0  0
  8  9  1  0  0  0
  8 10  2  0  0  0
 10 11  1  0  0  0
 10 12  1  0  0  0
 12 13  2  0  0  0
 13 14  1  0  0  0
 19 20  2  0  0  0
 20 21  1  0  0  0
 20 22  1  0  0  0
 22 23  2  0  0  0
 23 24  1  0  0  0
 23 17  1  0  0  0
 14  3  1  0  0  0
 13  6  1  0  0  0
  9 15  1  0  0  0
 11 16  1  0  0  0
 21 25  1  0  0  0
 24 26  1  0  0  0
M  END
> <minimizedAffinity>
-6.90427

> <CNNscore>
0.2871726155

> <CNNaffinity>
5.6274719238

> <CNN_VS>
1.6160558462

> <CNNaffinity_variance>
0.2522234023

$$$$
[H]Oc1c([H])c2c(c([H])c1O[H])C([H])([H])C([H])([H])N(C(=O)c1c([H])c(C(C([H])([H])[H])(C([H])([H])[H])C([H])([H])[H])c(O[H])c([H])c1O[H])C2([H])[H]


 30 32  0  0  0  0  0  0  0  0999 V2000
   39.1739   15.3927  -12.4731 C   0  0  0  0  0  0  0  0  0  0  0  0
   40.0921   16.2263  -12.9526 O   0  0  0  0  0  0  0  0  0  0  0  0
   38.7498   15.6568  -11.1619 N   0  0  0  0  0  0  0  0  0  0  0  0
   37.8340   14.8734  -10.4378 C   0  0  0  0  0  0  0  0  0  0  0  0
   38.0075   15.1739   -8.9311 C   0  0  0  0  0  0  0  0  0  0  0  0
   37.6692   16.5987   -8.7855 C   0  0  0  0  0  0  0  0  0  0  0  0
   36.7666   17.1080   -7.9199 C   0  0  0  0  0  0  0  0  0  0  0  0
   36.5064   18.4863   -7.8470 C   0  0  0  0  0  0  0  0  0  0  0  0
   35.5628   18.9232   -6.9285 O   0  0  0  0  0  0  0  0  0  0  0  0
   37.1875   19.3533   -8.6795 C   0  0  0  0  0  0  0  0  0  0  0  0
   36.9608   20.7043   -8.6373 O   0  0  0  0  0  0  0  0  0  0  0  0
   38.1310   18.8446   -9.5875 C   0  0  0  0  0  0  0  0  0  0  0  0
   38.3516   17.4983   -9.6239 C   0  0  0  0  0  0  0  0  0  0  0  0
   39.3193   16.8788  -10.5436 C   0  0  0  0  0  0  0  0  0  0  0  0
   35.2994   19.8677   -6.7901 H   0  0  0  0  0  0  0  0  0  0  0  0
   36.3253   21.1789   -8.0444 H   0  0  0  0  0  0  0  0  0  0  0  0
   37.1181   13.0139  -14.5591 C   0  0  0  0  0  0  0  0  0  0  0  0
   37.5037   13.9808  -13.6066 C   0  0  0  0  0  0  0  0  0  0  0  0
   38.7971   14.3755  -13.3994 C   0  0  0  0  0  0  0  0  0  0  0  0
   39.8137   13.7904  -14.1795 C   0  0  0  0  0  0  0  0  0  0  0  0
   41.1610   14.1697  -13.9991 O   0  0  0  0  0  0  0  0  0  0  0  0
   39.4584   12.8586  -15.1010 C   0  0  0  0  0  0  0  0  0  0  0  0
   38.1248   12.4619  -15.3010 C   0  0  0  0  0  0  0  0  0  0  0  0
   37.8554   11.5050  -16.2588 O   0  0  0  0  0  0  0  0  0  0  0  0
   41.8988   13.7785  -14.5302 H   0  0  0  0  0  0  0  0  0  0  0  0
   36.9478   11.1798  -16.4396 H   0  0  0  0  0  0  0  0  0  0  0  0
   35.3826   11.8194  -15.9160 C   0  0  0  0  0  0  0  0  0  0  0  0
   35.6740   12.6655  -14.7084 C   0  0  0  0  0  0  0  0  0  0  0  0
   34.8204   13.9303  -14.8895 C   0  0  0  0  0  0  0  0  0  0  0  0
   35.1808   12.0280  -13.4213 C   0  0  0  0  0  0  0  0  0  0  0  0
 27 28  1  0  0  0
 28 29  1  0  0  0
 28 30  1  0  0  0
 28 17  1  0  0  0
 17 18  2  0  0  0
 18 19  1  0  0  0
 19  1  1  0  0  0
  1  2  2  0  0  0
  1  3  1  0  0  0
  3  4  1  0  0  0
  4  5  1  0  0  0
  5  6  1  0  0  0
  6  7  2  0  0  0
  7  8  1  0  0  0
  8  9  1  0  0  0
  8 10  2  0  0  0
 10 11  1  0  0  0
 10 12  1  0  0  0
 12 13  2  0  0  0
 13 14  1  0  0  0
 19 20  2  0  0  0
 20 21  1  0  0  0
 20 22  1  0  0  0
 22 23  2  0  0  0
 23 24  1  0  0  0
 23 17  1  0  0  0
 14  3  1  0  0  0
 13  6  1  0  0  0
  9 15  1  0  0  0
 11 16  1  0  0  0
 21 25  1  0  0  0
 24 26  1  0  0  0
M  END
> <minimizedAffinity>
-8.32729

> <CNNscore>
0.2662154734

> <CNNaffinity>
5.3542909622

> <CNN_VS>
1.4253951311

> <CNNaffinity_variance>
0.1422997862

$$$$
[H]Oc1c([H])c2c(c([H])c1O[H])C([H])([H])C([H])([H])N(C(=O)c1c([H])c(C(C([H])([H])[H])(C([H])([H])[H])C([H])([H])[H])c(O[H])c([H])c1O[H])C2([H])[H]


 30 32  0  0  0  0  0  0  0  0999 V2000
   37.8385   12.4772  -13.9035 C   0  0  0  0  0  0  0  0  0  0  0  0
   37.6693   11.3303  -13.2525 O   0  0  0  0  0  0  0  0  0  0  0  0
   37.1733   13.5834  -13.3533 N   0  0  0  0  0  0  0  0  0  0  0  0
   37.1646   14.8758  -13.9069 C   0  0  0  0  0  0  0  0  0  0  0  0
   35.9619   15.6552  -13.3269 C   0  0  0  0  0  0  0  0  0  0  0  0
   36.2210   15.7342  -11.8804 C   0  0  0  0  0  0  0  0  0  0  0  0
   36.2283   16.8656  -11.1435 C   0  0  0  0  0  0  0  0  0  0  0  0
   36.4849   16.8486   -9.7628 C   0  0  0  0  0  0  0  0  0  0  0  0
   36.4728   18.0581   -9.0831 O   0  0  0  0  0  0  0  0  0  0  0  0
   36.7380   15.6460   -9.1316 C   0  0  0  0  0  0  0  0  0  0  0  0
   36.9926   15.5894   -7.7861 O   0  0  0  0  0  0  0  0  0  0  0  0
   36.7353   14.4567   -9.8793 C   0  0  0  0  0  0  0  0  0  0  0  0
   36.4810   14.5208  -11.2187 C   0  0  0  0  0  0  0  0  0  0  0  0
   36.4597   13.3267  -12.0787 C   0  0  0  0  0  0  0  0  0  0  0  0
   36.6395   18.1664   -8.1131 H   0  0  0  0  0  0  0  0  0  0  0  0
   37.0217   16.3538   -7.1573 H   0  0  0  0  0  0  0  0  0  0  0  0
   40.8414   12.5359  -16.1873 C   0  0  0  0  0  0  0  0  0  0  0  0
   39.9962   12.7042  -15.0701 C   0  0  0  0  0  0  0  0  0  0  0  0
   38.6735   12.3548  -15.0535 C   0  0  0  0  0  0  0  0  0  0  0  0
   38.1109   11.7899  -16.2148 C   0  0  0  0  0  0  0  0  0  0  0  0
   36.7508   11.4142  -16.2401 O   0  0  0  0  0  0  0  0  0  0  0  0
   38.9118   11.6210  -17.2981 C   0  0  0  0  0  0  0  0  0  0  0  0
   40.2690   11.9867  -17.3005 C   0  0  0  0  0  0  0  0  0  0  0  0
   41.0079   11.7812  -18.4483 O   0  0  0  0  0  0  0  0  0  0  0  0
   36.3247   11.0149  -17.0392 H   0  0  0  0  0  0  0  0  0  0  0  0
   41.9561   12.0233  -18.5162 H   0  0  0  0  0  0  0  0  0  0  0  0
   43.2321   11.8859  -16.5646 C   0  0  0  0  0  0  0  0  0  0  0  0
   42.2745   12.9435  -16.0916 C   0  0  0  0  0  0  0  0  0  0  0  0
   42.6703   13.2194  -14.6327 C   0  0  0  0  0  0  0  0  0  0  0  0
   42.4652   14.2641  -16.8169 C   0  0  0  0  0  0  0  0  0  0  0  0
 27 28  1  0  0  0
 28 29  1  0  0  0
 28 30  1  0  0  0
 28 17  1  0  0  0
 17 18  2  0  0  0
 18 19  1  0  0  0
 19  1  1  0  0  0
  1  2  2  0  0  0
  1  3  1  0  0  0
  3  4  1  0  0  0
  4  5  1  0  0  0
  5  6  1  0  0  0
  6  7  2  0  0  0
  7  8  1  0  0  0
  8  9  1  0  0  0
  8 10  2  0  0  0
 10 11  1  0  0  0
 10 12  1  0  0  0
 12 13  2  0  0  0
 13 14  1  0  0  0
 19 20  2  0  0  0
 20 21  1  0  0  0
 20 22  1  0  0  0
 22 23  2  0  0  0
 23 24  1  0  0  0
 23 17  1  0  0  0
 14  3  1  0  0  0
 13  6  1  0  0  0
  9 15  1  0  0  0
 11 16  1  0  0  0
 21 25  1  0  0  0
 24 26  1  0  0  0
M  END
> <minimizedAffinity>
-6.60877

> <CNNscore>
0.2537056208

> <CNNaffinity>
5.4242362976

> <CNN_VS>
1.3761591911

> <CNNaffinity_variance>
0.1260289848

$$$$
[H]Oc1c([H])c2c(c([H])c1O[H])C([H])([H])C([H])([H])N(C(=O)c1c([H])c(C(C([H])([H])[H])(C([H])([H])[H])C([H])([H])[H])c(O[H])c([H])c1O[H])C2([H])[H]


 30 32  0  0  0  0  0  0  0  0999 V2000
   41.3187   16.2188  -11.9045 C   0  0  0  0  0  0  0  0  0  0  0  0
   40.4491   16.8415  -12.6945 O   0  0  0  0  0  0  0  0  0  0  0  0
   40.9101   16.0575  -10.5719 N   0  0  0  0  0  0  0  0  0  0  0  0
   41.6907   15.4827   -9.5536 C   0  0  0  0  0  0  0  0  0  0  0  0
   41.1279   15.9309   -8.1851 C   0  0  0  0  0  0  0  0  0  0  0  0
   39.7630   15.3828   -8.1365 C   0  0  0  0  0  0  0  0  0  0  0  0
   39.2571   14.6195   -7.1442 C   0  0  0  0  0  0  0  0  0  0  0  0
   37.9381   14.1383   -7.1791 C   0  0  0  0  0  0  0  0  0  0  0  0
   37.5002   13.3606   -6.1169 O   0  0  0  0  0  0  0  0  0  0  0  0
   37.1277   14.4490   -8.2540 C   0  0  0  0  0  0  0  0  0  0  0  0
   35.8354   13.9980   -8.3234 O   0  0  0  0  0  0  0  0  0  0  0  0
   37.6339   15.2420   -9.2973 C   0  0  0  0  0  0  0  0  0  0  0  0
   38.9217   15.6875   -9.2214 C   0  0  0  0  0  0  0  0  0  0  0  0
   39.5343   16.5210  -10.2682 C   0  0  0  0  0  0  0  0  0  0  0  0
   36.5944   12.9690   -6.0349 H   0  0  0  0  0  0  0  0  0  0  0  0
   35.3687   13.4359   -7.6549 H   0  0  0  0  0  0  0  0  0  0  0  0
   44.8763   16.1646  -13.1602 C   0  0  0  0  0  0  0  0  0  0  0  0
   43.6726   16.5650  -12.5425 C   0  0  0  0  0  0  0  0  0  0  0  0
   42.5165   15.8344  -12.5770 C   0  0  0  0  0  0  0  0  0  0  0  0
   42.5159   14.6055  -13.2656 C   0  0  0  0  0  0  0  0  0  0  0  0
   41.3451   13.8198  -13.3247 O   0  0  0  0  0  0  0  0  0  0  0  0
   43.6670   14.2061  -13.8648 C   0  0  0  0  0  0  0  0  0  0  0  0
   44.8468   14.9689  -13.8221 C   0  0  0  0  0  0  0  0  0  0  0  0
   45.9706   14.4864  -14.4624 O   0  0  0  0  0  0  0  0  0  0  0  0
   41.3109   12.9522  -13.7997 H   0  0  0  0  0  0  0  0  0  0  0  0
   46.8210   14.9753  -14.4767 H   0  0  0  0  0  0  0  0  0  0  0  0
   46.6061   17.5073  -14.3788 C   0  0  0  0  0  0  0  0  0  0  0  0
   46.0833   17.0366  -13.0506 C   0  0  0  0  0  0  0  0  0  0  0  0
   47.2526   16.2762  -12.4059 C   0  0  0  0  0  0  0  0  0  0  0  0
   45.7815   18.1867  -12.1059 C   0  0  0  0  0  0  0  0  0  0  0  0
 27 28  1  0  0  0
 28 29  1  0  0  0
 28 30  1  0  0  0
 28 17  1  0  0  0
 17 18  2  0  0  0
 18 19  1  0  0  0
 19  1  1  0  0  0
  1  2  2  0  0  0
  1  3  1  0  0  0
  3  4  1  0  0  0
  4  5  1  0  0  0
  5  6  1  0  0  0
  6  7  2  0  0  0
  7  8  1  0  0  0
  8  9  1  0  0  0
  8 10  2  0  0  0
 10 11  1  0  0  0
 10 12  1  0  0  0
 12 13  2  0  0  0
 13 14  1  0  0  0
 19 20  2  0  0  0
 20 21  1  0  0  0
 20 22  1  0  0  0
 22 23  2  0  0  0
 23 24  1  0  0  0
 23 17  1  0  0  0
 14  3  1  0  0  0
 13  6  1  0  0  0
  9 15  1  0  0  0
 11 16  1  0  0  0
 21 25  1  0  0  0
 24 26  1  0  0  0
M  END
> <minimizedAffinity>
-6.94283

> <CNNscore>
0.2434205413

> <CNNaffinity>
4.5773949623

> <CNN_VS>
1.1142319441

> <CNNaffinity_variance>
0.1627690196

$$$$
[H]Oc1c([H])c2c(c([H])c1O[H])C([H])([H])C([H])([H])N(C(=O)c1c([H])c(C(C([H])([H])[H])(C([H])([H])[H])C([H])([H])[H])c(O[H])c([H])c1O[H])C2([H])[H]


 30 32  0  0  0  0  0  0  0  0999 V2000
   38.1601   13.7258  -14.2125 C   0  0  0  0  0  0  0  0  0  0  0  0
   38.1962   14.6029  -13.2138 O   0  0  0  0  0  0  0  0  0  0  0  0
   39.3394   13.6256  -14.9661 N   0  0  0  0  0  0  0  0  0  0  0  0
   39.5052   12.8090  -16.0986 C   0  0  0  0  0  0  0  0  0  0  0  0
   40.7070   13.3348  -16.9170 C   0  0  0  0  0  0  0  0  0  0  0  0
   41.8680   13.1908  -16.0242 C   0  0  0  0  0  0  0  0  0  0  0  0
   43.0202   12.5562  -16.3290 C   0  0  0  0  0  0  0  0  0  0  0  0
   44.0813   12.4673  -15.4131 C   0  0  0  0  0  0  0  0  0  0  0  0
   45.2293   11.7966  -15.8095 O   0  0  0  0  0  0  0  0  0  0  0  0
   43.9525   13.0416  -14.1632 C   0  0  0  0  0  0  0  0  0  0  0  0
   44.9660   12.9756  -13.2430 O   0  0  0  0  0  0  0  0  0  0  0  0
   42.7621   13.7067  -13.8254 C   0  0  0  0  0  0  0  0  0  0  0  0
   41.7573   13.7685  -14.7468 C   0  0  0  0  0  0  0  0  0  0  0  0
   40.4769   14.4428  -14.4783 C   0  0  0  0  0  0  0  0  0  0  0  0
   46.0366   11.6721  -15.2498 H   0  0  0  0  0  0  0  0  0  0  0  0
   45.8460   12.5376  -13.3631 H   0  0  0  0  0  0  0  0  0  0  0  0
   35.2988   11.6587  -15.5453 C   0  0  0  0  0  0  0  0  0  0  0  0
   36.5113   12.3732  -15.4454 C   0  0  0  0  0  0  0  0  0  0  0  0
   36.9083   13.0511  -14.3253 C   0  0  0  0  0  0  0  0  0  0  0  0
   36.0655   13.0405  -13.1967 C   0  0  0  0  0  0  0  0  0  0  0  0
   36.4374   13.7258  -12.0204 O   0  0  0  0  0  0  0  0  0  0  0  0
   34.8953   12.3566  -13.2771 C   0  0  0  0  0  0  0  0  0  0  0  0
   34.5001   11.6662  -14.4359 C   0  0  0  0  0  0  0  0  0  0  0  0
   33.2913   10.9996  -14.4295 O   0  0  0  0  0  0  0  0  0  0  0  0
   35.8688   13.7382  -11.2105 H   0  0  0  0  0  0  0  0  0  0  0  0
   32.9556   10.5074  -15.2088 H   0  0  0  0  0  0  0  0  0  0  0  0
   33.5685   11.1953  -17.2978 C   0  0  0  0  0  0  0  0  0  0  0  0
   34.9696   10.9451  -16.8147 C   0  0  0  0  0  0  0  0  0  0  0  0
   35.0637    9.4227  -16.6286 C   0  0  0  0  0  0  0  0  0  0  0  0
   36.0138   11.2877  -17.8628 C   0  0  0  0  0  0  0  0  0  0  0  0
 27 28  1  0  0  0
 28 29  1  0  0  0
 28 30  1  0  0  0
 28 17  1  0  0  0
 17 18  2  0  0  0
 18 19  1  0  0  0
 19  1  1  0  0  0
  1  2  2  0  0  0
  1  3  1  0  0  0
  3  4  1  0  0  0
  4  5  1  0  0  0
  5  6  1  0  0  0
  6  7  2  0  0  0
  7  8  1  0  0  0
  8  9  1  0  0  0
  8 10  2  0  0  0
 10 11  1  0  0  0
 10 12  1  0  0  0
 12 13  2  0  0  0
 13 14  1  0  0  0
 19 20  2  0  0  0
 20 21  1  0  0  0
 20 22  1  0  0  0
 22 23  2  0  0  0
 23 24  1  0  0  0
 23 17  1  0  0  0
 14  3  1  0  0  0
 13  6  1  0  0  0
  9 15  1  0  0  0
 11 16  1  0  0  0
 21 25  1  0  0  0
 24 26  1  0  0  0
M  END
> <minimizedAffinity>
-8.39599

> <CNNscore>
0.2362653017

> <CNNaffinity>
5.9791173935

> <CNN_VS>
1.4126579762

> <CNNaffinity_variance>
0.0571324006

$$$$
[H]Oc1c([H])c2c(c([H])c1O[H])C([H])([H])C([H])([H])N(C(=O)c1c([H])c(C(C([H])([H])[H])(C([H])([H])[H])C([H])([H])[H])c(O[H])c([H])c1O[H])C2([H])[H]


 30 32  0  0  0  0  0  0  0  0999 V2000
   42.2479   13.2031  -15.1712 C   0  0  0  0  0  0  0  0  0  0  0  0
   43.1104   12.5782  -15.9671 O   0  0  0  0  0  0  0  0  0  0  0  0
   42.8230   14.0372  -14.2004 N   0  0  0  0  0  0  0  0  0  0  0  0
   42.1066   14.7461  -13.2201 C   0  0  0  0  0  0  0  0  0  0  0  0
   43.0734   15.1197  -12.0730 C   0  0  0  0  0  0  0  0  0  0  0  0
   44.0765   16.0009  -12.6920 C   0  0  0  0  0  0  0  0  0  0  0  0
   44.4235   17.2289  -12.2509 C   0  0  0  0  0  0  0  0  0  0  0  0
   45.3956   18.0035  -12.9049 C   0  0  0  0  0  0  0  0  0  0  0  0
   45.6908   19.2547  -12.3832 O   0  0  0  0  0  0  0  0  0  0  0  0
   46.0199   17.5040  -14.0317 C   0  0  0  0  0  0  0  0  0  0  0  0
   46.9731   18.2301  -14.6968 O   0  0  0  0  0  0  0  0  0  0  0  0
   45.6739   16.2284  -14.5078 C   0  0  0  0  0  0  0  0  0  0  0  0
   44.7238   15.5111  -13.8405 C   0  0  0  0  0  0  0  0  0  0  0  0
   44.2988   14.1688  -14.2688 C   0  0  0  0  0  0  0  0  0  0  0  0
   46.3555   19.8848  -12.7594 H   0  0  0  0  0  0  0  0  0  0  0  0
   47.2996   19.1345  -14.4597 H   0  0  0  0  0  0  0  0  0  0  0  0
   38.4932   12.9261  -14.9238 C   0  0  0  0  0  0  0  0  0  0  0  0
   39.8474   13.1789  -14.6191 C   0  0  0  0  0  0  0  0  0  0  0  0
   40.8861   12.8950  -15.4631 C   0  0  0  0  0  0  0  0  0  0  0  0
   40.5987   12.3178  -16.7154 C   0  0  0  0  0  0  0  0  0  0  0  0
   41.6402   12.0103  -17.6168 O   0  0  0  0  0  0  0  0  0  0  0  0
   39.2999   12.0691  -17.0236 C   0  0  0  0  0  0  0  0  0  0  0  0
   38.2434   12.3647  -16.1450 C   0  0  0  0  0  0  0  0  0  0  0  0
   36.9529   12.0752  -16.5403 O   0  0  0  0  0  0  0  0  0  0  0  0
   41.4727   11.6046  -18.5038 H   0  0  0  0  0  0  0  0  0  0  0  0
   36.1742   12.2491  -15.9696 H   0  0  0  0  0  0  0  0  0  0  0  0
   36.3275   14.1172  -14.5099 C   0  0  0  0  0  0  0  0  0  0  0  0
   37.4377   13.2857  -13.9310 C   0  0  0  0  0  0  0  0  0  0  0  0
   38.0226   14.1348  -12.7917 C   0  0  0  0  0  0  0  0  0  0  0  0
   36.9272   12.0187  -13.2673 C   0  0  0  0  0  0  0  0  0  0  0  0
 27 28  1  0  0  0
 28 29  1  0  0  0
 28 30  1  0  0  0
 28 17  1  0  0  0
 17 18  2  0  0  0
 18 19  1  0  0  0
 19  1  1  0  0  0
  1  2  2  0  0  0
  1  3  1  0  0  0
  3  4  1  0  0  0
  4  5  1  0  0  0
  5  6  1  0  0  0
  6  7  2  0  0  0
  7  8  1  0  0  0
  8  9  1  0  0  0
  8 10  2  0  0  0
 10 11  1  0  0  0
 10 12  1  0  0  0
 12 13  2  0  0  0
 13 14  1  0  0  0
 19 20  2  0  0  0
 20 21  1  0  0  0
 20 22  1  0  0  0
 22 23  2  0  0  0
 23 24  1  0  0  0
 23 17  1  0  0  0
 14  3  1  0  0  0
 13  6  1  0  0  0
  9 15  1  0  0  0
 11 16  1  0  0  0
 21 25  1  0  0  0
 24 26  1  0  0  0
M  END
> <minimizedAffinity>
-9.03889

> <CNNscore>
0.2270277441

> <CNNaffinity>
5.5452222824

> <CNN_VS>
1.2589193583

> <CNNaffinity_variance>
0.1889311075

$$$$
[H]Oc1c([H])c2c(c([H])c1O[H])C([H])([H])C([H])([H])N(C(=O)c1c([H])c(C(C([H])([H])[H])(C([H])([H])[H])C([H])([H])[H])c(O[H])c([H])c1O[H])C2([H])[H]


 30 32  0  0  0  0  0  0  0  0999 V2000
   39.7613   16.0694  -11.3613 C   0  0  0  0  0  0  0  0  0  0  0  0
   39.3653   15.9192  -12.6216 O   0  0  0  0  0  0  0  0  0  0  0  0
   41.1504   16.0567  -11.1631 N   0  0  0  0  0  0  0  0  0  0  0  0
   41.7868   16.1403   -9.9122 C   0  0  0  0  0  0  0  0  0  0  0  0
   43.2283   15.5991  -10.0525 C   0  0  0  0  0  0  0  0  0  0  0  0
   43.8846   16.5064  -11.0074 C   0  0  0  0  0  0  0  0  0  0  0  0
   45.0505   17.1555  -10.8011 C   0  0  0  0  0  0  0  0  0  0  0  0
   45.6071   18.0047  -11.7714 C   0  0  0  0  0  0  0  0  0  0  0  0
   46.8089   18.6318  -11.4760 O   0  0  0  0  0  0  0  0  0  0  0  0
   44.9514   18.1877  -12.9737 C   0  0  0  0  0  0  0  0  0  0  0  0
   45.4633   19.0083  -13.9446 O   0  0  0  0  0  0  0  0  0  0  0  0
   43.7369   17.5220  -13.2090 C   0  0  0  0  0  0  0  0  0  0  0  0
   43.2331   16.7065  -12.2376 C   0  0  0  0  0  0  0  0  0  0  0  0
   41.9679   15.9719  -12.3977 C   0  0  0  0  0  0  0  0  0  0  0  0
   47.2916   19.2492  -12.0813 H   0  0  0  0  0  0  0  0  0  0  0  0
   46.3051   19.5276  -13.8964 H   0  0  0  0  0  0  0  0  0  0  0  0
   37.4207   17.4716   -8.7552 C   0  0  0  0  0  0  0  0  0  0  0  0
   38.5169   17.2980   -9.6263 C   0  0  0  0  0  0  0  0  0  0  0  0
   38.6788   16.2127  -10.4434 C   0  0  0  0  0  0  0  0  0  0  0  0
   37.6975   15.2024  -10.4246 C   0  0  0  0  0  0  0  0  0  0  0  0
   37.8249   14.0666  -11.2525 O   0  0  0  0  0  0  0  0  0  0  0  0
   36.6360   15.3553   -9.5918 C   0  0  0  0  0  0  0  0  0  0  0  0
   36.4845   16.4756   -8.7566 C   0  0  0  0  0  0  0  0  0  0  0  0
   35.3741   16.5467   -7.9395 O   0  0  0  0  0  0  0  0  0  0  0  0
   37.1539   13.3392  -11.2635 H   0  0  0  0  0  0  0  0  0  0  0  0
   35.2157   17.2973   -7.3280 H   0  0  0  0  0  0  0  0  0  0  0  0
   35.9317   19.1061   -7.5756 C   0  0  0  0  0  0  0  0  0  0  0  0
   37.3395   18.7021   -7.9136 C   0  0  0  0  0  0  0  0  0  0  0  0
   37.9378   19.9109   -8.6498 C   0  0  0  0  0  0  0  0  0  0  0  0
   38.2018   18.5167   -6.6773 C   0  0  0  0  0  0  0  0  0  0  0  0
 27 28  1  0  0  0
 28 29  1  0  0  0
 28 30  1  0  0  0
 28 17  1  0  0  0
 17 18  2  0  0  0
 18 19  1  0  0  0
 19  1  1  0  0  0
  1  2  2  0  0  0
  1  3  1  0  0  0
  3  4  1  0  0  0
  4  5  1  0  0  0
  5  6  1  0  0  0
  6  7  2  0  0  0
  7  8  1  0  0  0
  8  9  1  0  0  0
  8 10  2  0  0  0
 10 11  1  0  0  0
 10 12  1  0  0  0
 12 13  2  0  0  0
 13 14  1  0  0  0
 19 20  2  0  0  0
 20 21  1  0  0  0
 20 22  1  0  0  0
 22 23  2  0  0  0
 23 24  1  0  0  0
 23 17  1  0  0  0
 14  3  1  0  0  0
 13  6  1  0  0  0
  9 15  1  0  0  0
 11 16  1  0  0  0
 21 25  1  0  0  0
 24 26  1  0  0  0
M  END
> <minimizedAffinity>
-6.85231

> <CNNscore>
0.2254959196

> <CNNaffinity>
4.5928678513

> <CNN_VS>
1.0356729031

> <CNNaffinity_variance>
0.2483545989

$$$$
[H]Oc1c([H])c2c(c([H])c1O[H])C([H])([H])C([H])([H])N(C(=O)c1c([H])c(C(C([H])([H])[H])(C([H])([H])[H])C([H])([H])[H])c(O[H])c([H])c1O[H])C2([H])[H]


 30 32  0  0  0  0  0  0  0  0999 V2000
   41.0512   14.6507  -13.7878 C   0  0  0  0  0  0  0  0  0  0  0  0
   40.5075   15.8503  -13.6055 O   0  0  0  0  0  0  0  0  0  0  0  0
   42.2745   14.4406  -13.1336 N   0  0  0  0  0  0  0  0  0  0  0  0
   43.0515   13.2731  -13.2330 C   0  0  0  0  0  0  0  0  0  0  0  0
   44.5006   13.6045  -12.8077 C   0  0  0  0  0  0  0  0  0  0  0  0
   44.3990   14.0172  -11.3988 C   0  0  0  0  0  0  0  0  0  0  0  0
   45.1138   13.5026  -10.3753 C   0  0  0  0  0  0  0  0  0  0  0  0
   44.9530   13.9587   -9.0567 C   0  0  0  0  0  0  0  0  0  0  0  0
   45.7286   13.3739   -8.0661 O   0  0  0  0  0  0  0  0  0  0  0  0
   44.0408   14.9612   -8.7889 C   0  0  0  0  0  0  0  0  0  0  0  0
   43.8560   15.4322   -7.5152 O   0  0  0  0  0  0  0  0  0  0  0  0
   43.2867   15.5107   -9.8391 C   0  0  0  0  0  0  0  0  0  0  0  0
   43.4760   15.0367  -11.1048 C   0  0  0  0  0  0  0  0  0  0  0  0
   42.7294   15.5523  -12.2635 C   0  0  0  0  0  0  0  0  0  0  0  0
   45.7000   13.6143   -7.1059 H   0  0  0  0  0  0  0  0  0  0  0  0
   44.3248   15.1268   -6.6981 H   0  0  0  0  0  0  0  0  0  0  0  0
   38.1771   12.6781  -15.2316 C   0  0  0  0  0  0  0  0  0  0  0  0
   38.9689   13.4738  -14.3769 C   0  0  0  0  0  0  0  0  0  0  0  0
   40.2731   13.8011  -14.6290 C   0  0  0  0  0  0  0  0  0  0  0  0
   40.8718   13.3229  -15.8110 C   0  0  0  0  0  0  0  0  0  0  0  0
   42.2145   13.6379  -16.1103 O   0  0  0  0  0  0  0  0  0  0  0  0
   40.1223   12.5562  -16.6442 C   0  0  0  0  0  0  0  0  0  0  0  0
   38.7836   12.2269  -16.3705 C   0  0  0  0  0  0  0  0  0  0  0  0
   38.0979   11.4392  -17.2732 O   0  0  0  0  0  0  0  0  0  0  0  0
   42.6648   13.3183  -16.9316 H   0  0  0  0  0  0  0  0  0  0  0  0
   37.1654   11.1675  -17.1352 H   0  0  0  0  0  0  0  0  0  0  0  0
   36.0853   11.4135  -15.7844 C   0  0  0  0  0  0  0  0  0  0  0  0
   36.7591   12.3909  -14.8626 C   0  0  0  0  0  0  0  0  0  0  0  0
   35.9043   13.6657  -14.9355 C   0  0  0  0  0  0  0  0  0  0  0  0
   36.7027   11.9512  -13.4101 C   0  0  0  0  0  0  0  0  0  0  0  0
 27 28  1  0  0  0
 28 29  1  0  0  0
 28 30  1  0  0  0
 28 17  1  0  0  0
 17 18  2  0  0  0
 18 19  1  0  0  0
 19  1  1  0  0  0
  1  2  2  0  0  0
  1  3  1  0  0  0
  3  4  1  0  0  0
  4  5  1  0  0  0
  5  6  1  0  0  0
  6  7  2  0  0  0
  7  8  1  0  0  0
  8  9  1  0  0  0
  8 10  2  0  0  0
 10 11  1  0  0  0
 10 12  1  0  0  0
 12 13  2  0  0  0
 13 14  1  0  0  0
 19 20  2  0  0  0
 20 21  1  0  0  0
 20 22  1  0  0  0
 22 23  2  0  0  0
 23 24  1  0  0  0
 23 17  1  0  0  0
 14  3  1  0  0  0
 13  6  1  0  0  0
  9 15  1  0  0  0
 11 16  1  0  0  0
 21 25  1  0  0  0
 24 26  1  0  0  0
M  END
> <minimizedAffinity>
-7.71390

> <CNNscore>
0.2104016095

> <CNNaffinity>
5.6622352600

> <CNN_VS>
1.1913434267

> <CNNaffinity_variance>
0.3230389059

$$$$
[H]Oc1c([H])c2c(c([H])c1O[H])C([H])([H])C([H])([H])N(C(=O)c1c([H])c(C(C([H])([H])[H])(C([H])([H])[H])C([H])([H])[H])c(O[H])c([H])c1O[H])C2([H])[H]


 30 32  0  0  0  0  0  0  0  0999 V2000
   39.9918   16.1621  -10.6989 C   0  0  0  0  0  0  0  0  0  0  0  0
   39.3753   16.1081  -11.8758 O   0  0  0  0  0  0  0  0  0  0  0  0
   41.3936   16.1332  -10.7539 N   0  0  0  0  0  0  0  0  0  0  0  0
   42.2440   16.1213   -9.6344 C   0  0  0  0  0  0  0  0  0  0  0  0
   43.6295   15.5911  -10.0701 C   0  0  0  0  0  0  0  0  0  0  0  0
   44.1179   16.5677  -11.0568 C   0  0  0  0  0  0  0  0  0  0  0  0
   45.3112   17.1983  -11.0146 C   0  0  0  0  0  0  0  0  0  0  0  0
   45.6980   18.1181  -12.0029 C   0  0  0  0  0  0  0  0  0  0  0  0
   46.9421   18.7201  -11.8813 O   0  0  0  0  0  0  0  0  0  0  0  0
   44.8411   18.3923  -13.0515 C   0  0  0  0  0  0  0  0  0  0  0  0
   45.1834   19.2837  -14.0345 O   0  0  0  0  0  0  0  0  0  0  0  0
   43.5947   17.7473  -13.1147 C   0  0  0  0  0  0  0  0  0  0  0  0
   43.2605   16.8609  -12.1323 C   0  0  0  0  0  0  0  0  0  0  0  0
   41.9767   16.1416  -12.1177 C   0  0  0  0  0  0  0  0  0  0  0  0
   47.3179   19.3812  -12.5156 H   0  0  0  0  0  0  0  0  0  0  0  0
   46.0277   19.7972  -14.0991 H   0  0  0  0  0  0  0  0  0  0  0  0
   38.1649   15.3751   -7.4928 C   0  0  0  0  0  0  0  0  0  0  0  0
   39.0132   15.2826   -8.6164 C   0  0  0  0  0  0  0  0  0  0  0  0
   39.0925   16.2362   -9.5942 C   0  0  0  0  0  0  0  0  0  0  0  0
   38.2853   17.3852   -9.4823 C   0  0  0  0  0  0  0  0  0  0  0  0
   38.3369   18.3939  -10.4680 O   0  0  0  0  0  0  0  0  0  0  0  0
   37.4639   17.4891   -8.4061 C   0  0  0  0  0  0  0  0  0  0  0  0
   37.3922   16.4997   -7.4103 C   0  0  0  0  0  0  0  0  0  0  0  0
   36.5262   16.6874   -6.3518 O   0  0  0  0  0  0  0  0  0  0  0  0
   37.7835   19.2129  -10.4195 H   0  0  0  0  0  0  0  0  0  0  0  0
   36.4237   16.0305   -5.6305 H   0  0  0  0  0  0  0  0  0  0  0  0
   38.4691   14.7500   -5.0851 C   0  0  0  0  0  0  0  0  0  0  0  0
   38.1661   14.2784   -6.4797 C   0  0  0  0  0  0  0  0  0  0  0  0
   39.2532   13.2397   -6.7969 C   0  0  0  0  0  0  0  0  0  0  0  0
   36.8512   13.5231   -6.5632 C   0  0  0  0  0  0  0  0  0  0  0  0
 27 28  1  0  0  0
 28 29  1  0  0  0
 28 30  1  0  0  0
 28 17  1  0  0  0
 17 18  2  0  0  0
 18 19  1  0  0  0
 19  1  1  0  0  0
  1  2  2  0  0  0
  1  3  1  0  0  0
  3  4  1  0  0  0
  4  5  1  0  0  0
  5  6  1  0  0  0
  6  7  2  0  0  0
  7  8  1  0  0  0
  8  9  1  0  0  0
  8 10  2  0  0  0
 10 11  1  0  0  0
 10 12  1  0  0  0
 12 13  2  0  0  0
 13 14  1  0  0  0
 19 20  2  0  0  0
 20 21  1  0  0  0
 20 22  1  0  0  0
 22 23  2  0  0  0
 23 24  1  0  0  0
 23 17  1  0  0  0
 14  3  1  0  0  0
 13  6  1  0  0  0
  9 15  1  0  0  0
 11 16  1  0  0  0
 21 25  1  0  0  0
 24 26  1  0  0  0
M  END
> <minimizedAffinity>
-6.88637

> <CNNscore>
0.2100327611

> <CNNaffinity>
4.5383477211

> <CNN_VS>
0.9532017112

> <CNNaffinity_variance>
0.1582854688

$$$$
[H]c1nc([H])c(-c2c(O[C@@]3([H])C([H])([H])OC([H])([H])C3([H])[H])c([H])c3sc(N([H])C(=O)N([H])C([H])([H])C([H])([H])[H])nc3c2[H])c([H])c1[H]


 29 32  0  0  0  0  0  0  0  0999 V2000
   38.0040   15.4418  -11.9469 C   0  0  0  0  0  0  0  0  0  0  0  0
   37.7833   14.6907  -13.0034 N   0  0  0  0  0  0  0  0  0  0  0  0
   38.7739   14.3189  -13.7732 C   0  0  0  0  0  0  0  0  0  0  0  0
   38.6631   13.4922  -14.9046 C   0  0  0  0  0  0  0  0  0  0  0  0
   39.8105   13.1478  -15.6044 C   0  0  0  0  0  0  0  0  0  0  0  0
   41.0827   13.5432  -15.2942 C   0  0  0  0  0  0  0  0  0  0  0  0
   41.1563   14.3849  -14.1464 C   0  0  0  0  0  0  0  0  0  0  0  0
   40.0298   14.7365  -13.4417 C   0  0  0  0  0  0  0  0  0  0  0  0
   39.7148   15.6599  -12.0169 S   0  0  0  0  0  0  0  0  0  0  0  0
   35.3313   15.5576   -9.3079 N   0  0  0  0  0  0  0  0  0  0  0  0
   36.1243   15.0680  -10.2900 C   0  0  0  0  0  0  0  0  0  0  0  0
   36.1584   13.8853  -10.7579 O   0  0  0  0  0  0  0  0  0  0  0  0
   37.1014   15.9255  -10.9512 N   0  0  0  0  0  0  0  0  0  0  0  0
   34.7718   14.3102   -9.1234 H   0  0  0  0  0  0  0  0  0  0  0  0
   37.1664   16.9325  -10.7053 H   0  0  0  0  0  0  0  0  0  0  0  0
   34.3687   15.0815   -7.1235 C   0  0  0  0  0  0  0  0  0  0  0  0
   34.5346   16.0495   -8.3210 C   0  0  0  0  0  0  0  0  0  0  0  0
   39.6012   12.3675  -16.8344 C   0  0  0  0  0  0  0  0  0  0  0  0
   38.6009   11.4174  -16.9182 C   0  0  0  0  0  0  0  0  0  0  0  0
   38.4204   10.6861  -18.0851 C   0  0  0  0  0  0  0  0  0  0  0  0
   39.2537   10.9187  -19.1599 C   0  0  0  0  0  0  0  0  0  0  0  0
   40.2110   11.8288  -19.0735 N   0  0  0  0  0  0  0  0  0  0  0  0
   40.4010   12.5577  -17.9326 C   0  0  0  0  0  0  0  0  0  0  0  0
   42.2559   13.2889  -15.8496 O   0  0  0  0  0  0  0  0  0  0  0  0
   43.3970   12.6896  -15.6006 C   0  0  0  0  0  0  0  0  0  0  0  0
   44.4532   13.8545  -15.4043 C   0  0  0  0  0  0  0  0  0  0  0  0
   45.7004   13.0313  -15.4422 C   0  0  0  0  0  0  0  0  0  0  0  0
   45.4053   11.8078  -16.0192 O   0  0  0  0  0  0  0  0  0  0  0  0
   44.1578   11.9558  -16.6873 C   0  0  0  0  0  0  0  0  0  0  0  0
 16 17  1  0  0  0
 17 10  1  0  0  0
 10 11  1  0  0  0
 11 12  2  0  0  0
 11 13  1  0  0  0
 13  1  1  0  0  0
  1  2  2  0  0  0
  2  3  1  0  0  0
  3  4  2  0  0  0
  4  5  1  0  0  0
  5 18  1  0  0  0
 18 19  2  0  0  0
 19 20  1  0  0  0
 20 21  2  0  0  0
 21 22  1  0  0  0
 22 23  2  0  0  0
  5  6  2  0  0  0
  6 24  1  0  0  0
 24 25  1  0  0  0
 25 26  1  0  0  0
 26 27  1  0  0  0
 27 28  1  0  0  0
 28 29  1  0  0  0
  6  7  1  0  0  0
  7  8  2  0  0  0
  8  9  1  0  0  0
  9  1  1  0  0  0
  8  3  1  0  0  0
 23 18  1  0  0  0
 29 25  1  0  0  0
 10 14  1  0  0  0
 13 15  1  0  0  0
M  END
> <minimizedAffinity>
-8.30564

> <CNNscore>
0.5070917606

> <CNNaffinity>
6.4947443008

> <CNN_VS>
3.2934312820

> <CNNaffinity_variance>
0.1714241207

$$$$
[H]c1nc([H])c(-c2c(O[C@@]3([H])C([H])([H])OC([H])([H])C3([H])[H])c([H])c3sc(N([H])C(=O)N([H])C([H])([H])C([H])([H])[H])nc3c2[H])c([H])c1[H]


 29 32  0  0  0  0  0  0  0  0999 V2000
   41.6897   15.9885  -11.8465 C   0  0  0  0  0  0  0  0  0  0  0  0
   41.7952   15.2602  -12.9363 N   0  0  0  0  0  0  0  0  0  0  0  0
   40.7305   14.7488  -13.4994 C   0  0  0  0  0  0  0  0  0  0  0  0
   40.7177   13.9859  -14.6799 C   0  0  0  0  0  0  0  0  0  0  0  0
   39.5038   13.5409  -15.1834 C   0  0  0  0  0  0  0  0  0  0  0  0
   38.2757   13.7783  -14.6298 C   0  0  0  0  0  0  0  0  0  0  0  0
   38.3274   14.5484  -13.4317 C   0  0  0  0  0  0  0  0  0  0  0  0
   39.5210   14.9968  -12.9185 C   0  0  0  0  0  0  0  0  0  0  0  0
   39.9864   15.9673  -11.5681 S   0  0  0  0  0  0  0  0  0  0  0  0
   44.3048   16.7663   -9.2624 N   0  0  0  0  0  0  0  0  0  0  0  0
   43.3169   16.1027   -9.9081 C   0  0  0  0  0  0  0  0  0  0  0  0
   42.8161   14.9676   -9.6257 O   0  0  0  0  0  0  0  0  0  0  0  0
   42.6898   16.6761  -11.0934 N   0  0  0  0  0  0  0  0  0  0  0  0
   44.4485   15.7155   -8.3803 H   0  0  0  0  0  0  0  0  0  0  0  0
   42.9648   17.6205  -11.4269 H   0  0  0  0  0  0  0  0  0  0  0  0
   45.9957   16.5866   -7.5207 C   0  0  0  0  0  0  0  0  0  0  0  0
   45.2974   17.4331   -8.6136 C   0  0  0  0  0  0  0  0  0  0  0  0
   39.5819   12.6626  -16.3615 C   0  0  0  0  0  0  0  0  0  0  0  0
   38.9035   11.4591  -16.4038 C   0  0  0  0  0  0  0  0  0  0  0  0
   38.9924   10.6397  -17.5216 C   0  0  0  0  0  0  0  0  0  0  0  0
   39.7680   11.0413  -18.5896 C   0  0  0  0  0  0  0  0  0  0  0  0
   40.4167   12.1943  -18.5432 N   0  0  0  0  0  0  0  0  0  0  0  0
   40.3388   13.0126  -17.4508 C   0  0  0  0  0  0  0  0  0  0  0  0
   37.0515   13.4371  -14.9964 O   0  0  0  0  0  0  0  0  0  0  0  0
   35.9328   12.9575  -14.5045 C   0  0  0  0  0  0  0  0  0  0  0  0
   35.3349   12.0281  -15.6402 C   0  0  0  0  0  0  0  0  0  0  0  0
   33.9704   11.8248  -15.0643 C   0  0  0  0  0  0  0  0  0  0  0  0
   33.7385   12.8088  -14.1184 O   0  0  0  0  0  0  0  0  0  0  0  0
   34.7043   13.8302  -14.3389 C   0  0  0  0  0  0  0  0  0  0  0  0
 16 17  1  0  0  0
 17 10  1  0  0  0
 10 11  1  0  0  0
 11 12  2  0  0  0
 11 13  1  0  0  0
 13  1  1  0  0  0
  1  2  2  0  0  0
  2  3  1  0  0  0
  3  4  2  0  0  0
  4  5  1  0  0  0
  5 18  1  0  0  0
 18 19  2  0  0  0
 19 20  1  0  0  0
 20 21  2  0  0  0
 21 22  1  0  0  0
 22 23  2  0  0  0
  5  6  2  0  0  0
  6 24  1  0  0  0
 24 25  1  0  0  0
 25 26  1  0  0  0
 26 27  1  0  0  0
 27 28  1  0  0  0
 28 29  1  0  0  0
  6  7  1  0  0  0
  7  8  2  0  0  0
  8  9  1  0  0  0
  9  1  1  0  0  0
  8  3  1  0  0  0
 23 18  1  0  0  0
 29 25  1  0  0  0
 10 14  1  0  0  0
 13 15  1  0  0  0
M  END
> <minimizedAffinity>
-7.53223

> <CNNscore>
0.2504767478

> <CNNaffinity>
6.2006340027

> <CNN_VS>
1.5531146526

> <CNNaffinity_variance>
0.3578268886

$$$$
[H]c1nc([H])c(-c2c(O[C@@]3([H])C([H])([H])OC([H])([H])C3([H])[H])c([H])c3sc(N([H])C(=O)N([H])C([H])([H])C([H])([H])[H])nc3c2[H])c([H])c1[H]


 29 32  0  0  0  0  0  0  0  0999 V2000
   37.6569   13.9908   -6.8147 C   0  0  0  0  0  0  0  0  0  0  0  0
   38.4807   13.2655   -6.0905 N   0  0  0  0  0  0  0  0  0  0  0  0
   39.7482   13.1856   -6.4056 C   0  0  0  0  0  0  0  0  0  0  0  0
   40.7244   12.4717   -5.6892 C   0  0  0  0  0  0  0  0  0  0  0  0
   42.0421   12.5100   -6.1215 C   0  0  0  0  0  0  0  0  0  0  0  0
   42.5045   13.1963   -7.2106 C   0  0  0  0  0  0  0  0  0  0  0  0
   41.4872   13.9025   -7.9160 C   0  0  0  0  0  0  0  0  0  0  0  0
   40.1768   13.8751   -7.5022 C   0  0  0  0  0  0  0  0  0  0  0  0
   38.7088   14.6132   -8.0334 S   0  0  0  0  0  0  0  0  0  0  0  0
   34.1554   13.9367   -5.4517 N   0  0  0  0  0  0  0  0  0  0  0  0
   35.4570   13.6037   -5.6193 C   0  0  0  0  0  0  0  0  0  0  0  0
   36.1401   12.7475   -4.9718 O   0  0  0  0  0  0  0  0  0  0  0  0
   36.2650   14.2601   -6.6407 N   0  0  0  0  0  0  0  0  0  0  0  0
   34.0574   13.0617   -4.3897 H   0  0  0  0  0  0  0  0  0  0  0  0
   35.8365   14.9579   -7.2797 H   0  0  0  0  0  0  0  0  0  0  0  0
   31.9644   13.9416   -6.5119 C   0  0  0  0  0  0  0  0  0  0  0  0
   32.8476   14.2713   -5.2832 C   0  0  0  0  0  0  0  0  0  0  0  0
   42.9844   11.6550   -5.3820 C   0  0  0  0  0  0  0  0  0  0  0  0
   43.1544   10.3238   -5.7125 C   0  0  0  0  0  0  0  0  0  0  0  0
   44.0441    9.5297   -5.0008 C   0  0  0  0  0  0  0  0  0  0  0  0
   44.7557   10.0861   -3.9578 C   0  0  0  0  0  0  0  0  0  0  0  0
   44.5879   11.3612   -3.6447 N   0  0  0  0  0  0  0  0  0  0  0  0
   43.7168   12.1565   -4.3361 C   0  0  0  0  0  0  0  0  0  0  0  0
   43.7133   13.3360   -7.7293 O   0  0  0  0  0  0  0  0  0  0  0  0
   44.7955   14.0706   -7.6177 C   0  0  0  0  0  0  0  0  0  0  0  0
   45.9490   13.0654   -7.2054 C   0  0  0  0  0  0  0  0  0  0  0  0
   46.9919   14.0679   -6.8283 C   0  0  0  0  0  0  0  0  0  0  0  0
   46.3748   15.2885   -6.6133 O   0  0  0  0  0  0  0  0  0  0  0  0
   44.9849   15.0273   -6.4569 C   0  0  0  0  0  0  0  0  0  0  0  0
 16 17  1  0  0  0
 17 10  1  0  0  0
 10 11  1  0  0  0
 11 12  2  0  0  0
 11 13  1  0  0  0
 13  1  1  0  0  0
  1  2  2  0  0  0
  2  3  1  0  0  0
  3  4  2  0  0  0
  4  5  1  0  0  0
  5 18  1  0  0  0
 18 19  2  0  0  0
 19 20  1  0  0  0
 20 21  2  0  0  0
 21 22  1  0  0  0
 22 23  2  0  0  0
  5  6  2  0  0  0
  6 24  1  0  0  0
 24 25  1  0  0  0
 25 26  1  0  0  0
 26 27  1  0  0  0
 27 28  1  0  0  0
 28 29  1  0  0  0
  6  7  1  0  0  0
  7  8  2  0  0  0
  8  9  1  0  0  0
  9  1  1  0  0  0
  8  3  1  0  0  0
 23 18  1  0  0  0
 29 25  1  0  0  0
 10 14  1  0  0  0
 13 15  1  0  0  0
M  END
> <minimizedAffinity>
-5.46979

> <CNNscore>
0.2271258980

> <CNNaffinity>
4.8002080917

> <CNN_VS>
1.0902515650

> <CNNaffinity_variance>
0.3510988355

$$$$
[H]c1nc([H])c(-c2c(O[C@@]3([H])C([H])([H])OC([H])([H])C3([H])[H])c([H])c3sc(N([H])C(=O)N([H])C([H])([H])C([H])([H])[H])nc3c2[H])c([H])c1[H]


 29 32  0  0  0  0  0  0  0  0999 V2000
   43.4070   13.4697  -15.1719 C   0  0  0  0  0  0  0  0  0  0  0  0
   42.4079   13.7768  -14.3739 N   0  0  0  0  0  0  0  0  0  0  0  0
   41.1763   13.4910  -14.7108 C   0  0  0  0  0  0  0  0  0  0  0  0
   40.0365   13.7395  -13.9266 C   0  0  0  0  0  0  0  0  0  0  0  0
   38.7930   13.3443  -14.3981 C   0  0  0  0  0  0  0  0  0  0  0  0
   38.5548   12.7144  -15.5887 C   0  0  0  0  0  0  0  0  0  0  0  0
   39.7313   12.4847  -16.3597 C   0  0  0  0  0  0  0  0  0  0  0  0
   40.9710   12.8702  -15.9083 C   0  0  0  0  0  0  0  0  0  0  0  0
   42.5877   12.7295  -16.4986 S   0  0  0  0  0  0  0  0  0  0  0  0
   47.1186   12.9182  -15.3735 N   0  0  0  0  0  0  0  0  0  0  0  0
   45.7920   12.6840  -15.5080 C   0  0  0  0  0  0  0  0  0  0  0  0
   45.2201   11.6886  -16.0568 O   0  0  0  0  0  0  0  0  0  0  0  0
   44.8146   13.6392  -14.9987 N   0  0  0  0  0  0  0  0  0  0  0  0
   47.4041   11.7600  -16.0663 H   0  0  0  0  0  0  0  0  0  0  0  0
   45.1278   14.4873  -14.4874 H   0  0  0  0  0  0  0  0  0  0  0  0
   48.7867   14.6317  -14.9191 C   0  0  0  0  0  0  0  0  0  0  0  0
   48.4517   13.1537  -15.2384 C   0  0  0  0  0  0  0  0  0  0  0  0
   37.6404   13.7323  -13.5695 C   0  0  0  0  0  0  0  0  0  0  0  0
   37.1063   15.0053  -13.6367 C   0  0  0  0  0  0  0  0  0  0  0  0
   36.0215   15.3565  -12.8437 C   0  0  0  0  0  0  0  0  0  0  0  0
   35.4841   14.4187  -11.9862 C   0  0  0  0  0  0  0  0  0  0  0  0
   36.0005   13.2014  -11.9249 N   0  0  0  0  0  0  0  0  0  0  0  0
   37.0675   12.8397  -12.6995 C   0  0  0  0  0  0  0  0  0  0  0  0
   37.4455   12.2721  -16.1572 O   0  0  0  0  0  0  0  0  0  0  0  0
   36.3577   11.5901  -15.8835 C   0  0  0  0  0  0  0  0  0  0  0  0
   35.8748   10.9895  -17.2680 C   0  0  0  0  0  0  0  0  0  0  0  0
   34.5162   10.5286  -16.8477 C   0  0  0  0  0  0  0  0  0  0  0  0
   34.1737   11.1759  -15.6727 O   0  0  0  0  0  0  0  0  0  0  0  0
   35.0550   12.2850  -15.5394 C   0  0  0  0  0  0  0  0  0  0  0  0
 16 17  1  0  0  0
 17 10  1  0  0  0
 10 11  1  0  0  0
 11 12  2  0  0  0
 11 13  1  0  0  0
 13  1  1  0  0  0
  1  2  2  0  0  0
  2  3  1  0  0  0
  3  4  2  0  0  0
  4  5  1  0  0  0
  5 18  1  0  0  0
 18 19  2  0  0  0
 19 20  1  0  0  0
 20 21  2  0  0  0
 21 22  1  0  0  0
 22 23  2  0  0  0
  5  6  2  0  0  0
  6 24  1  0  0  0
 24 25  1  0  0  0
 25 26  1  0  0  0
 26 27  1  0  0  0
 27 28  1  0  0  0
 28 29  1  0  0  0
  6  7  1  0  0  0
  7  8  2  0  0  0
  8  9  1  0  0  0
  9  1  1  0  0  0
  8  3  1  0  0  0
 23 18  1  0  0  0
 29 25  1  0  0  0
 10 14  1  0  0  0
 13 15  1  0  0  0
M  END
> <minimizedAffinity>
-7.78596

> <CNNscore>
0.2001147121

> <CNNaffinity>
6.2118954659

> <CNN_VS>
1.2430917025

> <CNNaffinity_variance>
0.0771886632

$$$$
[H]c1nc([H])c(-c2c(O[C@@]3([H])C([H])([H])OC([H])([H])C3([H])[H])c([H])c3sc(N([H])C(=O)N([H])C([H])([H])C([H])([H])[H])nc3c2[H])c([H])c1[H]


 29 32  0  0  0  0  0  0  0  0999 V2000
   42.3304   15.9123  -12.1170 C   0  0  0  0  0  0  0  0  0  0  0  0
   41.0362   15.6940  -12.1977 N   0  0  0  0  0  0  0  0  0  0  0  0
   40.5530   14.8947  -13.1141 C   0  0  0  0  0  0  0  0  0  0  0  0
   39.1970   14.5609  -13.2740 C   0  0  0  0  0  0  0  0  0  0  0  0
   38.8347   13.6651  -14.2696 C   0  0  0  0  0  0  0  0  0  0  0  0
   39.6924   13.0514  -15.1407 C   0  0  0  0  0  0  0  0  0  0  0  0
   41.0569   13.4180  -14.9539 C   0  0  0  0  0  0  0  0  0  0  0  0
   41.4334   14.3043  -13.9731 C   0  0  0  0  0  0  0  0  0  0  0  0
   42.9360   14.9422  -13.4098 S   0  0  0  0  0  0  0  0  0  0  0  0
   44.3548   16.9172   -9.1148 N   0  0  0  0  0  0  0  0  0  0  0  0
   43.5970   16.1529   -9.9360 C   0  0  0  0  0  0  0  0  0  0  0  0
   43.2436   14.9406   -9.7793 O   0  0  0  0  0  0  0  0  0  0  0  0
   43.0798   16.6957  -11.1870 N   0  0  0  0  0  0  0  0  0  0  0  0
   44.5232   15.8488   -8.2585 H   0  0  0  0  0  0  0  0  0  0  0  0
   43.2510   17.6890  -11.4378 H   0  0  0  0  0  0  0  0  0  0  0  0
   46.6115   17.7258   -8.6920 C   0  0  0  0  0  0  0  0  0  0  0  0
   45.1165   17.6852   -8.2896 C   0  0  0  0  0  0  0  0  0  0  0  0
   37.3894   13.4475  -14.4412 C   0  0  0  0  0  0  0  0  0  0  0  0
   36.8867   12.2025  -14.7690 C   0  0  0  0  0  0  0  0  0  0  0  0
   35.5201   12.0158  -14.9323 C   0  0  0  0  0  0  0  0  0  0  0  0
   34.6701   13.0896  -14.7646 C   0  0  0  0  0  0  0  0  0  0  0  0
   35.1573   14.2800  -14.4520 N   0  0  0  0  0  0  0  0  0  0  0  0
   36.4996   14.4801  -14.2868 C   0  0  0  0  0  0  0  0  0  0  0  0
   39.4994   12.1792  -16.1163 O   0  0  0  0  0  0  0  0  0  0  0  0
   39.4791   12.0980  -17.4263 C   0  0  0  0  0  0  0  0  0  0  0  0
   38.5201   10.8815  -17.7604 C   0  0  0  0  0  0  0  0  0  0  0  0
   38.8455   10.7353  -19.2121 C   0  0  0  0  0  0  0  0  0  0  0  0
   40.0447   11.3799  -19.4636 O   0  0  0  0  0  0  0  0  0  0  0  0
   40.6752   11.5864  -18.2049 C   0  0  0  0  0  0  0  0  0  0  0  0
 16 17  1  0  0  0
 17 10  1  0  0  0
 10 11  1  0  0  0
 11 12  2  0  0  0
 11 13  1  0  0  0
 13  1  1  0  0  0
  1  2  2  0  0  0
  2  3  1  0  0  0
  3  4  2  0  0  0
  4  5  1  0  0  0
  5 18  1  0  0  0
 18 19  2  0  0  0
 19 20  1  0  0  0
 20 21  2  0  0  0
 21 22  1  0  0  0
 22 23  2  0  0  0
  5  6  2  0  0  0
  6 24  1  0  0  0
 24 25  1  0  0  0
 25 26  1  0  0  0
 26 27  1  0  0  0
 27 28  1  0  0  0
 28 29  1  0  0  0
  6  7  1  0  0  0
  7  8  2  0  0  0
  8  9  1  0  0  0
  9  1  1  0  0  0
  8  3  1  0  0  0
 23 18  1  0  0  0
 29 25  1  0  0  0
 10 14  1  0  0  0
 13 15  1  0  0  0
M  END
> <minimizedAffinity>
-6.88458

> <CNNscore>
0.1900151670

> <CNNaffinity>
6.2091112137

> <CNN_VS>
1.1798253059

> <CNNaffinity_variance>
0.2448805273

$$$$
[H]c1nc([H])c(-c2c(O[C@@]3([H])C([H])([H])OC([H])([H])C3([H])[H])c([H])c3sc(N([H])C(=O)N([H])C([H])([H])C([H])([H])[H])nc3c2[H])c([H])c1[H]


 29 32  0  0  0  0  0  0  0  0999 V2000
   38.9414   12.6823  -15.8155 C   0  0  0  0  0  0  0  0  0  0  0  0
   39.5048   13.3064  -14.8043 N   0  0  0  0  0  0  0  0  0  0  0  0
   40.8058   13.4318  -14.7424 C   0  0  0  0  0  0  0  0  0  0  0  0
   41.5141   14.1049  -13.7319 C   0  0  0  0  0  0  0  0  0  0  0  0
   42.8961   14.1915  -13.8188 C   0  0  0  0  0  0  0  0  0  0  0  0
   43.6661   13.6720  -14.8229 C   0  0  0  0  0  0  0  0  0  0  0  0
   42.9158   12.9916  -15.8256 C   0  0  0  0  0  0  0  0  0  0  0  0
   41.5465   12.8956  -15.7551 C   0  0  0  0  0  0  0  0  0  0  0  0
   40.3121   12.2255  -16.7596 S   0  0  0  0  0  0  0  0  0  0  0  0
   35.2925   11.8682  -15.4363 N   0  0  0  0  0  0  0  0  0  0  0  0
   36.6025   12.0000  -15.1209 C   0  0  0  0  0  0  0  0  0  0  0  0
   37.1705   11.7703  -14.0058 O   0  0  0  0  0  0  0  0  0  0  0  0
   37.5619   12.4657  -16.1158 N   0  0  0  0  0  0  0  0  0  0  0  0
   35.0071   11.4933  -14.1398 H   0  0  0  0  0  0  0  0  0  0  0  0
   37.2557   12.6577  -17.0895 H   0  0  0  0  0  0  0  0  0  0  0  0
   33.7222   10.7739  -16.9402 C   0  0  0  0  0  0  0  0  0  0  0  0
   33.9761   11.7359  -15.7533 C   0  0  0  0  0  0  0  0  0  0  0  0
   43.5723   14.8192  -12.6724 C   0  0  0  0  0  0  0  0  0  0  0  0
   44.1074   16.0901  -12.7646 C   0  0  0  0  0  0  0  0  0  0  0  0
   44.7470   16.6656  -11.6743 C   0  0  0  0  0  0  0  0  0  0  0  0
   44.8431   15.9517  -10.4975 C   0  0  0  0  0  0  0  0  0  0  0  0
   44.3300   14.7343  -10.4153 N   0  0  0  0  0  0  0  0  0  0  0  0
   43.6965   14.1542  -11.4789 C   0  0  0  0  0  0  0  0  0  0  0  0
   44.9700   13.6864  -15.0451 O   0  0  0  0  0  0  0  0  0  0  0  0
   46.0295   12.9155  -14.9657 C   0  0  0  0  0  0  0  0  0  0  0  0
   46.6051   13.1358  -13.5059 C   0  0  0  0  0  0  0  0  0  0  0  0
   47.9262   12.4592  -13.6843 C   0  0  0  0  0  0  0  0  0  0  0  0
   48.1893   12.3534  -15.0395 O   0  0  0  0  0  0  0  0  0  0  0  0
   47.3101   13.2541  -15.7031 C   0  0  0  0  0  0  0  0  0  0  0  0
 16 17  1  0  0  0
 17 10  1  0  0  0
 10 11  1  0  0  0
 11 12  2  0  0  0
 11 13  1  0  0  0
 13  1  1  0  0  0
  1  2  2  0  0  0
  2  3  1  0  0  0
  3  4  2  0  0  0
  4  5  1  0  0  0
  5 18  1  0  0  0
 18 19  2  0  0  0
 19 20  1  0  0  0
 20 21  2  0  0  0
 21 22  1  0  0  0
 22 23  2  0  0  0
  5  6  2  0  0  0
  6 24  1  0  0  0
 24 25  1  0  0  0
 25 26  1  0  0  0
 26 27  1  0  0  0
 27 28  1  0  0  0
 28 29  1  0  0  0
  6  7  1  0  0  0
  7  8  2  0  0  0
  8  9  1  0  0  0
  9  1  1  0  0  0
  8  3  1  0  0  0
 23 18  1  0  0  0
 29 25  1  0  0  0
 10 14  1  0  0  0
 13 15  1  0  0  0
M  END
> <minimizedAffinity>
-7.06876

> <CNNscore>
0.1498389542

> <CNNaffinity>
6.0139551163

> <CNN_VS>
0.9011247158

> <CNNaffinity_variance>
0.0957618654

$$$$
[H]c1nc([H])c(-c2c(O[C@@]3([H])C([H])([H])OC([H])([H])C3([H])[H])c([H])c3sc(N([H])C(=O)N([H])C([H])([H])C([H])([H])[H])nc3c2[H])c([H])c1[H]


 29 32  0  0  0  0  0  0  0  0999 V2000
   36.6670   15.2519  -11.8916 C   0  0  0  0  0  0  0  0  0  0  0  0
   37.9698   15.2402  -12.0701 N   0  0  0  0  0  0  0  0  0  0  0  0
   38.5042   14.5132  -13.0177 C   0  0  0  0  0  0  0  0  0  0  0  0
   39.8748   14.4484  -13.3226 C   0  0  0  0  0  0  0  0  0  0  0  0
   40.2938   13.6611  -14.3853 C   0  0  0  0  0  0  0  0  0  0  0  0
   39.4810   12.9168  -15.1955 C   0  0  0  0  0  0  0  0  0  0  0  0
   38.1001   13.0011  -14.8533 C   0  0  0  0  0  0  0  0  0  0  0  0
   37.6675   13.7756  -13.8035 C   0  0  0  0  0  0  0  0  0  0  0  0
   36.1294   14.1712  -13.1254 S   0  0  0  0  0  0  0  0  0  0  0  0
   34.8540   16.2714   -8.7619 N   0  0  0  0  0  0  0  0  0  0  0  0
   35.5655   15.5081   -9.6246 C   0  0  0  0  0  0  0  0  0  0  0  0
   36.0559   14.3501   -9.4307 O   0  0  0  0  0  0  0  0  0  0  0  0
   35.8668   15.9907  -10.9675 N   0  0  0  0  0  0  0  0  0  0  0  0
   34.9977   15.3138   -7.7795 H   0  0  0  0  0  0  0  0  0  0  0  0
   35.4991   16.9070  -11.2899 H   0  0  0  0  0  0  0  0  0  0  0  0
   32.6917   16.5332   -7.6752 C   0  0  0  0  0  0  0  0  0  0  0  0
   34.1391   17.0386   -7.8952 C   0  0  0  0  0  0  0  0  0  0  0  0
   41.7498   13.5631  -14.5754 C   0  0  0  0  0  0  0  0  0  0  0  0
   42.2920   13.2584  -15.8097 C   0  0  0  0  0  0  0  0  0  0  0  0
   43.6683   13.1647  -15.9704 C   0  0  0  0  0  0  0  0  0  0  0  0
   44.4884   13.3781  -14.8815 C   0  0  0  0  0  0  0  0  0  0  0  0
   43.9636   13.6681  -13.7014 N   0  0  0  0  0  0  0  0  0  0  0  0
   42.6111   13.7651  -13.5269 C   0  0  0  0  0  0  0  0  0  0  0  0
   39.7296   12.1413  -16.2378 O   0  0  0  0  0  0  0  0  0  0  0  0
   39.5153   12.0660  -17.5308 C   0  0  0  0  0  0  0  0  0  0  0  0
   38.4654   10.8941  -17.7186 C   0  0  0  0  0  0  0  0  0  0  0  0
   38.5693   10.7393  -19.2018 C   0  0  0  0  0  0  0  0  0  0  0  0
   39.7464   11.3316  -19.6268 O   0  0  0  0  0  0  0  0  0  0  0  0
   40.5617   11.5054  -18.4738 C   0  0  0  0  0  0  0  0  0  0  0  0
 16 17  1  0  0  0
 17 10  1  0  0  0
 10 11  1  0  0  0
 11 12  2  0  0  0
 11 13  1  0  0  0
 13  1  1  0  0  0
  1  2  2  0  0  0
  2  3  1  0  0  0
  3  4  2  0  0  0
  4  5  1  0  0  0
  5 18  1  0  0  0
 18 19  2  0  0  0
 19 20  1  0  0  0
 20 21  2  0  0  0
 21 22  1  0  0  0
 22 23  2  0  0  0
  5  6  2  0  0  0
  6 24  1  0  0  0
 24 25  1  0  0  0
 25 26  1  0  0  0
 26 27  1  0  0  0
 27 28  1  0  0  0
 28 29  1  0  0  0
  6  7  1  0  0  0
  7  8  2  0  0  0
  8  9  1  0  0  0
  9  1  1  0  0  0
  8  3  1  0  0  0
 23 18  1  0  0  0
 29 25  1  0  0  0
 10 14  1  0  0  0
 13 15  1  0  0  0
M  END
> <minimizedAffinity>
-7.80858

> <CNNscore>
0.1436581612

> <CNNaffinity>
6.1064152718

> <CNN_VS>
0.8772363663

> <CNNaffinity_variance>
0.2072049826

$$$$
[H]c1nc([H])c(-c2c(O[C@@]3([H])C([H])([H])OC([H])([H])C3([H])[H])c([H])c3sc(N([H])C(=O)N([H])C([H])([H])C([H])([H])[H])nc3c2[H])c([H])c1[H]


 29 32  0  0  0  0  0  0  0  0999 V2000
   36.5340   14.9832   -9.6310 C   0  0  0  0  0  0  0  0  0  0  0  0
   35.8603   14.2632  -10.5009 N   0  0  0  0  0  0  0  0  0  0  0  0
   36.3715   13.9879  -11.6736 C   0  0  0  0  0  0  0  0  0  0  0  0
   35.7609   13.2027  -12.6667 C   0  0  0  0  0  0  0  0  0  0  0  0
   36.4421   12.9620  -13.8512 C   0  0  0  0  0  0  0  0  0  0  0  0
   37.6910   13.4259  -14.1613 C   0  0  0  0  0  0  0  0  0  0  0  0
   38.2764   14.2229  -13.1349 C   0  0  0  0  0  0  0  0  0  0  0  0
   37.6156   14.4720  -11.9557 C   0  0  0  0  0  0  0  0  0  0  0  0
   37.9907   15.3142  -10.4956 S   0  0  0  0  0  0  0  0  0  0  0  0
   36.2300   14.9638   -5.8855 N   0  0  0  0  0  0  0  0  0  0  0  0
   36.5058   14.5310   -7.1384 C   0  0  0  0  0  0  0  0  0  0  0  0
   37.0333   13.4283   -7.4919 O   0  0  0  0  0  0  0  0  0  0  0  0
   36.2043   15.3665   -8.2951 N   0  0  0  0  0  0  0  0  0  0  0  0
   36.7805   13.8150   -5.3561 H   0  0  0  0  0  0  0  0  0  0  0  0
   35.7331   16.2837   -8.1706 H   0  0  0  0  0  0  0  0  0  0  0  0
   34.5073   15.0821   -4.1700 C   0  0  0  0  0  0  0  0  0  0  0  0
   35.9529   15.3988   -4.6266 C   0  0  0  0  0  0  0  0  0  0  0  0
   35.6960   12.2207  -14.8804 C   0  0  0  0  0  0  0  0  0  0  0  0
   36.3408   11.6548  -15.9641 C   0  0  0  0  0  0  0  0  0  0  0  0
   35.6206   10.9628  -16.9292 C   0  0  0  0  0  0  0  0  0  0  0  0
   34.2523   10.8484  -16.7936 C   0  0  0  0  0  0  0  0  0  0  0  0
   33.6399   11.3936  -15.7544 N   0  0  0  0  0  0  0  0  0  0  0  0
   34.3344   12.0770  -14.7953 C   0  0  0  0  0  0  0  0  0  0  0  0
   38.4610   13.2708  -15.2256 O   0  0  0  0  0  0  0  0  0  0  0  0
   39.5532   12.6567  -15.6171 C   0  0  0  0  0  0  0  0  0  0  0  0
   40.7378   13.6639  -15.3119 C   0  0  0  0  0  0  0  0  0  0  0  0
   41.8205   12.9696  -16.0739 C   0  0  0  0  0  0  0  0  0  0  0  0
   41.2366   12.0912  -16.9707 O   0  0  0  0  0  0  0  0  0  0  0  0
   39.8694   12.4675  -17.0877 C   0  0  0  0  0  0  0  0  0  0  0  0
 16 17  1  0  0  0
 17 10  1  0  0  0
 10 11  1  0  0  0
 11 12  2  0  0  0
 11 13  1  0  0  0
 13  1  1  0  0  0
  1  2  2  0  0  0
  2  3  1  0  0  0
  3  4  2  0  0  0
  4  5  1  0  0  0
  5 18  1  0  0  0
 18 19  2  0  0  0
 19 20  1  0  0  0
 20 21  2  0  0  0
 21 22  1  0  0  0
 22 23  2  0  0  0
  5  6  2  0  0  0
  6 24  1  0  0  0
 24 25  1  0  0  0
 25 26  1  0  0  0
 26 27  1  0  0  0
 27 28  1  0  0  0
 28 29  1  0  0  0
  6  7  1  0  0  0
  7  8  2  0  0  0
  8  9  1  0  0  0
  9  1  1  0  0  0
  8  3  1  0  0  0
 23 18  1  0  0  0
 29 25  1  0  0  0
 10 14  1  0  0  0
 13 15  1  0  0  0
M  END
> <minimizedAffinity>
-8.12145

> <CNNscore>
0.1379703581

> <CNNaffinity>
6.1678080559

> <CNN_VS>
0.8509746790

> <CNNaffinity_variance>
0.1869680583

$$$$
[H]c1nc([H])c(-c2c(O[C@@]3([H])C([H])([H])OC([H])([H])C3([H])[H])c([H])c3sc(N([H])C(=O)N([H])C([H])([H])C([H])([H])[H])nc3c2[H])c([H])c1[H]


 29 32  0  0  0  0  0  0  0  0999 V2000
   39.3049   15.0790   -7.2957 C   0  0  0  0  0  0  0  0  0  0  0  0
   39.7223   14.1230   -6.4952 N   0  0  0  0  0  0  0  0  0  0  0  0
   40.9127   13.6013   -6.6473 C   0  0  0  0  0  0  0  0  0  0  0  0
   41.4766   12.6027   -5.8346 C   0  0  0  0  0  0  0  0  0  0  0  0
   42.7701   12.1724   -6.0927 C   0  0  0  0  0  0  0  0  0  0  0  0
   43.5811   12.6379   -7.0911 C   0  0  0  0  0  0  0  0  0  0  0  0
   42.9747   13.6437   -7.8985 C   0  0  0  0  0  0  0  0  0  0  0  0
   41.6943   14.0813   -7.6574 C   0  0  0  0  0  0  0  0  0  0  0  0
   40.6579   15.2770   -8.3490 S   0  0  0  0  0  0  0  0  0  0  0  0
   35.7528   16.1044   -7.9688 N   0  0  0  0  0  0  0  0  0  0  0  0
   36.9084   15.4036   -8.0507 C   0  0  0  0  0  0  0  0  0  0  0  0
   37.1466   14.3552   -8.7312 O   0  0  0  0  0  0  0  0  0  0  0  0
   38.0834   15.8195   -7.2934 N   0  0  0  0  0  0  0  0  0  0  0  0
   35.1312   15.1970   -8.8014 H   0  0  0  0  0  0  0  0  0  0  0  0
   38.0576   16.6842   -6.7187 H   0  0  0  0  0  0  0  0  0  0  0  0
   33.3284   15.9416   -8.1127 C   0  0  0  0  0  0  0  0  0  0  0  0
   34.5917   16.8085   -7.8864 C   0  0  0  0  0  0  0  0  0  0  0  0
   43.2505   11.0538   -5.2659 C   0  0  0  0  0  0  0  0  0  0  0  0
   42.9672    9.7430   -5.6002 C   0  0  0  0  0  0  0  0  0  0  0  0
   43.4240    8.6994   -4.8058 C   0  0  0  0  0  0  0  0  0  0  0  0
   44.1634    8.9875   -3.6771 C   0  0  0  0  0  0  0  0  0  0  0  0
   44.4305   10.2449   -3.3610 N   0  0  0  0  0  0  0  0  0  0  0  0
   43.9891   11.2833   -4.1329 C   0  0  0  0  0  0  0  0  0  0  0  0
   44.8200   12.3393   -7.4456 O   0  0  0  0  0  0  0  0  0  0  0  0
   45.4929   11.5218   -8.2216 C   0  0  0  0  0  0  0  0  0  0  0  0
   46.6765   10.9664   -7.3263 C   0  0  0  0  0  0  0  0  0  0  0  0
   47.4897   10.3276   -8.4059 C   0  0  0  0  0  0  0  0  0  0  0  0
   47.0944   10.8505   -9.6254 O   0  0  0  0  0  0  0  0  0  0  0  0
   46.3648   12.0402   -9.3483 C   0  0  0  0  0  0  0  0  0  0  0  0
 16 17  1  0  0  0
 17 10  1  0  0  0
 10 11  1  0  0  0
 11 12  2  0  0  0
 11 13  1  0  0  0
 13  1  1  0  0  0
  1  2  2  0  0  0
  2  3  1  0  0  0
  3  4  2  0  0  0
  4  5  1  0  0  0
  5 18  1  0  0  0
 18 19  2  0  0  0
 19 20  1  0  0  0
 20 21  2  0  0  0
 21 22  1  0  0  0
 22 23  2  0  0  0
  5  6  2  0  0  0
  6 24  1  0  0  0
 24 25  1  0  0  0
 25 26  1  0  0  0
 26 27  1  0  0  0
 27 28  1  0  0  0
 28 29  1  0  0  0
  6  7  1  0  0  0
  7  8  2  0  0  0
  8  9  1  0  0  0
  9  1  1  0  0  0
  8  3  1  0  0  0
 23 18  1  0  0  0
 29 25  1  0  0  0
 10 14  1  0  0  0
 13 15  1  0  0  0
M  END
> <minimizedAffinity>
-4.82987

> <CNNscore>
0.1367898881

> <CNNaffinity>
4.7449312210

> <CNN_VS>
0.6490586400

> <CNNaffinity_variance>
0.3072119653

$$$$
[H]OC(=O)[C@@]([H])(OC([H])([H])c1c([H])c([H])c(-c2c([H])c([H])c([H])c([H])c2[H])c([H])c1[H])[C@@]([H])(C(=O)O[H])N([H])[H]


 27 28  0  0  0  0  0  0  0  0999 V2000
   42.1116   13.5563  -15.7085 O   0  0  0  0  0  0  0  0  0  0  0  0
   43.0522   13.2175  -14.7219 C   0  0  0  0  0  0  0  0  0  0  0  0
   44.2469   14.1536  -16.5588 N   0  0  0  0  0  0  0  0  0  0  0  0
   44.4438   13.5827  -15.1942 C   0  0  0  0  0  0  0  0  0  0  0  0
   43.7394   15.0576  -16.4841 H   0  0  0  0  0  0  0  0  0  0  0  0
   43.7301   13.4863  -17.1419 H   0  0  0  0  0  0  0  0  0  0  0  0
   45.3718   12.4618  -15.3054 C   0  0  0  0  0  0  0  0  0  0  0  0
   46.3318   12.1523  -14.3650 O   0  0  0  0  0  0  0  0  0  0  0  0
   45.3185   11.7085  -16.3215 O   0  0  0  0  0  0  0  0  0  0  0  0
   47.1698   12.7166  -14.2417 H   0  0  0  0  0  0  0  0  0  0  0  0
   42.6157   13.8012  -13.4701 C   0  0  0  0  0  0  0  0  0  0  0  0
   43.1402   13.3223  -12.2525 O   0  0  0  0  0  0  0  0  0  0  0  0
   41.7864   14.7263  -13.3418 O   0  0  0  0  0  0  0  0  0  0  0  0
   43.9381   13.7972  -11.8177 H   0  0  0  0  0  0  0  0  0  0  0  0
   41.7825   12.4928  -16.5193 C   0  0  0  0  0  0  0  0  0  0  0  0
   40.3052   12.2796  -16.3783 C   0  0  0  0  0  0  0  0  0  0  0  0
   39.5782   12.8777  -15.3869 C   0  0  0  0  0  0  0  0  0  0  0  0
   38.2217   12.6310  -15.3232 C   0  0  0  0  0  0  0  0  0  0  0  0
   37.5715   11.8002  -16.2268 C   0  0  0  0  0  0  0  0  0  0  0  0
   38.3234   11.2114  -17.2131 C   0  0  0  0  0  0  0  0  0  0  0  0
   39.6692   11.4459  -17.2897 C   0  0  0  0  0  0  0  0  0  0  0  0
   36.1332   11.5847  -16.0981 C   0  0  0  0  0  0  0  0  0  0  0  0
   35.4942   10.7101  -16.9439 C   0  0  0  0  0  0  0  0  0  0  0  0
   34.1412   10.4928  -16.8394 C   0  0  0  0  0  0  0  0  0  0  0  0
   33.4120   11.1611  -15.8726 C   0  0  0  0  0  0  0  0  0  0  0  0
   34.0317   12.0328  -15.0253 C   0  0  0  0  0  0  0  0  0  0  0  0
   35.3813   12.2445  -15.1352 C   0  0  0  0  0  0  0  0  0  0  0  0
  3  4  1  0  0  0
  4  2  1  0  0  0
  2  1  1  0  0  0
  1 15  1  0  0  0
 15 16  1  0  0  0
 16 17  2  0  0  0
 17 18  1  0  0  0
 18 19  2  0  0  0
 19 20  1  0  0  0
 20 21  2  0  0  0
 19 22  1  0  0  0
 22 23  2  0  0  0
 23 24  1  0  0  0
 24 25  2  0  0  0
 25 26  1  0  0  0
 26 27  2  0  0  0
  2 11  1  0  0  0
 11 12  1  0  0  0
 11 13  2  0  0  0
  4  7  1  0  0  0
  7  8  1  0  0  0
  7  9  2  0  0  0
 21 16  1  0  0  0
 27 22  1  0  0  0
  3  5  1  0  0  0
  3  6  1  0  0  0
 12 14  1  0  0  0
  8 10  1  0  0  0
M  END
> <minimizedAffinity>
-8.52938

> <CNNscore>
0.6629916430

> <CNNaffinity>
5.5045142174

> <CNN_VS>
3.6494469643

> <CNNaffinity_variance>
0.0497733615

$$$$
[H]OC(=O)[C@@]([H])(OC([H])([H])c1c([H])c([H])c(-c2c([H])c([H])c([H])c([H])c2[H])c([H])c1[H])[C@@]([H])(C(=O)O[H])N([H])[H]


 27 28  0  0  0  0  0  0  0  0999 V2000
   42.5970   12.5706  -15.9535 O   0  0  0  0  0  0  0  0  0  0  0  0
   43.8037   13.2662  -16.1351 C   0  0  0  0  0  0  0  0  0  0  0  0
   45.5387   14.3628  -14.9245 N   0  0  0  0  0  0  0  0  0  0  0  0
   44.0594   14.1674  -14.9453 C   0  0  0  0  0  0  0  0  0  0  0  0
   45.8243   14.9204  -15.7540 H   0  0  0  0  0  0  0  0  0  0  0  0
   46.0081   13.4507  -14.9124 H   0  0  0  0  0  0  0  0  0  0  0  0
   43.6609   13.6140  -13.6550 C   0  0  0  0  0  0  0  0  0  0  0  0
   42.3586   13.5524  -13.2054 O   0  0  0  0  0  0  0  0  0  0  0  0
   44.5460   13.1560  -12.8744 O   0  0  0  0  0  0  0  0  0  0  0  0
   41.8504   14.3814  -12.9049 H   0  0  0  0  0  0  0  0  0  0  0  0
   44.8336   12.2981  -16.4515 C   0  0  0  0  0  0  0  0  0  0  0  0
   45.5991   12.4470  -17.6258 O   0  0  0  0  0  0  0  0  0  0  0  0
   45.1346   11.2973  -15.7675 O   0  0  0  0  0  0  0  0  0  0  0  0
   46.5106   12.9148  -17.5859 H   0  0  0  0  0  0  0  0  0  0  0  0
   41.9925   12.2315  -17.1435 C   0  0  0  0  0  0  0  0  0  0  0  0
   40.5285   12.0785  -16.8591 C   0  0  0  0  0  0  0  0  0  0  0  0
   39.9221   12.7205  -15.8154 C   0  0  0  0  0  0  0  0  0  0  0  0
   38.5695   12.5281  -15.6189 C   0  0  0  0  0  0  0  0  0  0  0  0
   37.8056   11.7087  -16.4401 C   0  0  0  0  0  0  0  0  0  0  0  0
   38.4376   11.0751  -17.4813 C   0  0  0  0  0  0  0  0  0  0  0  0
   39.7778   11.2555  -17.6894 C   0  0  0  0  0  0  0  0  0  0  0  0
   36.3791   11.5517  -16.1717 C   0  0  0  0  0  0  0  0  0  0  0  0
   35.6229   10.7163  -16.9585 C   0  0  0  0  0  0  0  0  0  0  0  0
   34.2787   10.5543  -16.7226 C   0  0  0  0  0  0  0  0  0  0  0  0
   33.6777   11.2390  -15.6819 C   0  0  0  0  0  0  0  0  0  0  0  0
   34.4147   12.0722  -14.8918 C   0  0  0  0  0  0  0  0  0  0  0  0
   35.7547   12.2289  -15.1328 C   0  0  0  0  0  0  0  0  0  0  0  0
  3  4  1  0  0  0
  4  2  1  0  0  0
  2  1  1  0  0  0
  1 15  1  0  0  0
 15 16  1  0  0  0
 16 17  2  0  0  0
 17 18  1  0  0  0
 18 19  2  0  0  0
 19 20  1  0  0  0
 20 21  2  0  0  0
 19 22  1  0  0  0
 22 23  2  0  0  0
 23 24  1  0  0  0
 24 25  2  0  0  0
 25 26  1  0  0  0
 26 27  2  0  0  0
  2 11  1  0  0  0
 11 12  1  0  0  0
 11 13  2  0  0  0
  4  7  1  0  0  0
  7  8  1  0  0  0
  7  9  2  0  0  0
 21 16  1  0  0  0
 27 22  1  0  0  0
  3  5  1  0  0  0
  3  6  1  0  0  0
 12 14  1  0  0  0
  8 10  1  0  0  0
M  END
> <minimizedAffinity>
-8.06691

> <CNNscore>
0.4942627251

> <CNNaffinity>
5.1459236145

> <CNN_VS>
2.5434381962

> <CNNaffinity_variance>
0.0552792363

$$$$
[H]OC(=O)[C@@]([H])(OC([H])([H])c1c([H])c([H])c(-c2c([H])c([H])c([H])c([H])c2[H])c([H])c1[H])[C@@]([H])(C(=O)O[H])N([H])[H]


 27 28  0  0  0  0  0  0  0  0999 V2000
   43.5548   13.2968  -15.0681 O   0  0  0  0  0  0  0  0  0  0  0  0
   44.8054   13.9000  -15.2806 C   0  0  0  0  0  0  0  0  0  0  0  0
   46.4762   15.0736  -14.0522 N   0  0  0  0  0  0  0  0  0  0  0  0
   45.0039   15.0292  -14.2913 C   0  0  0  0  0  0  0  0  0  0  0  0
   46.9569   15.3848  -14.9196 H   0  0  0  0  0  0  0  0  0  0  0  0
   46.8070   14.1485  -13.7574 H   0  0  0  0  0  0  0  0  0  0  0  0
   44.3445   14.8438  -13.0027 C   0  0  0  0  0  0  0  0  0  0  0  0
   43.1038   15.3550  -12.6846 O   0  0  0  0  0  0  0  0  0  0  0  0
   44.9258   14.1777  -12.0965 O   0  0  0  0  0  0  0  0  0  0  0  0
   42.9548   16.3476  -12.5160 H   0  0  0  0  0  0  0  0  0  0  0  0
   45.8092   12.8558  -15.2863 C   0  0  0  0  0  0  0  0  0  0  0  0
   46.0063   12.0662  -14.1353 O   0  0  0  0  0  0  0  0  0  0  0  0
   46.5563   12.5617  -16.2431 O   0  0  0  0  0  0  0  0  0  0  0  0
   45.5351   11.1595  -14.0506 H   0  0  0  0  0  0  0  0  0  0  0  0
   42.8371   13.1328  -16.2320 C   0  0  0  0  0  0  0  0  0  0  0  0
   41.4021   12.9546  -15.8362 C   0  0  0  0  0  0  0  0  0  0  0  0
   40.5295   12.2174  -16.5874 C   0  0  0  0  0  0  0  0  0  0  0  0
   39.2235   12.1008  -16.1563 C   0  0  0  0  0  0  0  0  0  0  0  0
   38.7660   12.7032  -14.9913 C   0  0  0  0  0  0  0  0  0  0  0  0
   39.6615   13.4381  -14.2544 C   0  0  0  0  0  0  0  0  0  0  0  0
   40.9595   13.5633  -14.6683 C   0  0  0  0  0  0  0  0  0  0  0  0
   37.3701   12.5370  -14.5969 C   0  0  0  0  0  0  0  0  0  0  0  0
   36.3934   12.4472  -15.5596 C   0  0  0  0  0  0  0  0  0  0  0  0
   35.0736   12.2903  -15.2097 C   0  0  0  0  0  0  0  0  0  0  0  0
   34.7219   12.2220  -13.8739 C   0  0  0  0  0  0  0  0  0  0  0  0
   35.6798   12.3097  -12.9061 C   0  0  0  0  0  0  0  0  0  0  0  0
   36.9939   12.4660  -13.2623 C   0  0  0  0  0  0  0  0  0  0  0  0
  3  4  1  0  0  0
  4  2  1  0  0  0
  2  1  1  0  0  0
  1 15  1  0  0  0
 15 16  1  0  0  0
 16 17  2  0  0  0
 17 18  1  0  0  0
 18 19  2  0  0  0
 19 20  1  0  0  0
 20 21  2  0  0  0
 19 22  1  0  0  0
 22 23  2  0  0  0
 23 24  1  0  0  0
 24 25  2  0  0  0
 25 26  1  0  0  0
 26 27  2  0  0  0
  2 11  1  0  0  0
 11 12  1  0  0  0
 11 13  2  0  0  0
  4  7  1  0  0  0
  7  8  1  0  0  0
  7  9  2  0  0  0
 21 16  1  0  0  0
 27 22  1  0  0  0
  3  5  1  0  0  0
  3  6  1  0  0  0
 12 14  1  0  0  0
  8 10  1  0  0  0
M  END
> <minimizedAffinity>
-7.03753

> <CNNscore>
0.4129688740

> <CNNaffinity>
4.9103326797

> <CNN_VS>
2.0278146267

> <CNNaffinity_variance>
0.1681877971

$$$$
[H]OC(=O)[C@@]([H])(OC([H])([H])c1c([H])c([H])c(-c2c([H])c([H])c([H])c([H])c2[H])c([H])c1[H])[C@@]([H])(C(=O)O[H])N([H])[H]


 27 28  0  0  0  0  0  0  0  0999 V2000
   43.9337   13.1907  -14.6520 O   0  0  0  0  0  0  0  0  0  0  0  0
   45.1954   13.7322  -14.3556 C   0  0  0  0  0  0  0  0  0  0  0  0
   44.1282   15.4670  -13.1189 N   0  0  0  0  0  0  0  0  0  0  0  0
   45.1607   14.3967  -12.9953 C   0  0  0  0  0  0  0  0  0  0  0  0
   43.1916   15.0308  -13.2322 H   0  0  0  0  0  0  0  0  0  0  0  0
   44.3524   16.0739  -13.9150 H   0  0  0  0  0  0  0  0  0  0  0  0
   46.4119   15.0244  -12.5830 C   0  0  0  0  0  0  0  0  0  0  0  0
   47.1594   14.6250  -11.4950 O   0  0  0  0  0  0  0  0  0  0  0  0
   46.8645   16.0037  -13.2454 O   0  0  0  0  0  0  0  0  0  0  0  0
   46.8602   14.8027  -10.5386 H   0  0  0  0  0  0  0  0  0  0  0  0
   46.1839   12.6907  -14.5461 C   0  0  0  0  0  0  0  0  0  0  0  0
   46.3815   11.7197  -13.5435 O   0  0  0  0  0  0  0  0  0  0  0  0
   46.9165   12.5491  -15.5477 O   0  0  0  0  0  0  0  0  0  0  0  0
   45.8982   10.8174  -13.6033 H   0  0  0  0  0  0  0  0  0  0  0  0
   43.5596   13.3955  -15.9615 C   0  0  0  0  0  0  0  0  0  0  0  0
   42.1144   13.0107  -16.0659 C   0  0  0  0  0  0  0  0  0  0  0  0
   41.6416   12.2420  -17.0928 C   0  0  0  0  0  0  0  0  0  0  0  0
   40.2971   11.9306  -17.1188 C   0  0  0  0  0  0  0  0  0  0  0  0
   39.4110   12.3687  -16.1430 C   0  0  0  0  0  0  0  0  0  0  0  0
   39.9102   13.1393  -15.1222 C   0  0  0  0  0  0  0  0  0  0  0  0
   41.2404   13.4566  -15.0821 C   0  0  0  0  0  0  0  0  0  0  0  0
   38.0012   12.0007  -16.2354 C   0  0  0  0  0  0  0  0  0  0  0  0
   37.5765   11.1665  -17.2417 C   0  0  0  0  0  0  0  0  0  0  0  0
   36.2540   10.8077  -17.3464 C   0  0  0  0  0  0  0  0  0  0  0  0
   35.3379   11.2906  -16.4296 C   0  0  0  0  0  0  0  0  0  0  0  0
   35.7436   12.1198  -15.4248 C   0  0  0  0  0  0  0  0  0  0  0  0
   37.0641   12.4734  -15.3265 C   0  0  0  0  0  0  0  0  0  0  0  0
  3  4  1  0  0  0
  4  2  1  0  0  0
  2  1  1  0  0  0
  1 15  1  0  0  0
 15 16  1  0  0  0
 16 17  2  0  0  0
 17 18  1  0  0  0
 18 19  2  0  0  0
 19 20  1  0  0  0
 20 21  2  0  0  0
 19 22  1  0  0  0
 22 23  2  0  0  0
 23 24  1  0  0  0
 24 25  2  0  0  0
 25 26  1  0  0  0
 26 27  2  0  0  0
  2 11  1  0  0  0
 11 12  1  0  0  0
 11 13  2  0  0  0
  4  7  1  0  0  0
  7  8  1  0  0  0
  7  9  2  0  0  0
 21 16  1  0  0  0
 27 22  1  0  0  0
  3  5  1  0  0  0
  3  6  1  0  0  0
 12 14  1  0  0  0
  8 10  1  0  0  0
M  END
> <minimizedAffinity>
-7.23041

> <CNNscore>
0.3868741989

> <CNNaffinity>
4.9116721153

> <CNN_VS>
1.9001991749

> <CNNaffinity_variance>
0.1691641361

$$$$
[H]OC(=O)[C@@]([H])(OC([H])([H])c1c([H])c([H])c(-c2c([H])c([H])c([H])c([H])c2[H])c([H])c1[H])[C@@]([H])(C(=O)O[H])N([H])[H]


 27 28  0  0  0  0  0  0  0  0999 V2000
   36.0350   14.3618  -11.2277 O   0  0  0  0  0  0  0  0  0  0  0  0
   35.7246   15.6532  -10.7707 C   0  0  0  0  0  0  0  0  0  0  0  0
   35.4709   16.9914   -8.8154 N   0  0  0  0  0  0  0  0  0  0  0  0
   35.3077   15.5951   -9.3160 C   0  0  0  0  0  0  0  0  0  0  0  0
   34.7699   17.6063   -9.2747 H   0  0  0  0  0  0  0  0  0  0  0  0
   36.4261   17.3162   -9.0013 H   0  0  0  0  0  0  0  0  0  0  0  0
   36.1179   14.7188   -8.4762 C   0  0  0  0  0  0  0  0  0  0  0  0
   37.4879   14.5961   -8.5766 O   0  0  0  0  0  0  0  0  0  0  0  0
   35.5547   14.0102   -7.5912 O   0  0  0  0  0  0  0  0  0  0  0  0
   37.9320   14.1119   -9.3539 H   0  0  0  0  0  0  0  0  0  0  0  0
   36.8385   16.5208  -11.0943 C   0  0  0  0  0  0  0  0  0  0  0  0
   36.6228   17.9026  -11.2708 O   0  0  0  0  0  0  0  0  0  0  0  0
   38.0267   16.1650  -11.2415 O   0  0  0  0  0  0  0  0  0  0  0  0
   36.7729   18.5475  -10.4880 H   0  0  0  0  0  0  0  0  0  0  0  0
   35.1921   13.9334  -12.2290 C   0  0  0  0  0  0  0  0  0  0  0  0
   36.0608   13.4499  -13.3511 C   0  0  0  0  0  0  0  0  0  0  0  0
   35.5856   13.3057  -14.6249 C   0  0  0  0  0  0  0  0  0  0  0  0
   36.4481   12.8544  -15.6035 C   0  0  0  0  0  0  0  0  0  0  0  0
   37.7761   12.5427  -15.3414 C   0  0  0  0  0  0  0  0  0  0  0  0
   38.2292   12.6959  -14.0545 C   0  0  0  0  0  0  0  0  0  0  0  0
   37.3868   13.1422  -13.0732 C   0  0  0  0  0  0  0  0  0  0  0  0
   38.6307   12.0699  -16.4266 C   0  0  0  0  0  0  0  0  0  0  0  0
   39.9254   12.5208  -16.5237 C   0  0  0  0  0  0  0  0  0  0  0  0
   40.7464   12.0881  -17.5373 C   0  0  0  0  0  0  0  0  0  0  0  0
   40.2664   11.1886  -18.4719 C   0  0  0  0  0  0  0  0  0  0  0  0
   38.9833   10.7315  -18.3893 C   0  0  0  0  0  0  0  0  0  0  0  0
   38.1702   11.1673  -17.3758 C   0  0  0  0  0  0  0  0  0  0  0  0
  3  4  1  0  0  0
  4  2  1  0  0  0
  2  1  1  0  0  0
  1 15  1  0  0  0
 15 16  1  0  0  0
 16 17  2  0  0  0
 17 18  1  0  0  0
 18 19  2  0  0  0
 19 20  1  0  0  0
 20 21  2  0  0  0
 19 22  1  0  0  0
 22 23  2  0  0  0
 23 24  1  0  0  0
 24 25  2  0  0  0
 25 26  1  0  0  0
 26 27  2  0  0  0
  2 11  1  0  0  0
 11 12  1  0  0  0
 11 13  2  0  0  0
  4  7  1  0  0  0
  7  8  1  0  0  0
  7  9  2  0  0  0
 21 16  1  0  0  0
 27 22  1  0  0  0
  3  5  1  0  0  0
  3  6  1  0  0  0
 12 14  1  0  0  0
  8 10  1  0  0  0
M  END
> <minimizedAffinity>
-7.50302

> <CNNscore>
0.3644022942

> <CNNaffinity>
4.7726821899

> <CNN_VS>
1.7391763926

> <CNNaffinity_variance>
0.2355940342

$$$$
[H]OC(=O)[C@@]([H])(OC([H])([H])c1c([H])c([H])c(-c2c([H])c([H])c([H])c([H])c2[H])c([H])c1[H])[C@@]([H])(C(=O)O[H])N([H])[H]


 27 28  0  0  0  0  0  0  0  0999 V2000
   43.6649   13.3172  -15.1456 O   0  0  0  0  0  0  0  0  0  0  0  0
   44.9152   13.9569  -15.1663 C   0  0  0  0  0  0  0  0  0  0  0  0
   43.7771   14.6741  -13.1995 N   0  0  0  0  0  0  0  0  0  0  0  0
   45.0682   14.8221  -13.9330 C   0  0  0  0  0  0  0  0  0  0  0  0
   43.6941   13.7020  -12.8409 H   0  0  0  0  0  0  0  0  0  0  0  0
   42.9963   14.9063  -13.8230 H   0  0  0  0  0  0  0  0  0  0  0  0
   45.2748   16.2424  -14.1973 C   0  0  0  0  0  0  0  0  0  0  0  0
   45.9840   16.7373  -15.2716 O   0  0  0  0  0  0  0  0  0  0  0  0
   44.7861   17.1002  -13.4048 O   0  0  0  0  0  0  0  0  0  0  0  0
   46.9982   16.6721  -15.3264 H   0  0  0  0  0  0  0  0  0  0  0  0
   45.9300   12.9461  -15.3821 C   0  0  0  0  0  0  0  0  0  0  0  0
   46.6607   12.9323  -16.5875 O   0  0  0  0  0  0  0  0  0  0  0  0
   46.2461   12.0412  -14.5813 O   0  0  0  0  0  0  0  0  0  0  0  0
   47.5755   13.3928  -16.6361 H   0  0  0  0  0  0  0  0  0  0  0  0
   43.2240   12.9671  -16.4024 C   0  0  0  0  0  0  0  0  0  0  0  0
   41.7451   12.7442  -16.2978 C   0  0  0  0  0  0  0  0  0  0  0  0
   41.0075   13.2501  -15.2638 C   0  0  0  0  0  0  0  0  0  0  0  0
   39.6501   13.0009  -15.2381 C   0  0  0  0  0  0  0  0  0  0  0  0
   39.0095   12.2575  -16.2211 C   0  0  0  0  0  0  0  0  0  0  0  0
   39.7721   11.7604  -17.2489 C   0  0  0  0  0  0  0  0  0  0  0  0
   41.1187   11.9986  -17.2888 C   0  0  0  0  0  0  0  0  0  0  0  0
   37.5698   12.0335  -16.1285 C   0  0  0  0  0  0  0  0  0  0  0  0
   36.9456   11.2115  -17.0361 C   0  0  0  0  0  0  0  0  0  0  0  0
   35.5916   10.9872  -16.9665 C   0  0  0  0  0  0  0  0  0  0  0  0
   34.8461   11.5948  -15.9725 C   0  0  0  0  0  0  0  0  0  0  0  0
   35.4508   12.4137  -15.0639 C   0  0  0  0  0  0  0  0  0  0  0  0
   36.8016   12.6328  -15.1393 C   0  0  0  0  0  0  0  0  0  0  0  0
  3  4  1  0  0  0
  4  2  1  0  0  0
  2  1  1  0  0  0
  1 15  1  0  0  0
 15 16  1  0  0  0
 16 17  2  0  0  0
 17 18  1  0  0  0
 18 19  2  0  0  0
 19 20  1  0  0  0
 20 21  2  0  0  0
 19 22  1  0  0  0
 22 23  2  0  0  0
 23 24  1  0  0  0
 24 25  2  0  0  0
 25 26  1  0  0  0
 26 27  2  0  0  0
  2 11  1  0  0  0
 11 12  1  0  0  0
 11 13  2  0  0  0
  4  7  1  0  0  0
  7  8  1  0  0  0
  7  9  2  0  0  0
 21 16  1  0  0  0
 27 22  1  0  0  0
  3  5  1  0  0  0
  3  6  1  0  0  0
 12 14  1  0  0  0
  8 10  1  0  0  0
M  END
> <minimizedAffinity>
-8.11356

> <CNNscore>
0.3360041678

> <CNNaffinity>
5.0101494789

> <CNN_VS>
1.6834311485

> <CNNaffinity_variance>
0.0663187355

$$$$
[H]OC(=O)[C@@]([H])(OC([H])([H])c1c([H])c([H])c(-c2c([H])c([H])c([H])c([H])c2[H])c([H])c1[H])[C@@]([H])(C(=O)O[H])N([H])[H]


 27 28  0  0  0  0  0  0  0  0999 V2000
   43.3672   13.7031  -12.2914 O   0  0  0  0  0  0  0  0  0  0  0  0
   44.1816   14.2282  -11.2746 C   0  0  0  0  0  0  0  0  0  0  0  0
   43.1506   12.9077   -9.5802 N   0  0  0  0  0  0  0  0  0  0  0  0
   44.4647   13.1579  -10.2414 C   0  0  0  0  0  0  0  0  0  0  0  0
   42.5016   12.4640  -10.2602 H   0  0  0  0  0  0  0  0  0  0  0  0
   42.7677   13.7909   -9.2257 H   0  0  0  0  0  0  0  0  0  0  0  0
   45.4233   13.5359   -9.2079 C   0  0  0  0  0  0  0  0  0  0  0  0
   45.2042   14.5219   -8.2688 O   0  0  0  0  0  0  0  0  0  0  0  0
   46.5386   12.9402   -9.1460 O   0  0  0  0  0  0  0  0  0  0  0  0
   45.2122   15.5104   -8.5106 H   0  0  0  0  0  0  0  0  0  0  0  0
   45.3311   14.8495  -11.8998 C   0  0  0  0  0  0  0  0  0  0  0  0
   45.5961   16.2162  -11.6786 O   0  0  0  0  0  0  0  0  0  0  0  0
   46.1541   14.2830  -12.6492 O   0  0  0  0  0  0  0  0  0  0  0  0
   46.2552   16.4969  -10.9450 H   0  0  0  0  0  0  0  0  0  0  0  0
   42.6645   14.6756  -12.9676 C   0  0  0  0  0  0  0  0  0  0  0  0
   41.8695   13.9779  -14.0300 C   0  0  0  0  0  0  0  0  0  0  0  0
   40.5023   13.9846  -14.0339 C   0  0  0  0  0  0  0  0  0  0  0  0
   39.8424   13.3183  -15.0467 C   0  0  0  0  0  0  0  0  0  0  0  0
   40.5148   12.6440  -16.0578 C   0  0  0  0  0  0  0  0  0  0  0  0
   41.8875   12.6519  -16.0318 C   0  0  0  0  0  0  0  0  0  0  0  0
   42.5565   13.3078  -15.0347 C   0  0  0  0  0  0  0  0  0  0  0  0
   39.7505   11.9602  -17.0970 C   0  0  0  0  0  0  0  0  0  0  0  0
   38.5024   11.4608  -16.8115 C   0  0  0  0  0  0  0  0  0  0  0  0
   37.7665   10.8141  -17.7753 C   0  0  0  0  0  0  0  0  0  0  0  0
   38.2860   10.6628  -19.0482 C   0  0  0  0  0  0  0  0  0  0  0  0
   39.5237   11.1529  -19.3475 C   0  0  0  0  0  0  0  0  0  0  0  0
   40.2520   11.7968  -18.3814 C   0  0  0  0  0  0  0  0  0  0  0  0
  3  4  1  0  0  0
  4  2  1  0  0  0
  2  1  1  0  0  0
  1 15  1  0  0  0
 15 16  1  0  0  0
 16 17  2  0  0  0
 17 18  1  0  0  0
 18 19  2  0  0  0
 19 20  1  0  0  0
 20 21  2  0  0  0
 19 22  1  0  0  0
 22 23  2  0  0  0
 23 24  1  0  0  0
 24 25  2  0  0  0
 25 26  1  0  0  0
 26 27  2  0  0  0
  2 11  1  0  0  0
 11 12  1  0  0  0
 11 13  2  0  0  0
  4  7  1  0  0  0
  7  8  1  0  0  0
  7  9  2  0  0  0
 21 16  1  0  0  0
 27 22  1  0  0  0
  3  5  1  0  0  0
  3  6  1  0  0  0
 12 14  1  0  0  0
  8 10  1  0  0  0
M  END
> <minimizedAffinity>
-6.57512

> <CNNscore>
0.3301110268

> <CNNaffinity>
4.4490323067

> <CNN_VS>
1.4686746597

> <CNNaffinity_variance>
0.2954690456

$$$$
[H]OC(=O)[C@@]([H])(OC([H])([H])c1c([H])c([H])c(-c2c([H])c([H])c([H])c([H])c2[H])c([H])c1[H])[C@@]([H])(C(=O)O[H])N([H])[H]


 27 28  0  0  0  0  0  0  0  0999 V2000
   38.6847   15.2595  -10.5594 O   0  0  0  0  0  0  0  0  0  0  0  0
   39.7143   16.1955  -10.3672 C   0  0  0  0  0  0  0  0  0  0  0  0
   40.5188   14.5561   -8.8364 N   0  0  0  0  0  0  0  0  0  0  0  0
   40.3087   16.0261   -8.9848 C   0  0  0  0  0  0  0  0  0  0  0  0
   41.2635   14.2465   -9.4921 H   0  0  0  0  0  0  0  0  0  0  0  0
   39.6386   14.0609   -9.0158 H   0  0  0  0  0  0  0  0  0  0  0  0
   39.4559   16.4714   -7.8874 C   0  0  0  0  0  0  0  0  0  0  0  0
   38.8968   17.7290   -7.7996 O   0  0  0  0  0  0  0  0  0  0  0  0
   39.1972   15.6750   -6.9380 O   0  0  0  0  0  0  0  0  0  0  0  0
   39.4521   18.5539   -7.5830 H   0  0  0  0  0  0  0  0  0  0  0  0
   40.6281   16.0896  -11.4860 C   0  0  0  0  0  0  0  0  0  0  0  0
   41.7346   15.2197  -11.4078 O   0  0  0  0  0  0  0  0  0  0  0  0
   40.5419   16.7127  -12.5651 O   0  0  0  0  0  0  0  0  0  0  0  0
   41.6686   14.2726  -11.7952 H   0  0  0  0  0  0  0  0  0  0  0  0
   37.5310   15.8290  -11.0506 C   0  0  0  0  0  0  0  0  0  0  0  0
   36.9924   14.8924  -12.0900 C   0  0  0  0  0  0  0  0  0  0  0  0
   37.8042   14.0476  -12.7945 C   0  0  0  0  0  0  0  0  0  0  0  0
   37.2323   13.2153  -13.7355 C   0  0  0  0  0  0  0  0  0  0  0  0
   35.8670   13.2056  -13.9912 C   0  0  0  0  0  0  0  0  0  0  0  0
   35.0730   14.0631  -13.2706 C   0  0  0  0  0  0  0  0  0  0  0  0
   35.6247   14.8943  -12.3343 C   0  0  0  0  0  0  0  0  0  0  0  0
   35.3318   12.2982  -15.0020 C   0  0  0  0  0  0  0  0  0  0  0  0
   36.1377   11.8646  -16.0274 C   0  0  0  0  0  0  0  0  0  0  0  0
   35.6536   11.0102  -16.9889 C   0  0  0  0  0  0  0  0  0  0  0  0
   34.3405   10.5805  -16.9260 C   0  0  0  0  0  0  0  0  0  0  0  0
   33.5276   11.0020  -15.9144 C   0  0  0  0  0  0  0  0  0  0  0  0
   34.0171   11.8539  -14.9590 C   0  0  0  0  0  0  0  0  0  0  0  0
  3  4  1  0  0  0
  4  2  1  0  0  0
  2  1  1  0  0  0
  1 15  1  0  0  0
 15 16  1  0  0  0
 16 17  2  0  0  0
 17 18  1  0  0  0
 18 19  2  0  0  0
 19 20  1  0  0  0
 20 21  2  0  0  0
 19 22  1  0  0  0
 22 23  2  0  0  0
 23 24  1  0  0  0
 24 25  2  0  0  0
 25 26  1  0  0  0
 26 27  2  0  0  0
  2 11  1  0  0  0
 11 12  1  0  0  0
 11 13  2  0  0  0
  4  7  1  0  0  0
  7  8  1  0  0  0
  7  9  2  0  0  0
 21 16  1  0  0  0
 27 22  1  0  0  0
  3  5  1  0  0  0
  3  6  1  0  0  0
 12 14  1  0  0  0
  8 10  1  0  0  0
M  END
> <minimizedAffinity>
-6.91355

> <CNNscore>
0.2913832664

> <CNNaffinity>
4.5300488472

> <CNN_VS>
1.3199803829

> <CNNaffinity_variance>
0.3040409684

$$$$
[H]OC(=O)[C@@]([H])(OC([H])([H])c1c([H])c([H])c(-c2c([H])c([H])c([H])c([H])c2[H])c([H])c1[H])[C@@]([H])(C(=O)O[H])N([H])[H]


 27 28  0  0  0  0  0  0  0  0999 V2000
   42.4835   13.6490  -15.1709 O   0  0  0  0  0  0  0  0  0  0  0  0
   43.5322   13.0830  -14.4273 C   0  0  0  0  0  0  0  0  0  0  0  0
   45.7830   12.3629  -14.7324 N   0  0  0  0  0  0  0  0  0  0  0  0
   44.8624   13.5024  -15.0169 C   0  0  0  0  0  0  0  0  0  0  0  0
   45.4886   11.5351  -15.2878 H   0  0  0  0  0  0  0  0  0  0  0  0
   45.7769   12.1556  -13.7278 H   0  0  0  0  0  0  0  0  0  0  0  0
   45.4440   14.7068  -14.4331 C   0  0  0  0  0  0  0  0  0  0  0  0
   45.0149   15.9883  -14.7081 O   0  0  0  0  0  0  0  0  0  0  0  0
   46.4088   14.6007  -13.6203 O   0  0  0  0  0  0  0  0  0  0  0  0
   45.2000   16.4407  -15.6008 H   0  0  0  0  0  0  0  0  0  0  0  0
   43.3104   13.3990  -13.0312 C   0  0  0  0  0  0  0  0  0  0  0  0
   42.3175   14.3333  -12.6729 O   0  0  0  0  0  0  0  0  0  0  0  0
   43.9301   12.9131  -12.0617 O   0  0  0  0  0  0  0  0  0  0  0  0
   41.3814   14.0085  -12.4091 H   0  0  0  0  0  0  0  0  0  0  0  0
   42.1458   12.8974  -16.2744 C   0  0  0  0  0  0  0  0  0  0  0  0
   40.6758   12.6193  -16.1775 C   0  0  0  0  0  0  0  0  0  0  0  0
   39.9108   13.1125  -15.1574 C   0  0  0  0  0  0  0  0  0  0  0  0
   38.5638   12.8115  -15.1380 C   0  0  0  0  0  0  0  0  0  0  0  0
   37.9604   12.0286  -16.1139 C   0  0  0  0  0  0  0  0  0  0  0  0
   38.7499   11.5453  -17.1278 C   0  0  0  0  0  0  0  0  0  0  0  0
   40.0867   11.8347  -17.1612 C   0  0  0  0  0  0  0  0  0  0  0  0
   36.5296   11.7507  -16.0288 C   0  0  0  0  0  0  0  0  0  0  0  0
   35.7749   12.3440  -15.0453 C   0  0  0  0  0  0  0  0  0  0  0  0
   34.4266   12.0961  -14.9479 C   0  0  0  0  0  0  0  0  0  0  0  0
   33.8201   11.2396  -15.8488 C   0  0  0  0  0  0  0  0  0  0  0  0
   34.5556   10.6426  -16.8309 C   0  0  0  0  0  0  0  0  0  0  0  0
   35.8996   10.8946  -16.9221 C   0  0  0  0  0  0  0  0  0  0  0  0
  3  4  1  0  0  0
  4  2  1  0  0  0
  2  1  1  0  0  0
  1 15  1  0  0  0
 15 16  1  0  0  0
 16 17  2  0  0  0
 17 18  1  0  0  0
 18 19  2  0  0  0
 19 20  1  0  0  0
 20 21  2  0  0  0
 19 22  1  0  0  0
 22 23  2  0  0  0
 23 24  1  0  0  0
 24 25  2  0  0  0
 25 26  1  0  0  0
 26 27  2  0  0  0
  2 11  1  0  0  0
 11 12  1  0  0  0
 11 13  2  0  0  0
  4  7  1  0  0  0
  7  8  1  0  0  0
  7  9  2  0  0  0
 21 16  1  0  0  0
 27 22  1  0  0  0
  3  5  1  0  0  0
  3  6  1  0  0  0
 12 14  1  0  0  0
  8 10  1  0  0  0
M  END
> <minimizedAffinity>
-7.54655

> <CNNscore>
0.2891989052

> <CNNaffinity>
4.8658065796

> <CNN_VS>
1.4071859121

> <CNNaffinity_variance>
0.0978666469

$$$$
[H]Oc1c([H])c([H])c(/C([H])=C(\[H])C(=O)N2C([H])([H])c3c([H])c([H])c([H])c([H])c3C([H])([H])C2([H])[H])c([H])c1O[H]


 24 26  0  0  0  0  0  0  0  0999 V2000
   38.8913   11.7431  -16.4171 C   0  0  0  0  0  0  0  0  0  0  0  0
   39.8050   12.6763  -16.2457 C   0  0  0  0  0  0  0  0  0  0  0  0
   41.2135   12.4740  -16.5994 C   0  0  0  0  0  0  0  0  0  0  0  0
   41.4352   12.1439  -17.8153 O   0  0  0  0  0  0  0  0  0  0  0  0
   42.2738   12.6263  -15.6800 N   0  0  0  0  0  0  0  0  0  0  0  0
   43.6270   12.3999  -16.1334 C   0  0  0  0  0  0  0  0  0  0  0  0
   44.4106   13.6861  -16.0859 C   0  0  0  0  0  0  0  0  0  0  0  0
   44.1321   14.3913  -14.8079 C   0  0  0  0  0  0  0  0  0  0  0  0
   44.9907   15.4359  -14.4146 C   0  0  0  0  0  0  0  0  0  0  0  0
   44.7653   16.1140  -13.2384 C   0  0  0  0  0  0  0  0  0  0  0  0
   43.7118   15.8155  -12.4003 C   0  0  0  0  0  0  0  0  0  0  0  0
   42.8784   14.7943  -12.7920 C   0  0  0  0  0  0  0  0  0  0  0  0
   43.0793   14.0808  -13.9868 C   0  0  0  0  0  0  0  0  0  0  0  0
   42.1114   12.9955  -14.3034 C   0  0  0  0  0  0  0  0  0  0  0  0
   33.4678   12.5077  -14.9410 O   0  0  0  0  0  0  0  0  0  0  0  0
   34.7951   12.3187  -15.3047 C   0  0  0  0  0  0  0  0  0  0  0  0
   35.8437   12.9088  -14.5963 C   0  0  0  0  0  0  0  0  0  0  0  0
   37.1521   12.7089  -14.9731 C   0  0  0  0  0  0  0  0  0  0  0  0
   37.4763   11.9103  -16.0755 C   0  0  0  0  0  0  0  0  0  0  0  0
   36.4438   11.3455  -16.7513 C   0  0  0  0  0  0  0  0  0  0  0  0
   35.1076   11.5337  -16.3879 C   0  0  0  0  0  0  0  0  0  0  0  0
   34.0798   10.9351  -17.1095 O   0  0  0  0  0  0  0  0  0  0  0  0
   33.2880   13.0933  -14.1374 H   0  0  0  0  0  0  0  0  0  0  0  0
   34.3450   10.3643  -17.9002 H   0  0  0  0  0  0  0  0  0  0  0  0
 15 16  1  0  0  0
 16 17  2  0  0  0
 17 18  1  0  0  0
 18 19  2  0  0  0
 19  1  1  0  0  0
  1  2  2  0  0  0
  2  3  1  0  0  0
  3  4  2  0  0  0
  3  5  1  0  0  0
  5  6  1  0  0  0
  6  7  1  0  0  0
  7  8  1  0  0  0
  8  9  2  0  0  0
  9 10  1  0  0  0
 10 11  2  0  0  0
 11 12  1  0  0  0
 12 13  2  0  0  0
 13 14  1  0  0  0
 19 20  1  0  0  0
 20 21  2  0  0  0
 21 22  1  0  0  0
 21 16  1  0  0  0
 14  5  1  0  0  0
 13  8  1  0  0  0
 15 23  1  0  0  0
 22 24  1  0  0  0
M  END
> <minimizedAffinity>
-7.80200

> <CNNscore>
0.4100874066

> <CNNaffinity>
5.8881773949

> <CNN_VS>
2.4146673679

> <CNNaffinity_variance>
0.2471640557

$$$$
[H]Oc1c([H])c([H])c(/C([H])=C(\[H])C(=O)N2C([H])([H])c3c([H])c([H])c([H])c([H])c3C([H])([H])C2([H])[H])c([H])c1O[H]


 24 26  0  0  0  0  0  0  0  0999 V2000
   41.7551   14.0120  -14.0344 C   0  0  0  0  0  0  0  0  0  0  0  0
   40.5020   14.2808  -14.3384 C   0  0  0  0  0  0  0  0  0  0  0  0
   39.5626   14.8562  -13.3707 C   0  0  0  0  0  0  0  0  0  0  0  0
   39.8912   15.9969  -12.8939 O   0  0  0  0  0  0  0  0  0  0  0  0
   38.3688   14.2161  -12.9735 N   0  0  0  0  0  0  0  0  0  0  0  0
   37.5145   14.8711  -12.0096 C   0  0  0  0  0  0  0  0  0  0  0  0
   36.2034   15.2461  -12.6508 C   0  0  0  0  0  0  0  0  0  0  0  0
   35.7105   14.1122  -13.4750 C   0  0  0  0  0  0  0  0  0  0  0  0
   34.3668   14.1207  -13.8966 C   0  0  0  0  0  0  0  0  0  0  0  0
   33.8732   13.0892  -14.6622 C   0  0  0  0  0  0  0  0  0  0  0  0
   34.6478   12.0162  -15.0496 C   0  0  0  0  0  0  0  0  0  0  0  0
   35.9585   12.0160  -14.6336 C   0  0  0  0  0  0  0  0  0  0  0  0
   36.4954   13.0532  -13.8508 C   0  0  0  0  0  0  0  0  0  0  0  0
   37.9273   12.9412  -13.4606 C   0  0  0  0  0  0  0  0  0  0  0  0
   45.3407   11.7006  -17.7732 O   0  0  0  0  0  0  0  0  0  0  0  0
   44.4649   12.2679  -16.8562 C   0  0  0  0  0  0  0  0  0  0  0  0
   43.0861   12.0597  -16.9291 C   0  0  0  0  0  0  0  0  0  0  0  0
   42.2354   12.6309  -16.0105 C   0  0  0  0  0  0  0  0  0  0  0  0
   42.7205   13.4376  -14.9751 C   0  0  0  0  0  0  0  0  0  0  0  0
   44.0631   13.6282  -14.9208 C   0  0  0  0  0  0  0  0  0  0  0  0
   44.9467   13.0589  -15.8417 C   0  0  0  0  0  0  0  0  0  0  0  0
   46.3169   13.2809  -15.7486 O   0  0  0  0  0  0  0  0  0  0  0  0
   44.9390   11.1265  -18.5014 H   0  0  0  0  0  0  0  0  0  0  0  0
   46.6371   13.8675  -14.9905 H   0  0  0  0  0  0  0  0  0  0  0  0
 15 16  1  0  0  0
 16 17  2  0  0  0
 17 18  1  0  0  0
 18 19  2  0  0  0
 19  1  1  0  0  0
  1  2  2  0  0  0
  2  3  1  0  0  0
  3  4  2  0  0  0
  3  5  1  0  0  0
  5  6  1  0  0  0
  6  7  1  0  0  0
  7  8  1  0  0  0
  8  9  2  0  0  0
  9 10  1  0  0  0
 10 11  2  0  0  0
 11 12  1  0  0  0
 12 13  2  0  0  0
 13 14  1  0  0  0
 19 20  1  0  0  0
 20 21  2  0  0  0
 21 22  1  0  0  0
 21 16  1  0  0  0
 14  5  1  0  0  0
 13  8  1  0  0  0
 15 23  1  0  0  0
 22 24  1  0  0  0
M  END
> <minimizedAffinity>
-8.76407

> <CNNscore>
0.2561507523

> <CNNaffinity>
5.2658190727

> <CNN_VS>
1.3488435745

> <CNNaffinity_variance>
0.0609202459

$$$$
[H]Oc1c([H])c([H])c(/C([H])=C(\[H])C(=O)N2C([H])([H])c3c([H])c([H])c([H])c([H])c3C([H])([H])C2([H])[H])c([H])c1O[H]


 24 26  0  0  0  0  0  0  0  0999 V2000
   41.5279   13.2833  -14.7696 C   0  0  0  0  0  0  0  0  0  0  0  0
   41.0379   14.3382  -14.1514 C   0  0  0  0  0  0  0  0  0  0  0  0
   39.6434   14.4120  -13.7042 C   0  0  0  0  0  0  0  0  0  0  0  0
   39.3183   15.4834  -13.0855 O   0  0  0  0  0  0  0  0  0  0  0  0
   38.7017   13.3843  -13.9277 N   0  0  0  0  0  0  0  0  0  0  0  0
   37.3522   13.5583  -13.4415 C   0  0  0  0  0  0  0  0  0  0  0  0
   36.3925   13.6479  -14.5998 C   0  0  0  0  0  0  0  0  0  0  0  0
   36.7235   12.6020  -15.6021 C   0  0  0  0  0  0  0  0  0  0  0  0
   35.7729   12.2963  -16.5951 C   0  0  0  0  0  0  0  0  0  0  0  0
   36.0429   11.3346  -17.5417 C   0  0  0  0  0  0  0  0  0  0  0  0
   37.2302   10.6340  -17.5698 C   0  0  0  0  0  0  0  0  0  0  0  0
   38.1527   10.9388  -16.5967 C   0  0  0  0  0  0  0  0  0  0  0  0
   37.9098   11.9152  -15.6146 C   0  0  0  0  0  0  0  0  0  0  0  0
   38.9837   12.1561  -14.6128 C   0  0  0  0  0  0  0  0  0  0  0  0
   46.9552   12.9668  -16.3890 O   0  0  0  0  0  0  0  0  0  0  0  0
   45.6253   13.0429  -15.9948 C   0  0  0  0  0  0  0  0  0  0  0  0
   45.2419   13.6910  -14.8190 C   0  0  0  0  0  0  0  0  0  0  0  0
   43.9187   13.7552  -14.4463 C   0  0  0  0  0  0  0  0  0  0  0  0
   42.9148   13.1751  -15.2298 C   0  0  0  0  0  0  0  0  0  0  0  0
   43.3069   12.5497  -16.3686 C   0  0  0  0  0  0  0  0  0  0  0  0
   44.6438   12.4716  -16.7679 C   0  0  0  0  0  0  0  0  0  0  0  0
   45.0014   11.8202  -17.9439 O   0  0  0  0  0  0  0  0  0  0  0  0
   47.6407   13.4021  -15.7876 H   0  0  0  0  0  0  0  0  0  0  0  0
   44.2546   11.4113  -18.4885 H   0  0  0  0  0  0  0  0  0  0  0  0
 15 16  1  0  0  0
 16 17  2  0  0  0
 17 18  1  0  0  0
 18 19  2  0  0  0
 19  1  1  0  0  0
  1  2  2  0  0  0
  2  3  1  0  0  0
  3  4  2  0  0  0
  3  5  1  0  0  0
  5  6  1  0  0  0
  6  7  1  0  0  0
  7  8  1  0  0  0
  8  9  2  0  0  0
  9 10  1  0  0  0
 10 11  2  0  0  0
 11 12  1  0  0  0
 12 13  2  0  0  0
 13 14  1  0  0  0
 19 20  1  0  0  0
 20 21  2  0  0  0
 21 22  1  0  0  0
 21 16  1  0  0  0
 14  5  1  0  0  0
 13  8  1  0  0  0
 15 23  1  0  0  0
 22 24  1  0  0  0
M  END
> <minimizedAffinity>
-8.91076

> <CNNscore>
0.2516494393

> <CNNaffinity>
5.4427294731

> <CNN_VS>
1.3696597815

> <CNNaffinity_variance>
0.0397259966

$$$$
[H]Oc1c([H])c([H])c(/C([H])=C(\[H])C(=O)N2C([H])([H])c3c([H])c([H])c([H])c([H])c3C([H])([H])C2([H])[H])c([H])c1O[H]


 24 26  0  0  0  0  0  0  0  0999 V2000
   34.5871   15.4712  -11.6915 C   0  0  0  0  0  0  0  0  0  0  0  0
   35.4381   14.4682  -11.7618 C   0  0  0  0  0  0  0  0  0  0  0  0
   36.8342   14.6471  -12.1729 C   0  0  0  0  0  0  0  0  0  0  0  0
   37.6474   14.9692  -11.2394 O   0  0  0  0  0  0  0  0  0  0  0  0
   37.2786   14.4816  -13.5025 N   0  0  0  0  0  0  0  0  0  0  0  0
   38.6779   14.6851  -13.7998 C   0  0  0  0  0  0  0  0  0  0  0  0
   39.3091   13.3870  -14.2323 C   0  0  0  0  0  0  0  0  0  0  0  0
   38.4096   12.6909  -15.1887 C   0  0  0  0  0  0  0  0  0  0  0  0
   38.9336   11.6345  -15.9584 C   0  0  0  0  0  0  0  0  0  0  0  0
   38.1320   10.9644  -16.8541 C   0  0  0  0  0  0  0  0  0  0  0  0
   36.8036   11.2825  -17.0430 C   0  0  0  0  0  0  0  0  0  0  0  0
   36.3002   12.3151  -16.2873 C   0  0  0  0  0  0  0  0  0  0  0  0
   37.0907   13.0210  -15.3633 C   0  0  0  0  0  0  0  0  0  0  0  0
   36.4343   14.1201  -14.6044 C   0  0  0  0  0  0  0  0  0  0  0  0
   29.2106   15.0090   -9.9429 O   0  0  0  0  0  0  0  0  0  0  0  0
   30.5266   15.1209  -10.3736 C   0  0  0  0  0  0  0  0  0  0  0  0
   31.5168   15.6946   -9.5737 C   0  0  0  0  0  0  0  0  0  0  0  0
   32.8149   15.7959  -10.0192 C   0  0  0  0  0  0  0  0  0  0  0  0
   33.1865   15.3294  -11.2851 C   0  0  0  0  0  0  0  0  0  0  0  0
   32.2104   14.7752  -12.0478 C   0  0  0  0  0  0  0  0  0  0  0  0
   30.8858   14.6612  -11.6174 C   0  0  0  0  0  0  0  0  0  0  0  0
   29.9165   14.0857  -12.4326 O   0  0  0  0  0  0  0  0  0  0  0  0
   28.9950   15.3614   -9.0207 H   0  0  0  0  0  0  0  0  0  0  0  0
   30.2151   13.7581  -13.3409 H   0  0  0  0  0  0  0  0  0  0  0  0
 15 16  1  0  0  0
 16 17  2  0  0  0
 17 18  1  0  0  0
 18 19  2  0  0  0
 19  1  1  0  0  0
  1  2  2  0  0  0
  2  3  1  0  0  0
  3  4  2  0  0  0
  3  5  1  0  0  0
  5  6  1  0  0  0
  6  7  1  0  0  0
  7  8  1  0  0  0
  8  9  2  0  0  0
  9 10  1  0  0  0
 10 11  2  0  0  0
 11 12  1  0  0  0
 12 13  2  0  0  0
 13 14  1  0  0  0
 19 20  1  0  0  0
 20 21  2  0  0  0
 21 22  1  0  0  0
 21 16  1  0  0  0
 14  5  1  0  0  0
 13  8  1  0  0  0
 15 23  1  0  0  0
 22 24  1  0  0  0
M  END
> <minimizedAffinity>
-8.82110

> <CNNscore>
0.2171331942

> <CNNaffinity>
5.2535800934

> <CNN_VS>
1.1407266855

> <CNNaffinity_variance>
0.2056373060

$$$$
[H]Oc1c([H])c([H])c(/C([H])=C(\[H])C(=O)N2C([H])([H])c3c([H])c([H])c([H])c([H])c3C([H])([H])C2([H])[H])c([H])c1O[H]


 24 26  0  0  0  0  0  0  0  0999 V2000
   37.8120   13.2433  -14.0290 C   0  0  0  0  0  0  0  0  0  0  0  0
   37.6659   14.4614  -13.5495 C   0  0  0  0  0  0  0  0  0  0  0  0
   38.6981   15.1191  -12.7420 C   0  0  0  0  0  0  0  0  0  0  0  0
   39.7417   15.4942  -13.3796 O   0  0  0  0  0  0  0  0  0  0  0  0
   38.5747   15.3365  -11.3527 N   0  0  0  0  0  0  0  0  0  0  0  0
   39.6544   15.9927  -10.6516 C   0  0  0  0  0  0  0  0  0  0  0  0
   39.1959   17.3305  -10.1312 C   0  0  0  0  0  0  0  0  0  0  0  0
   37.8493   17.1908   -9.5185 C   0  0  0  0  0  0  0  0  0  0  0  0
   37.3746   18.2282   -8.6929 C   0  0  0  0  0  0  0  0  0  0  0  0
   36.1321   18.1365   -8.1083 C   0  0  0  0  0  0  0  0  0  0  0  0
   35.3033   17.0503   -8.2940 C   0  0  0  0  0  0  0  0  0  0  0  0
   35.7746   16.0420   -9.1016 C   0  0  0  0  0  0  0  0  0  0  0  0
   37.0386   16.1030   -9.7143 C   0  0  0  0  0  0  0  0  0  0  0  0
   37.4396   14.9499  -10.5655 C   0  0  0  0  0  0  0  0  0  0  0  0
   34.0470   10.5398  -17.2992 O   0  0  0  0  0  0  0  0  0  0  0  0
   34.9669   11.2025  -16.4964 C   0  0  0  0  0  0  0  0  0  0  0  0
   36.3107   11.3181  -16.8577 C   0  0  0  0  0  0  0  0  0  0  0  0
   37.2061   11.9789  -16.0482 C   0  0  0  0  0  0  0  0  0  0  0  0
   36.8028   12.5558  -14.8388 C   0  0  0  0  0  0  0  0  0  0  0  0
   35.4932   12.4329  -14.5047 C   0  0  0  0  0  0  0  0  0  0  0  0
   34.5654   11.7670  -15.3101 C   0  0  0  0  0  0  0  0  0  0  0  0
   33.2315   11.6647  -14.9287 O   0  0  0  0  0  0  0  0  0  0  0  0
   34.3898   10.1412  -18.1621 H   0  0  0  0  0  0  0  0  0  0  0  0
   32.9704   12.0912  -14.0504 H   0  0  0  0  0  0  0  0  0  0  0  0
 15 16  1  0  0  0
 16 17  2  0  0  0
 17 18  1  0  0  0
 18 19  2  0  0  0
 19  1  1  0  0  0
  1  2  2  0  0  0
  2  3  1  0  0  0
  3  4  2  0  0  0
  3  5  1  0  0  0
  5  6  1  0  0  0
  6  7  1  0  0  0
  7  8  1  0  0  0
  8  9  2  0  0  0
  9 10  1  0  0  0
 10 11  2  0  0  0
 11 12  1  0  0  0
 12 13  2  0  0  0
 13 14  1  0  0  0
 19 20  1  0  0  0
 20 21  2  0  0  0
 21 22  1  0  0  0
 21 16  1  0  0  0
 14  5  1  0  0  0
 13  8  1  0  0  0
 15 23  1  0  0  0
 22 24  1  0  0  0
M  END
> <minimizedAffinity>
-7.77498

> <CNNscore>
0.2141508460

> <CNNaffinity>
4.9110422134

> <CNN_VS>
1.0517038107

> <CNNaffinity_variance>
0.1514338553

$$$$
[H]Oc1c([H])c([H])c(/C([H])=C(\[H])C(=O)N2C([H])([H])c3c([H])c([H])c([H])c([H])c3C([H])([H])C2([H])[H])c([H])c1O[H]


 24 26  0  0  0  0  0  0  0  0999 V2000
   38.8522   12.3709  -14.8570 C   0  0  0  0  0  0  0  0  0  0  0  0
   39.6745   13.2532  -15.3865 C   0  0  0  0  0  0  0  0  0  0  0  0
   40.9741   12.8783  -15.9526 C   0  0  0  0  0  0  0  0  0  0  0  0
   40.9542   12.4925  -17.1721 O   0  0  0  0  0  0  0  0  0  0  0  0
   42.1817   12.9298  -15.2235 N   0  0  0  0  0  0  0  0  0  0  0  0
   43.4080   12.5346  -15.8779 C   0  0  0  0  0  0  0  0  0  0  0  0
   44.3267   13.7211  -16.0152 C   0  0  0  0  0  0  0  0  0  0  0  0
   44.3429   14.4876  -14.7423 C   0  0  0  0  0  0  0  0  0  0  0  0
   45.3653   15.4346  -14.5398 C   0  0  0  0  0  0  0  0  0  0  0  0
   45.4136   16.1652  -13.3745 C   0  0  0  0  0  0  0  0  0  0  0  0
   44.4863   16.0143  -12.3652 C   0  0  0  0  0  0  0  0  0  0  0  0
   43.4915   15.0876  -12.5713 C   0  0  0  0  0  0  0  0  0  0  0  0
   43.4121   14.3242  -13.7493 C   0  0  0  0  0  0  0  0  0  0  0  0
   42.2907   13.3516  -13.8569 C   0  0  0  0  0  0  0  0  0  0  0  0
   33.7177   13.6535  -12.8151 O   0  0  0  0  0  0  0  0  0  0  0  0
   34.9762   13.3398  -13.3125 C   0  0  0  0  0  0  0  0  0  0  0  0
   35.1750   13.0023  -14.6527 C   0  0  0  0  0  0  0  0  0  0  0  0
   36.4303   12.6948  -15.1256 C   0  0  0  0  0  0  0  0  0  0  0  0
   37.5473   12.7095  -14.2830 C   0  0  0  0  0  0  0  0  0  0  0  0
   37.3342   13.0398  -12.9840 C   0  0  0  0  0  0  0  0  0  0  0  0
   36.0694   13.3558  -12.4807 C   0  0  0  0  0  0  0  0  0  0  0  0
   35.8962   13.6891  -11.1412 O   0  0  0  0  0  0  0  0  0  0  0  0
   32.9445   13.6280  -13.4653 H   0  0  0  0  0  0  0  0  0  0  0  0
   36.7213   13.6912  -10.5575 H   0  0  0  0  0  0  0  0  0  0  0  0
 15 16  1  0  0  0
 16 17  2  0  0  0
 17 18  1  0  0  0
 18 19  2  0  0  0
 19  1  1  0  0  0
  1  2  2  0  0  0
  2  3  1  0  0  0
  3  4  2  0  0  0
  3  5  1  0  0  0
  5  6  1  0  0  0
  6  7  1  0  0  0
  7  8  1  0  0  0
  8  9  2  0  0  0
  9 10  1  0  0  0
 10 11  2  0  0  0
 11 12  1  0  0  0
 12 13  2  0  0  0
 13 14  1  0  0  0
 19 20  1  0  0  0
 20 21  2  0  0  0
 21 22  1  0  0  0
 21 16  1  0  0  0
 14  5  1  0  0  0
 13  8  1  0  0  0
 15 23  1  0  0  0
 22 24  1  0  0  0
M  END
> <minimizedAffinity>
-7.68935

> <CNNscore>
0.2108180374

> <CNNaffinity>
5.3907556534

> <CNN_VS>
1.1364685297

> <CNNaffinity_variance>
0.1098492593

$$$$
[H]Oc1c([H])c([H])c(/C([H])=C(\[H])C(=O)N2C([H])([H])c3c([H])c([H])c([H])c([H])c3C([H])([H])C2([H])[H])c([H])c1O[H]


 24 26  0  0  0  0  0  0  0  0999 V2000
   34.3826   15.6981   -9.3553 C   0  0  0  0  0  0  0  0  0  0  0  0
   35.4241   14.9177   -9.1520 C   0  0  0  0  0  0  0  0  0  0  0  0
   36.5738   14.8858  -10.0615 C   0  0  0  0  0  0  0  0  0  0  0  0
   37.7224   14.8675   -9.4985 O   0  0  0  0  0  0  0  0  0  0  0  0
   36.4505   14.8756  -11.4677 N   0  0  0  0  0  0  0  0  0  0  0  0
   37.6505   14.8465  -12.2720 C   0  0  0  0  0  0  0  0  0  0  0  0
   37.7332   13.5474  -13.0311 C   0  0  0  0  0  0  0  0  0  0  0  0
   36.4046   13.2266  -13.6142 C   0  0  0  0  0  0  0  0  0  0  0  0
   36.3302   12.2420  -14.6183 C   0  0  0  0  0  0  0  0  0  0  0  0
   35.1178   11.9160  -15.1821 C   0  0  0  0  0  0  0  0  0  0  0  0
   33.9375   12.5205  -14.8044 C   0  0  0  0  0  0  0  0  0  0  0  0
   34.0193   13.4806  -13.8233 C   0  0  0  0  0  0  0  0  0  0  0  0
   35.2409   13.8383  -13.2261 C   0  0  0  0  0  0  0  0  0  0  0  0
   35.2033   14.8923  -12.1761 C   0  0  0  0  0  0  0  0  0  0  0  0
   29.9909   15.8694   -5.7689 O   0  0  0  0  0  0  0  0  0  0  0  0
   31.0646   15.8282   -6.6494 C   0  0  0  0  0  0  0  0  0  0  0  0
   32.3521   15.4936   -6.2252 C   0  0  0  0  0  0  0  0  0  0  0  0
   33.4025   15.4585   -7.1136 C   0  0  0  0  0  0  0  0  0  0  0  0
   33.2176   15.7559   -8.4684 C   0  0  0  0  0  0  0  0  0  0  0  0
   31.9594   16.0788   -8.8616 C   0  0  0  0  0  0  0  0  0  0  0  0
   30.8774   16.1211   -7.9784 C   0  0  0  0  0  0  0  0  0  0  0  0
   29.6034   16.4574   -8.4248 O   0  0  0  0  0  0  0  0  0  0  0  0
   30.1782   15.6461   -4.8013 H   0  0  0  0  0  0  0  0  0  0  0  0
   29.5012   16.6670   -9.4081 H   0  0  0  0  0  0  0  0  0  0  0  0
 15 16  1  0  0  0
 16 17  2  0  0  0
 17 18  1  0  0  0
 18 19  2  0  0  0
 19  1  1  0  0  0
  1  2  2  0  0  0
  2  3  1  0  0  0
  3  4  2  0  0  0
  3  5  1  0  0  0
  5  6  1  0  0  0
  6  7  1  0  0  0
  7  8  1  0  0  0
  8  9  2  0  0  0
  9 10  1  0  0  0
 10 11  2  0  0  0
 11 12  1  0  0  0
 12 13  2  0  0  0
 13 14  1  0  0  0
 19 20  1  0  0  0
 20 21  2  0  0  0
 21 22  1  0  0  0
 21 16  1  0  0  0
 14  5  1  0  0  0
 13  8  1  0  0  0
 15 23  1  0  0  0
 22 24  1  0  0  0
M  END
> <minimizedAffinity>
-6.92674

> <CNNscore>
0.2102639675

> <CNNaffinity>
4.8376545906

> <CNN_VS>
1.0171844959

> <CNNaffinity_variance>
0.2855041325

$$$$
[H]Oc1c([H])c([H])c(/C([H])=C(\[H])C(=O)N2C([H])([H])c3c([H])c([H])c([H])c([H])c3C([H])([H])C2([H])[H])c([H])c1O[H]


 24 26  0  0  0  0  0  0  0  0999 V2000
   37.2542   13.5440  -14.6596 C   0  0  0  0  0  0  0  0  0  0  0  0
   37.4689   13.6096  -13.3617 C   0  0  0  0  0  0  0  0  0  0  0  0
   38.4526   14.5227  -12.7711 C   0  0  0  0  0  0  0  0  0  0  0  0
   38.1601   14.9728  -11.6100 O   0  0  0  0  0  0  0  0  0  0  0  0
   39.6499   14.8970  -13.4183 N   0  0  0  0  0  0  0  0  0  0  0  0
   40.5497   15.8067  -12.7469 C   0  0  0  0  0  0  0  0  0  0  0  0
   41.8419   15.1059  -12.4155 C   0  0  0  0  0  0  0  0  0  0  0  0
   42.2858   14.3025  -13.5841 C   0  0  0  0  0  0  0  0  0  0  0  0
   43.6129   13.8320  -13.6123 C   0  0  0  0  0  0  0  0  0  0  0  0
   44.0613   13.0836  -14.6766 C   0  0  0  0  0  0  0  0  0  0  0  0
   43.2559   12.7608  -15.7483 C   0  0  0  0  0  0  0  0  0  0  0  0
   41.9617   13.2241  -15.7125 C   0  0  0  0  0  0  0  0  0  0  0  0
   41.4707   13.9911  -14.6412 C   0  0  0  0  0  0  0  0  0  0  0  0
   40.0527   14.4368  -14.7158 C   0  0  0  0  0  0  0  0  0  0  0  0
   33.6105   10.0376  -17.2299 O   0  0  0  0  0  0  0  0  0  0  0  0
   34.5010   10.8966  -16.5983 C   0  0  0  0  0  0  0  0  0  0  0  0
   35.7370   11.2200  -17.1614 C   0  0  0  0  0  0  0  0  0  0  0  0
   36.6049   12.0734  -16.5193 C   0  0  0  0  0  0  0  0  0  0  0  0
   36.2803   12.6447  -15.2839 C   0  0  0  0  0  0  0  0  0  0  0  0
   35.0749   12.3185  -14.7526 C   0  0  0  0  0  0  0  0  0  0  0  0
   34.1770   11.4547  -15.3855 C   0  0  0  0  0  0  0  0  0  0  0  0
   32.9510   11.1474  -14.8045 O   0  0  0  0  0  0  0  0  0  0  0  0
   33.8934    9.6521  -18.1202 H   0  0  0  0  0  0  0  0  0  0  0  0
   32.7448   11.5752  -13.9123 H   0  0  0  0  0  0  0  0  0  0  0  0
 15 16  1  0  0  0
 16 17  2  0  0  0
 17 18  1  0  0  0
 18 19  2  0  0  0
 19  1  1  0  0  0
  1  2  2  0  0  0
  2  3  1  0  0  0
  3  4  2  0  0  0
  3  5  1  0  0  0
  5  6  1  0  0  0
  6  7  1  0  0  0
  7  8  1  0  0  0
  8  9  2  0  0  0
  9 10  1  0  0  0
 10 11  2  0  0  0
 11 12  1  0  0  0
 12 13  2  0  0  0
 13 14  1  0  0  0
 19 20  1  0  0  0
 20 21  2  0  0  0
 21 22  1  0  0  0
 21 16  1  0  0  0
 14  5  1  0  0  0
 13  8  1  0  0  0
 15 23  1  0  0  0
 22 24  1  0  0  0
M  END
> <minimizedAffinity>
-8.21675

> <CNNscore>
0.2071870565

> <CNNaffinity>
5.4274330139

> <CNN_VS>
1.1244938374

> <CNNaffinity_variance>
0.0727690309

$$$$
[H]Oc1c([H])c([H])c(/C([H])=C(\[H])C(=O)N2C([H])([H])c3c([H])c([H])c([H])c([H])c3C([H])([H])C2([H])[H])c([H])c1O[H]


 24 26  0  0  0  0  0  0  0  0999 V2000
   37.4641   13.3075  -13.6784 C   0  0  0  0  0  0  0  0  0  0  0  0
   37.2250   14.4856  -13.1400 C   0  0  0  0  0  0  0  0  0  0  0  0
   38.1666   15.1395  -12.2257 C   0  0  0  0  0  0  0  0  0  0  0  0
   39.2427   15.5766  -12.7616 O   0  0  0  0  0  0  0  0  0  0  0  0
   37.9271   15.2899  -10.8427 N   0  0  0  0  0  0  0  0  0  0  0  0
   38.9244   15.9486  -10.0306 C   0  0  0  0  0  0  0  0  0  0  0  0
   38.3788   17.2460   -9.4922 C   0  0  0  0  0  0  0  0  0  0  0  0
   36.9943   17.0352   -8.9953 C   0  0  0  0  0  0  0  0  0  0  0  0
   36.4195   18.0184   -8.1670 C   0  0  0  0  0  0  0  0  0  0  0  0
   35.1392   17.8601   -7.6877 C   0  0  0  0  0  0  0  0  0  0  0  0
   34.3670   16.7570   -7.9847 C   0  0  0  0  0  0  0  0  0  0  0  0
   34.9359   15.8020   -8.7941 C   0  0  0  0  0  0  0  0  0  0  0  0
   36.2410   15.9316   -9.3010 C   0  0  0  0  0  0  0  0  0  0  0  0
   36.7485   14.8316  -10.1656 C   0  0  0  0  0  0  0  0  0  0  0  0
   33.7638   10.7034  -17.0997 O   0  0  0  0  0  0  0  0  0  0  0  0
   34.6721   11.3405  -16.2637 C   0  0  0  0  0  0  0  0  0  0  0  0
   34.2814   11.9116  -15.0510 C   0  0  0  0  0  0  0  0  0  0  0  0
   35.1971   12.5384  -14.2371 C   0  0  0  0  0  0  0  0  0  0  0  0
   36.5471   12.6251  -14.5952 C   0  0  0  0  0  0  0  0  0  0  0  0
   36.9076   12.0643  -15.7772 C   0  0  0  0  0  0  0  0  0  0  0  0
   35.9963   11.4227  -16.6203 C   0  0  0  0  0  0  0  0  0  0  0  0
   36.4096   10.8611  -17.8241 O   0  0  0  0  0  0  0  0  0  0  0  0
   32.8011   10.6684  -16.7945 H   0  0  0  0  0  0  0  0  0  0  0  0
   37.3903   10.9396  -18.0553 H   0  0  0  0  0  0  0  0  0  0  0  0
 15 16  1  0  0  0
 16 17  2  0  0  0
 17 18  1  0  0  0
 18 19  2  0  0  0
 19  1  1  0  0  0
  1  2  2  0  0  0
  2  3  1  0  0  0
  3  4  2  0  0  0
  3  5  1  0  0  0
  5  6  1  0  0  0
  6  7  1  0  0  0
  7  8  1  0  0  0
  8  9  2  0  0  0
  9 10  1  0  0  0
 10 11  2  0  0  0
 11 12  1  0  0  0
 12 13  2  0  0  0
 13 14  1  0  0  0
 19 20  1  0  0  0
 20 21  2  0  0  0
 21 22  1  0  0  0
 21 16  1  0  0  0
 14  5  1  0  0  0
 13  8  1  0  0  0
 15 23  1  0  0  0
 22 24  1  0  0  0
M  END
> <minimizedAffinity>
-7.50875

> <CNNscore>
0.2013239712

> <CNNaffinity>
5.0189085007

> <CNN_VS>
1.0104266405

> <CNNaffinity_variance>
0.0838310942

$$$$
[H]OC(=O)[C@@]([H])(N([H])C(=O)[C@@]([H])(S[H])C([H])(C([H])([H])[H])C([H])([H])[H])C([H])([H])c1c([H])c([H])c(-c2c([H])c([H])c([H])c([H])c2[H])c([H])c1[H]


 28 29  0  0  0  0  0  0  0  0999 V2000
   39.5087   15.8278  -12.0404 C   0  0  0  0  0  0  0  0  0  0  0  0
   40.5223   14.4827  -13.9109 C   0  0  0  0  0  0  0  0  0  0  0  0
   39.9230   15.1906  -14.7486 O   0  0  0  0  0  0  0  0  0  0  0  0
   40.3497   14.7594  -12.5341 N   0  0  0  0  0  0  0  0  0  0  0  0
   40.8423   14.1802  -11.7949 H   0  0  0  0  0  0  0  0  0  0  0  0
   41.3943   13.3787  -14.3379 C   0  0  0  0  0  0  0  0  0  0  0  0
   41.0662   12.9590  -16.0726 S   0  0  0  0  0  0  0  0  0  0  0  0
   41.4251   11.6374  -16.2961 H   0  0  0  0  0  0  0  0  0  0  0  0
   43.5718   13.2879  -15.4614 C   0  0  0  0  0  0  0  0  0  0  0  0
   42.8407   13.8220  -14.2547 C   0  0  0  0  0  0  0  0  0  0  0  0
   43.4707   13.4130  -12.9558 C   0  0  0  0  0  0  0  0  0  0  0  0
   40.1922   16.4618  -10.8973 C   0  0  0  0  0  0  0  0  0  0  0  0
   41.5660   16.4679  -10.7996 O   0  0  0  0  0  0  0  0  0  0  0  0
   39.5235   17.0074   -9.9933 O   0  0  0  0  0  0  0  0  0  0  0  0
   42.1176   15.6675  -10.5149 H   0  0  0  0  0  0  0  0  0  0  0  0
   38.1949   15.2834  -11.5382 C   0  0  0  0  0  0  0  0  0  0  0  0
   37.4309   14.5444  -12.5409 C   0  0  0  0  0  0  0  0  0  0  0  0
   36.7993   15.1011  -13.6195 C   0  0  0  0  0  0  0  0  0  0  0  0
   36.1004   14.3222  -14.5149 C   0  0  0  0  0  0  0  0  0  0  0  0
   36.0152   12.9537  -14.3518 C   0  0  0  0  0  0  0  0  0  0  0  0
   36.6406   12.3744  -13.2778 C   0  0  0  0  0  0  0  0  0  0  0  0
   37.3293   13.1642  -12.4003 C   0  0  0  0  0  0  0  0  0  0  0  0
   35.2893   12.0951  -15.2699 C   0  0  0  0  0  0  0  0  0  0  0  0
   35.9491   11.5853  -16.3592 C   0  0  0  0  0  0  0  0  0  0  0  0
   35.2367   10.7612  -17.2313 C   0  0  0  0  0  0  0  0  0  0  0  0
   33.9250   10.4690  -17.0113 C   0  0  0  0  0  0  0  0  0  0  0  0
   33.2731   10.9888  -15.9108 C   0  0  0  0  0  0  0  0  0  0  0  0
   33.9705   11.8182  -15.0234 C   0  0  0  0  0  0  0  0  0  0  0  0
  9 10  1  0  0  0
 10 11  1  0  0  0
 10  6  1  0  0  0
  6  7  1  0  0  0
  6  2  1  0  0  0
  2  3  2  0  0  0
  2  4  1  0  0  0
  4  1  1  0  0  0
  1 16  1  0  0  0
 16 17  1  0  0  0
 17 18  2  0  0  0
 18 19  1  0  0  0
 19 20  2  0  0  0
 20 21  1  0  0  0
 21 22  2  0  0  0
 20 23  1  0  0  0
 23 24  2  0  0  0
 24 25  1  0  0  0
 25 26  2  0  0  0
 26 27  1  0  0  0
 27 28  2  0  0  0
  1 12  1  0  0  0
 12 13  1  0  0  0
 12 14  2  0  0  0
 22 17  1  0  0  0
 28 23  1  0  0  0
  7  8  1  0  0  0
  4  5  1  0  0  0
 13 15  1  0  0  0
M  END
> <minimizedAffinity>
-7.33039

> <CNNscore>
0.3199681640

> <CNNaffinity>
5.7726063728

> <CNN_VS>
1.8470503092

> <CNNaffinity_variance>
0.1144281030

$$$$
[H]OC(=O)[C@@]([H])(N([H])C(=O)[C@@]([H])(S[H])C([H])(C([H])([H])[H])C([H])([H])[H])C([H])([H])c1c([H])c([H])c(-c2c([H])c([H])c([H])c([H])c2[H])c([H])c1[H]


 28 29  0  0  0  0  0  0  0  0999 V2000
   38.4607   15.9386  -11.2472 C   0  0  0  0  0  0  0  0  0  0  0  0
   40.9524   15.9502  -11.6035 C   0  0  0  0  0  0  0  0  0  0  0  0
   40.8148   16.7428  -12.5600 O   0  0  0  0  0  0  0  0  0  0  0  0
   39.8008   15.5129  -10.9073 N   0  0  0  0  0  0  0  0  0  0  0  0
   39.8787   14.8409  -10.0907 H   0  0  0  0  0  0  0  0  0  0  0  0
   42.2834   15.4739  -11.2000 C   0  0  0  0  0  0  0  0  0  0  0  0
   43.4165   15.5129  -12.6170 S   0  0  0  0  0  0  0  0  0  0  0  0
   44.4258   14.5818  -12.4175 H   0  0  0  0  0  0  0  0  0  0  0  0
   44.3059   16.6541  -10.4725 C   0  0  0  0  0  0  0  0  0  0  0  0
   42.8528   16.4073  -10.1511 C   0  0  0  0  0  0  0  0  0  0  0  0
   42.6383   15.8771   -8.7639 C   0  0  0  0  0  0  0  0  0  0  0  0
   38.0131   16.9084  -10.2300 C   0  0  0  0  0  0  0  0  0  0  0  0
   37.0561   16.5754   -9.2970 O   0  0  0  0  0  0  0  0  0  0  0  0
   38.5036   18.0577  -10.2032 O   0  0  0  0  0  0  0  0  0  0  0  0
   36.0641   16.5264   -9.4952 H   0  0  0  0  0  0  0  0  0  0  0  0
   37.5058   14.7717  -11.2126 C   0  0  0  0  0  0  0  0  0  0  0  0
   37.4981   13.9683  -12.4333 C   0  0  0  0  0  0  0  0  0  0  0  0
   36.6885   12.8894  -12.6625 C   0  0  0  0  0  0  0  0  0  0  0  0
   36.7521   12.1912  -13.8480 C   0  0  0  0  0  0  0  0  0  0  0  0
   37.6361   12.5586  -14.8430 C   0  0  0  0  0  0  0  0  0  0  0  0
   38.4572   13.6368  -14.6348 C   0  0  0  0  0  0  0  0  0  0  0  0
   38.3790   14.3171  -13.4518 C   0  0  0  0  0  0  0  0  0  0  0  0
   37.7373   11.8513  -16.1067 C   0  0  0  0  0  0  0  0  0  0  0  0
   38.9712   11.7149  -16.6904 C   0  0  0  0  0  0  0  0  0  0  0  0
   39.0506   11.0317  -17.9045 C   0  0  0  0  0  0  0  0  0  0  0  0
   37.9387   10.5140  -18.4960 C   0  0  0  0  0  0  0  0  0  0  0  0
   36.7030   10.6585  -17.8975 C   0  0  0  0  0  0  0  0  0  0  0  0
   36.6018   11.3410  -16.6786 C   0  0  0  0  0  0  0  0  0  0  0  0
  9 10  1  0  0  0
 10 11  1  0  0  0
 10  6  1  0  0  0
  6  7  1  0  0  0
  6  2  1  0  0  0
  2  3  2  0  0  0
  2  4  1  0  0  0
  4  1  1  0  0  0
  1 16  1  0  0  0
 16 17  1  0  0  0
 17 18  2  0  0  0
 18 19  1  0  0  0
 19 20  2  0  0  0
 20 21  1  0  0  0
 21 22  2  0  0  0
 20 23  1  0  0  0
 23 24  2  0  0  0
 24 25  1  0  0  0
 25 26  2  0  0  0
 26 27  1  0  0  0
 27 28  2  0  0  0
  1 12  1  0  0  0
 12 13  1  0  0  0
 12 14  2  0  0  0
 22 17  1  0  0  0
 28 23  1  0  0  0
  7  8  1  0  0  0
  4  5  1  0  0  0
 13 15  1  0  0  0
M  END
> <minimizedAffinity>
-7.53422

> <CNNscore>
0.2380956858

> <CNNaffinity>
5.3704829216

> <CNN_VS>
1.2786887884

> <CNNaffinity_variance>
0.1084985733

$$$$
[H]OC(=O)[C@@]([H])(N([H])C(=O)[C@@]([H])(S[H])C([H])(C([H])([H])[H])C([H])([H])[H])C([H])([H])c1c([H])c([H])c(-c2c([H])c([H])c([H])c([H])c2[H])c([H])c1[H]


 28 29  0  0  0  0  0  0  0  0999 V2000
   36.2068   14.5247  -11.1607 C   0  0  0  0  0  0  0  0  0  0  0  0
   35.6777   14.8518   -8.7218 C   0  0  0  0  0  0  0  0  0  0  0  0
   36.7115   14.2226   -8.4101 O   0  0  0  0  0  0  0  0  0  0  0  0
   35.3752   15.0335  -10.0920 N   0  0  0  0  0  0  0  0  0  0  0  0
   34.5069   15.5621  -10.3941 H   0  0  0  0  0  0  0  0  0  0  0  0
   34.7839   15.3984   -7.6903 C   0  0  0  0  0  0  0  0  0  0  0  0
   33.2466   15.9944   -8.4483 S   0  0  0  0  0  0  0  0  0  0  0  0
   32.6912   16.9750   -7.6386 H   0  0  0  0  0  0  0  0  0  0  0  0
   32.9041   14.3095   -6.5533 C   0  0  0  0  0  0  0  0  0  0  0  0
   34.4031   14.2966   -6.7225 C   0  0  0  0  0  0  0  0  0  0  0  0
   35.1434   14.4213   -5.4234 C   0  0  0  0  0  0  0  0  0  0  0  0
   36.7960   15.6739  -11.8733 C   0  0  0  0  0  0  0  0  0  0  0  0
   36.0079   16.6906  -12.3653 O   0  0  0  0  0  0  0  0  0  0  0  0
   38.0330   15.7385  -12.0404 O   0  0  0  0  0  0  0  0  0  0  0  0
   35.4541   16.6202  -13.2104 H   0  0  0  0  0  0  0  0  0  0  0  0
   35.3805   13.7491  -12.1560 C   0  0  0  0  0  0  0  0  0  0  0  0
   36.1487   13.1951  -13.2688 C   0  0  0  0  0  0  0  0  0  0  0  0
   37.2323   12.3689  -13.1453 C   0  0  0  0  0  0  0  0  0  0  0  0
   37.8954   11.8944  -14.2553 C   0  0  0  0  0  0  0  0  0  0  0  0
   37.4868   12.2381  -15.5286 C   0  0  0  0  0  0  0  0  0  0  0  0
   36.4030   13.0650  -15.6760 C   0  0  0  0  0  0  0  0  0  0  0  0
   35.7581   13.5255  -14.5624 C   0  0  0  0  0  0  0  0  0  0  0  0
   38.1561   11.7620  -16.7256 C   0  0  0  0  0  0  0  0  0  0  0  0
   39.4723   12.0942  -16.9228 C   0  0  0  0  0  0  0  0  0  0  0  0
   40.1006   11.6277  -18.0782 C   0  0  0  0  0  0  0  0  0  0  0  0
   39.4307   10.8649  -18.9858 C   0  0  0  0  0  0  0  0  0  0  0  0
   38.1061   10.5379  -18.7747 C   0  0  0  0  0  0  0  0  0  0  0  0
   37.4572   10.9963  -17.6211 C   0  0  0  0  0  0  0  0  0  0  0  0
  9 10  1  0  0  0
 10 11  1  0  0  0
 10  6  1  0  0  0
  6  7  1  0  0  0
  6  2  1  0  0  0
  2  3  2  0  0  0
  2  4  1  0  0  0
  4  1  1  0  0  0
  1 16  1  0  0  0
 16 17  1  0  0  0
 17 18  2  0  0  0
 18 19  1  0  0  0
 19 20  2  0  0  0
 20 21  1  0  0  0
 21 22  2  0  0  0
 20 23  1  0  0  0
 23 24  2  0  0  0
 24 25  1  0  0  0
 25 26  2  0  0  0
 26 27  1  0  0  0
 27 28  2  0  0  0
  1 12  1  0  0  0
 12 13  1  0  0  0
 12 14  2  0  0  0
 22 17  1  0  0  0
 28 23  1  0  0  0
  7  8  1  0  0  0
  4  5  1  0  0  0
 13 15  1  0  0  0
M  END
> <minimizedAffinity>
-8.16043

> <CNNscore>
0.2357907444

> <CNNaffinity>
5.3165779114

> <CNN_VS>
1.2535998821

> <CNNaffinity_variance>
0.2500783801

$$$$
[H]OC(=O)[C@@]([H])(N([H])C(=O)[C@@]([H])(S[H])C([H])(C([H])([H])[H])C([H])([H])[H])C([H])([H])c1c([H])c([H])c(-c2c([H])c([H])c([H])c([H])c2[H])c([H])c1[H]


 28 29  0  0  0  0  0  0  0  0999 V2000
   34.6885   14.3986  -12.5510 C   0  0  0  0  0  0  0  0  0  0  0  0
   36.1443   15.9526  -11.2090 C   0  0  0  0  0  0  0  0  0  0  0  0
   36.6740   16.3698  -12.2613 O   0  0  0  0  0  0  0  0  0  0  0  0
   35.1392   14.9605  -11.2966 N   0  0  0  0  0  0  0  0  0  0  0  0
   34.6674   14.5828  -10.4252 H   0  0  0  0  0  0  0  0  0  0  0  0
   36.5509   16.4768   -9.8970 C   0  0  0  0  0  0  0  0  0  0  0  0
   36.7359   15.1160   -8.7109 S   0  0  0  0  0  0  0  0  0  0  0  0
   36.5508   15.6051   -7.4256 H   0  0  0  0  0  0  0  0  0  0  0  0
   38.9126   16.3215   -9.2561 C   0  0  0  0  0  0  0  0  0  0  0  0
   37.9057   17.1435  -10.0220 C   0  0  0  0  0  0  0  0  0  0  0  0
   37.8593   18.5773   -9.5821 C   0  0  0  0  0  0  0  0  0  0  0  0
   33.2195   14.5188  -12.6086 C   0  0  0  0  0  0  0  0  0  0  0  0
   32.4811   13.8219  -13.5392 O   0  0  0  0  0  0  0  0  0  0  0  0
   32.6211   15.2640  -11.8032 O   0  0  0  0  0  0  0  0  0  0  0  0
   32.4079   14.0824  -14.5152 H   0  0  0  0  0  0  0  0  0  0  0  0
   35.0269   12.9309  -12.6299 C   0  0  0  0  0  0  0  0  0  0  0  0
   35.9813   12.5927  -13.6835 C   0  0  0  0  0  0  0  0  0  0  0  0
   37.3208   12.3848  -13.4974 C   0  0  0  0  0  0  0  0  0  0  0  0
   38.1454   12.0688  -14.5544 C   0  0  0  0  0  0  0  0  0  0  0  0
   37.6453   11.9521  -15.8362 C   0  0  0  0  0  0  0  0  0  0  0  0
   36.3057   12.1563  -16.0458 C   0  0  0  0  0  0  0  0  0  0  0  0
   35.5037   12.4688  -14.9841 C   0  0  0  0  0  0  0  0  0  0  0  0
   38.4775   11.6218  -16.9788 C   0  0  0  0  0  0  0  0  0  0  0  0
   39.7814   12.0475  -16.9914 C   0  0  0  0  0  0  0  0  0  0  0  0
   40.5676   11.7208  -18.0971 C   0  0  0  0  0  0  0  0  0  0  0  0
   40.0594   11.0007  -19.1351 C   0  0  0  0  0  0  0  0  0  0  0  0
   38.7452   10.5785  -19.1094 C   0  0  0  0  0  0  0  0  0  0  0  0
   37.9394   10.8961  -18.0087 C   0  0  0  0  0  0  0  0  0  0  0  0
  9 10  1  0  0  0
 10 11  1  0  0  0
 10  6  1  0  0  0
  6  7  1  0  0  0
  6  2  1  0  0  0
  2  3  2  0  0  0
  2  4  1  0  0  0
  4  1  1  0  0  0
  1 16  1  0  0  0
 16 17  1  0  0  0
 17 18  2  0  0  0
 18 19  1  0  0  0
 19 20  2  0  0  0
 20 21  1  0  0  0
 21 22  2  0  0  0
 20 23  1  0  0  0
 23 24  2  0  0  0
 24 25  1  0  0  0
 25 26  2  0  0  0
 26 27  1  0  0  0
 27 28  2  0  0  0
  1 12  1  0  0  0
 12 13  1  0  0  0
 12 14  2  0  0  0
 22 17  1  0  0  0
 28 23  1  0  0  0
  7  8  1  0  0  0
  4  5  1  0  0  0
 13 15  1  0  0  0
M  END
> <minimizedAffinity>
-8.59864

> <CNNscore>
0.2249620706

> <CNNaffinity>
5.3466253281

> <CNN_VS>
1.2027878761

> <CNNaffinity_variance>
0.3187495768

$$$$
[H]OC(=O)[C@@]([H])(N([H])C(=O)[C@@]([H])(S[H])C([H])(C([H])([H])[H])C([H])([H])[H])C([H])([H])c1c([H])c([H])c(-c2c([H])c([H])c([H])c([H])c2[H])c([H])c1[H]


 28 29  0  0  0  0  0  0  0  0999 V2000
   36.3912   14.7704  -10.0357 C   0  0  0  0  0  0  0  0  0  0  0  0
   35.8358   14.6927   -7.5820 C   0  0  0  0  0  0  0  0  0  0  0  0
   36.4257   13.5956   -7.4802 O   0  0  0  0  0  0  0  0  0  0  0  0
   35.7880   15.3283   -8.8452 N   0  0  0  0  0  0  0  0  0  0  0  0
   35.2966   16.2598   -8.9695 H   0  0  0  0  0  0  0  0  0  0  0  0
   35.1989   15.3211   -6.4154 C   0  0  0  0  0  0  0  0  0  0  0  0
   34.5814   14.0476   -5.2796 S   0  0  0  0  0  0  0  0  0  0  0  0
   33.5372   14.5732   -4.5320 H   0  0  0  0  0  0  0  0  0  0  0  0
   36.0641   15.8507   -4.1831 C   0  0  0  0  0  0  0  0  0  0  0  0
   36.2310   16.1297   -5.6562 C   0  0  0  0  0  0  0  0  0  0  0  0
   36.1466   17.5896   -5.9923 C   0  0  0  0  0  0  0  0  0  0  0  0
   37.6204   15.5309  -10.3294 C   0  0  0  0  0  0  0  0  0  0  0  0
   38.8538   14.9181  -10.3444 O   0  0  0  0  0  0  0  0  0  0  0  0
   37.5554   16.7554  -10.5711 O   0  0  0  0  0  0  0  0  0  0  0  0
   39.3698   14.6623   -9.5113 H   0  0  0  0  0  0  0  0  0  0  0  0
   35.4704   14.9213  -11.2207 C   0  0  0  0  0  0  0  0  0  0  0  0
   35.9467   14.2645  -12.4361 C   0  0  0  0  0  0  0  0  0  0  0  0
   36.4215   14.9080  -13.5463 C   0  0  0  0  0  0  0  0  0  0  0  0
   36.8502   14.2025  -14.6488 C   0  0  0  0  0  0  0  0  0  0  0  0
   36.8139   12.8223  -14.6680 C   0  0  0  0  0  0  0  0  0  0  0  0
   36.3418   12.1566  -13.5662 C   0  0  0  0  0  0  0  0  0  0  0  0
   35.9210   12.8743  -12.4817 C   0  0  0  0  0  0  0  0  0  0  0  0
   37.2547   12.0390  -15.8079 C   0  0  0  0  0  0  0  0  0  0  0  0
   38.6007   11.8920  -16.0277 C   0  0  0  0  0  0  0  0  0  0  0  0
   39.0071   11.1354  -17.1275 C   0  0  0  0  0  0  0  0  0  0  0  0
   38.0977   10.5581  -17.9606 C   0  0  0  0  0  0  0  0  0  0  0  0
   36.7459   10.7141  -17.7276 C   0  0  0  0  0  0  0  0  0  0  0  0
   36.3173   11.4698  -16.6290 C   0  0  0  0  0  0  0  0  0  0  0  0
  9 10  1  0  0  0
 10 11  1  0  0  0
 10  6  1  0  0  0
  6  7  1  0  0  0
  6  2  1  0  0  0
  2  3  2  0  0  0
  2  4  1  0  0  0
  4  1  1  0  0  0
  1 16  1  0  0  0
 16 17  1  0  0  0
 17 18  2  0  0  0
 18 19  1  0  0  0
 19 20  2  0  0  0
 20 21  1  0  0  0
 21 22  2  0  0  0
 20 23  1  0  0  0
 23 24  2  0  0  0
 24 25  1  0  0  0
 25 26  2  0  0  0
 26 27  1  0  0  0
 27 28  2  0  0  0
  1 12  1  0  0  0
 12 13  1  0  0  0
 12 14  2  0  0  0
 22 17  1  0  0  0
 28 23  1  0  0  0
  7  8  1  0  0  0
  4  5  1  0  0  0
 13 15  1  0  0  0
M  END
> <minimizedAffinity>
-7.29397

> <CNNscore>
0.2180304229

> <CNNaffinity>
5.0201311111

> <CNN_VS>
1.0945413113

> <CNNaffinity_variance>
0.2484914809

$$$$
[H]OC(=O)[C@@]([H])(N([H])C(=O)[C@@]([H])(S[H])C([H])(C([H])([H])[H])C([H])([H])[H])C([H])([H])c1c([H])c([H])c(-c2c([H])c([H])c([H])c([H])c2[H])c([H])c1[H]


 28 29  0  0  0  0  0  0  0  0999 V2000
   44.2447   12.9541  -15.1362 C   0  0  0  0  0  0  0  0  0  0  0  0
   44.0377   14.0536  -12.8815 C   0  0  0  0  0  0  0  0  0  0  0  0
   43.5055   13.0199  -12.4231 O   0  0  0  0  0  0  0  0  0  0  0  0
   44.4294   14.0753  -14.2410 N   0  0  0  0  0  0  0  0  0  0  0  0
   44.8841   14.9346  -14.6646 H   0  0  0  0  0  0  0  0  0  0  0  0
   44.2579   15.2328  -12.0316 C   0  0  0  0  0  0  0  0  0  0  0  0
   44.6994   16.6657  -13.0538 S   0  0  0  0  0  0  0  0  0  0  0  0
   45.4335   17.5608  -12.2888 H   0  0  0  0  0  0  0  0  0  0  0  0
   42.0951   16.3655  -12.2594 C   0  0  0  0  0  0  0  0  0  0  0  0
   42.9697   15.5803  -11.3136 C   0  0  0  0  0  0  0  0  0  0  0  0
   43.2325   16.2974  -10.0220 C   0  0  0  0  0  0  0  0  0  0  0  0
   45.5716   12.5227  -15.6147 C   0  0  0  0  0  0  0  0  0  0  0  0
   45.9184   12.6194  -16.9441 O   0  0  0  0  0  0  0  0  0  0  0  0
   46.4065   12.0588  -14.8085 O   0  0  0  0  0  0  0  0  0  0  0  0
   45.5988   11.9796  -17.6613 H   0  0  0  0  0  0  0  0  0  0  0  0
   43.4382   13.3631  -16.3433 C   0  0  0  0  0  0  0  0  0  0  0  0
   42.0134   13.0548  -16.2435 C   0  0  0  0  0  0  0  0  0  0  0  0
   41.1824   13.4800  -15.2431 C   0  0  0  0  0  0  0  0  0  0  0  0
   39.8483   13.1381  -15.2328 C   0  0  0  0  0  0  0  0  0  0  0  0
   39.3072   12.3547  -16.2328 C   0  0  0  0  0  0  0  0  0  0  0  0
   40.1216   11.9173  -17.2455 C   0  0  0  0  0  0  0  0  0  0  0  0
   41.4429   12.2672  -17.2383 C   0  0  0  0  0  0  0  0  0  0  0  0
   37.9078   11.9700  -16.2613 C   0  0  0  0  0  0  0  0  0  0  0  0
   37.4797   11.1070  -17.2379 C   0  0  0  0  0  0  0  0  0  0  0  0
   36.1315   10.7471  -17.2504 C   0  0  0  0  0  0  0  0  0  0  0  0
   35.2630   11.2356  -16.3222 C   0  0  0  0  0  0  0  0  0  0  0  0
   35.7074   12.1034  -15.3447 C   0  0  0  0  0  0  0  0  0  0  0  0
   37.0569   12.4771  -15.3149 C   0  0  0  0  0  0  0  0  0  0  0  0
  9 10  1  0  0  0
 10 11  1  0  0  0
 10  6  1  0  0  0
  6  7  1  0  0  0
  6  2  1  0  0  0
  2  3  2  0  0  0
  2  4  1  0  0  0
  4  1  1  0  0  0
  1 16  1  0  0  0
 16 17  1  0  0  0
 17 18  2  0  0  0
 18 19  1  0  0  0
 19 20  2  0  0  0
 20 21  1  0  0  0
 21 22  2  0  0  0
 20 23  1  0  0  0
 23 24  2  0  0  0
 24 25  1  0  0  0
 25 26  2  0  0  0
 26 27  1  0  0  0
 27 28  2  0  0  0
  1 12  1  0  0  0
 12 13  1  0  0  0
 12 14  2  0  0  0
 22 17  1  0  0  0
 28 23  1  0  0  0
  7  8  1  0  0  0
  4  5  1  0  0  0
 13 15  1  0  0  0
M  END
> <minimizedAffinity>
-8.09489

> <CNNscore>
0.2097971886

> <CNNaffinity>
5.5211048126

> <CNN_VS>
1.1583123207

> <CNNaffinity_variance>
0.0490081273

$$$$
[H]OC(=O)[C@@]([H])(N([H])C(=O)[C@@]([H])(S[H])C([H])(C([H])([H])[H])C([H])([H])[H])C([H])([H])c1c([H])c([H])c(-c2c([H])c([H])c([H])c([H])c2[H])c([H])c1[H]


 28 29  0  0  0  0  0  0  0  0999 V2000
   38.0162   15.2790   -9.9868 C   0  0  0  0  0  0  0  0  0  0  0  0
   36.1691   15.2004   -8.2787 C   0  0  0  0  0  0  0  0  0  0  0  0
   36.1206   13.9561   -8.3841 O   0  0  0  0  0  0  0  0  0  0  0  0
   37.1048   15.9167   -9.0620 N   0  0  0  0  0  0  0  0  0  0  0  0
   37.1747   16.9730   -8.9989 H   0  0  0  0  0  0  0  0  0  0  0  0
   35.2740   15.9180   -7.3593 C   0  0  0  0  0  0  0  0  0  0  0  0
   35.3379   17.7011   -7.6904 S   0  0  0  0  0  0  0  0  0  0  0  0
   34.9876   18.3901   -6.5379 H   0  0  0  0  0  0  0  0  0  0  0  0
   33.4003   16.0109   -8.9383 C   0  0  0  0  0  0  0  0  0  0  0  0
   33.8461   15.4730   -7.6012 C   0  0  0  0  0  0  0  0  0  0  0  0
   32.9424   15.8763   -6.4733 C   0  0  0  0  0  0  0  0  0  0  0  0
   39.3946   15.5619   -9.5445 C   0  0  0  0  0  0  0  0  0  0  0  0
   40.0834   14.6793   -8.7424 O   0  0  0  0  0  0  0  0  0  0  0  0
   39.9598   16.6194   -9.8973 O   0  0  0  0  0  0  0  0  0  0  0  0
   39.9265   14.5768   -7.7470 H   0  0  0  0  0  0  0  0  0  0  0  0
   37.8577   15.8529  -11.3725 C   0  0  0  0  0  0  0  0  0  0  0  0
   37.3382   14.9058  -12.3566 C   0  0  0  0  0  0  0  0  0  0  0  0
   38.1019   14.1510  -13.2046 C   0  0  0  0  0  0  0  0  0  0  0  0
   37.5215   13.2820  -14.1018 C   0  0  0  0  0  0  0  0  0  0  0  0
   36.1493   13.1454  -14.1735 C   0  0  0  0  0  0  0  0  0  0  0  0
   35.3644   13.8922  -13.3330 C   0  0  0  0  0  0  0  0  0  0  0  0
   35.9591   14.7490  -12.4495 C   0  0  0  0  0  0  0  0  0  0  0  0
   35.4955   12.2428  -15.1036 C   0  0  0  0  0  0  0  0  0  0  0  0
   34.1636   11.9650  -14.9287 C   0  0  0  0  0  0  0  0  0  0  0  0
   33.5506   11.0959  -15.8322 C   0  0  0  0  0  0  0  0  0  0  0  0
   34.2501   10.5379  -16.8587 C   0  0  0  0  0  0  0  0  0  0  0  0
   35.5902   10.8263  -17.0230 C   0  0  0  0  0  0  0  0  0  0  0  0
   36.2242   11.6962  -16.1268 C   0  0  0  0  0  0  0  0  0  0  0  0
  9 10  1  0  0  0
 10 11  1  0  0  0
 10  6  1  0  0  0
  6  7  1  0  0  0
  6  2  1  0  0  0
  2  3  2  0  0  0
  2  4  1  0  0  0
  4  1  1  0  0  0
  1 16  1  0  0  0
 16 17  1  0  0  0
 17 18  2  0  0  0
 18 19  1  0  0  0
 19 20  2  0  0  0
 20 21  1  0  0  0
 21 22  2  0  0  0
 20 23  1  0  0  0
 23 24  2  0  0  0
 24 25  1  0  0  0
 25 26  2  0  0  0
 26 27  1  0  0  0
 27 28  2  0  0  0
  1 12  1  0  0  0
 12 13  1  0  0  0
 12 14  2  0  0  0
 22 17  1  0  0  0
 28 23  1  0  0  0
  7  8  1  0  0  0
  4  5  1  0  0  0
 13 15  1  0  0  0
M  END
> <minimizedAffinity>
-6.84670

> <CNNscore>
0.2042143494

> <CNNaffinity>
5.1843400002

> <CNN_VS>
1.0587166548

> <CNNaffinity_variance>
0.3792088926

$$$$
[H]OC(=O)[C@@]([H])(N([H])C(=O)[C@@]([H])(S[H])C([H])(C([H])([H])[H])C([H])([H])[H])C([H])([H])c1c([H])c([H])c(-c2c([H])c([H])c([H])c([H])c2[H])c([H])c1[H]


 28 29  0  0  0  0  0  0  0  0999 V2000
   38.8707   16.2949  -11.1707 C   0  0  0  0  0  0  0  0  0  0  0  0
   41.3087   16.2898  -11.7966 C   0  0  0  0  0  0  0  0  0  0  0  0
   41.0578   17.0037  -12.7913 O   0  0  0  0  0  0  0  0  0  0  0  0
   40.2452   15.9036  -10.9469 N   0  0  0  0  0  0  0  0  0  0  0  0
   40.4202   15.2985  -10.0937 H   0  0  0  0  0  0  0  0  0  0  0  0
   42.6818   15.8530  -11.5049 C   0  0  0  0  0  0  0  0  0  0  0  0
   43.0274   16.0222   -9.7314 S   0  0  0  0  0  0  0  0  0  0  0  0
   44.3949   16.1690   -9.5469 H   0  0  0  0  0  0  0  0  0  0  0  0
   44.2049   13.9324  -11.4421 C   0  0  0  0  0  0  0  0  0  0  0  0
   42.8232   14.3836  -11.8460 C   0  0  0  0  0  0  0  0  0  0  0  0
   42.5162   14.1191  -13.2907 C   0  0  0  0  0  0  0  0  0  0  0  0
   38.4542   17.1714  -10.0599 C   0  0  0  0  0  0  0  0  0  0  0  0
   37.5530   18.1944  -10.2556 O   0  0  0  0  0  0  0  0  0  0  0  0
   38.9205   16.9930   -8.9140 O   0  0  0  0  0  0  0  0  0  0  0  0
   37.7853   19.0789  -10.6909 H   0  0  0  0  0  0  0  0  0  0  0  0
   37.9649   15.0891  -11.1612 C   0  0  0  0  0  0  0  0  0  0  0  0
   37.9429   14.3472  -12.4199 C   0  0  0  0  0  0  0  0  0  0  0  0
   38.6376   14.6876  -13.5485 C   0  0  0  0  0  0  0  0  0  0  0  0
   38.5548   13.9247  -14.6922 C   0  0  0  0  0  0  0  0  0  0  0  0
   37.7671   12.7914  -14.7356 C   0  0  0  0  0  0  0  0  0  0  0  0
   37.0621   12.4315  -13.6161 C   0  0  0  0  0  0  0  0  0  0  0  0
   37.1573   13.2013  -12.4906 C   0  0  0  0  0  0  0  0  0  0  0  0
   37.6499   11.9590  -15.9190 C   0  0  0  0  0  0  0  0  0  0  0  0
   36.4004   11.5771  -16.3369 C   0  0  0  0  0  0  0  0  0  0  0  0
   36.3057   10.7776  -17.4767 C   0  0  0  0  0  0  0  0  0  0  0  0
   37.4183   10.3858  -18.1572 C   0  0  0  0  0  0  0  0  0  0  0  0
   38.6698   10.7774  -17.7255 C   0  0  0  0  0  0  0  0  0  0  0  0
   38.7864   11.5801  -16.5836 C   0  0  0  0  0  0  0  0  0  0  0  0
  9 10  1  0  0  0
 10 11  1  0  0  0
 10  6  1  0  0  0
  6  7  1  0  0  0
  6  2  1  0  0  0
  2  3  2  0  0  0
  2  4  1  0  0  0
  4  1  1  0  0  0
  1 16  1  0  0  0
 16 17  1  0  0  0
 17 18  2  0  0  0
 18 19  1  0  0  0
 19 20  2  0  0  0
 20 21  1  0  0  0
 21 22  2  0  0  0
 20 23  1  0  0  0
 23 24  2  0  0  0
 24 25  1  0  0  0
 25 26  2  0  0  0
 26 27  1  0  0  0
 27 28  2  0  0  0
  1 12  1  0  0  0
 12 13  1  0  0  0
 12 14  2  0  0  0
 22 17  1  0  0  0
 28 23  1  0  0  0
  7  8  1  0  0  0
  4  5  1  0  0  0
 13 15  1  0  0  0
M  END
> <minimizedAffinity>
-7.51888

> <CNNscore>
0.1936259419

> <CNNaffinity>
5.2563467026

> <CNN_VS>
1.0177650452

> <CNNaffinity_variance>
0.1452678293

$$$$
[H]OC(=O)[C@@]([H])(N([H])C(=O)[C@@]([H])(S[H])C([H])(C([H])([H])[H])C([H])([H])[H])C([H])([H])c1c([H])c([H])c(-c2c([H])c([H])c([H])c([H])c2[H])c([H])c1[H]


 28 29  0  0  0  0  0  0  0  0999 V2000
   34.6284   14.3569  -12.6123 C   0  0  0  0  0  0  0  0  0  0  0  0
   36.0020   15.9338  -11.2116 C   0  0  0  0  0  0  0  0  0  0  0  0
   36.6558   16.2674  -12.2231 O   0  0  0  0  0  0  0  0  0  0  0  0
   34.9698   14.9759  -11.3503 N   0  0  0  0  0  0  0  0  0  0  0  0
   34.3941   14.6687  -10.5143 H   0  0  0  0  0  0  0  0  0  0  0  0
   36.2920   16.5203   -9.8950 C   0  0  0  0  0  0  0  0  0  0  0  0
   34.9644   16.1168   -8.7255 S   0  0  0  0  0  0  0  0  0  0  0  0
   34.9279   17.0816   -7.7289 H   0  0  0  0  0  0  0  0  0  0  0  0
   37.2452   15.2359   -8.0365 C   0  0  0  0  0  0  0  0  0  0  0  0
   37.5667   15.9128   -9.3458 C   0  0  0  0  0  0  0  0  0  0  0  0
   38.6600   16.9337   -9.2279 C   0  0  0  0  0  0  0  0  0  0  0  0
   33.1603   14.3774  -12.7535 C   0  0  0  0  0  0  0  0  0  0  0  0
   32.5296   13.6875  -13.7650 O   0  0  0  0  0  0  0  0  0  0  0  0
   32.4635   15.0296  -11.9463 O   0  0  0  0  0  0  0  0  0  0  0  0
   32.4938   14.0000  -14.7277 H   0  0  0  0  0  0  0  0  0  0  0  0
   35.0659   12.9137  -12.6338 C   0  0  0  0  0  0  0  0  0  0  0  0
   36.0466   12.6012  -13.6710 C   0  0  0  0  0  0  0  0  0  0  0  0
   37.3882   12.4309  -13.4627 C   0  0  0  0  0  0  0  0  0  0  0  0
   38.2385   12.1370  -14.5056 C   0  0  0  0  0  0  0  0  0  0  0  0
   37.7630   12.0051  -15.7952 C   0  0  0  0  0  0  0  0  0  0  0  0
   36.4219   12.1716  -16.0271 C   0  0  0  0  0  0  0  0  0  0  0  0
   35.5941   12.4627  -14.9792 C   0  0  0  0  0  0  0  0  0  0  0  0
   38.6228   11.6970  -16.9236 C   0  0  0  0  0  0  0  0  0  0  0  0
   38.0979   11.0027  -17.9838 C   0  0  0  0  0  0  0  0  0  0  0  0
   38.9379   10.7155  -19.0604 C   0  0  0  0  0  0  0  0  0  0  0  0
   40.2409   11.1110  -19.0628 C   0  0  0  0  0  0  0  0  0  0  0  0
   40.7563   11.8093  -17.9890 C   0  0  0  0  0  0  0  0  0  0  0  0
   39.9296   12.1075  -16.8984 C   0  0  0  0  0  0  0  0  0  0  0  0
  9 10  1  0  0  0
 10 11  1  0  0  0
 10  6  1  0  0  0
  6  7  1  0  0  0
  6  2  1  0  0  0
  2  3  2  0  0  0
  2  4  1  0  0  0
  4  1  1  0  0  0
  1 16  1  0  0  0
 16 17  1  0  0  0
 17 18  2  0  0  0
 18 19  1  0  0  0
 19 20  2  0  0  0
 20 21  1  0  0  0
 21 22  2  0  0  0
 20 23  1  0  0  0
 23 24  2  0  0  0
 24 25  1  0  0  0
 25 26  2  0  0  0
 26 27  1  0  0  0
 27 28  2  0  0  0
  1 12  1  0  0  0
 12 13  1  0  0  0
 12 14  2  0  0  0
 22 17  1  0  0  0
 28 23  1  0  0  0
  7  8  1  0  0  0
  4  5  1  0  0  0
 13 15  1  0  0  0
M  END
> <minimizedAffinity>
-8.42474

> <CNNscore>
0.1899586171

> <CNNaffinity>
5.3105988503

> <CNN_VS>
1.0087940693

> <CNNaffinity_variance>
0.3038622439

$$$$
[H]c1nc(OC([H])([H])c2c(-c3c([H])c([H])c([H])c(F)c3[H])noc2C([H])([H])[H])c([H])c([H])c1C(=O)N1C([H])([H])C([H])([H])OC([H])([H])C1([H])[H]


 29 32  0  0  0  0  0  0  0  0999 V2000
   39.7490   13.3952  -15.6969 O   0  0  0  0  0  0  0  0  0  0  0  0
   41.1252   13.4407  -15.2887 C   0  0  0  0  0  0  0  0  0  0  0  0
   41.6075   13.7032  -14.0487 C   0  0  0  0  0  0  0  0  0  0  0  0
   42.9651   13.6868  -13.7776 C   0  0  0  0  0  0  0  0  0  0  0  0
   43.9022   13.4054  -14.7362 C   0  0  0  0  0  0  0  0  0  0  0  0
   43.3758   13.1366  -16.0261 C   0  0  0  0  0  0  0  0  0  0  0  0
   42.0713   13.1702  -16.2256 N   0  0  0  0  0  0  0  0  0  0  0  0
   45.3177   13.3941  -14.6355 C   0  0  0  0  0  0  0  0  0  0  0  0
   45.8118   12.1290  -14.8592 O   0  0  0  0  0  0  0  0  0  0  0  0
   46.3356   14.3013  -14.3899 N   0  0  0  0  0  0  0  0  0  0  0  0
   46.2553   15.6800  -14.1572 C   0  0  0  0  0  0  0  0  0  0  0  0
   47.0461   16.0903  -12.9098 C   0  0  0  0  0  0  0  0  0  0  0  0
   48.1771   15.3516  -12.7440 O   0  0  0  0  0  0  0  0  0  0  0  0
   48.6374   14.7883  -13.9312 C   0  0  0  0  0  0  0  0  0  0  0  0
   47.7097   13.6952  -14.3550 C   0  0  0  0  0  0  0  0  0  0  0  0
   39.1857   12.0373  -15.6026 C   0  0  0  0  0  0  0  0  0  0  0  0
   40.5636   11.1130  -18.3839 C   0  0  0  0  0  0  0  0  0  0  0  0
   39.1327   11.1200  -17.9897 C   0  0  0  0  0  0  0  0  0  0  0  0
   38.1449   10.6259  -18.7385 O   0  0  0  0  0  0  0  0  0  0  0  0
   37.0197   10.7657  -18.1868 N   0  0  0  0  0  0  0  0  0  0  0  0
   37.1640   11.3913  -16.9562 C   0  0  0  0  0  0  0  0  0  0  0  0
   38.5454   11.6178  -16.8478 C   0  0  0  0  0  0  0  0  0  0  0  0
   36.0836   11.5835  -16.0187 C   0  0  0  0  0  0  0  0  0  0  0  0
   34.8328   11.0904  -16.4452 C   0  0  0  0  0  0  0  0  0  0  0  0
   33.6696   11.2212  -15.7115 C   0  0  0  0  0  0  0  0  0  0  0  0
   33.7396   11.8681  -14.5013 C   0  0  0  0  0  0  0  0  0  0  0  0
   34.9401   12.3559  -14.0660 C   0  0  0  0  0  0  0  0  0  0  0  0
   34.9803   13.0073  -12.8733 F   0  0  0  0  0  0  0  0  0  0  0  0
   36.1142   12.2159  -14.8191 C   0  0  0  0  0  0  0  0  0  0  0  0
 17 18  1  0  0  0
 18 19  1  0  0  0
 19 20  1  0  0  0
 20 21  2  0  0  0
 21 22  1  0  0  0
 22 16  1  0  0  0
 16  1  1  0  0  0
  1  2  1  0  0  0
  2  3  2  0  0  0
  3  4  1  0  0  0
  4  5  2  0  0  0
  5  6  1  0  0  0
  6  7  2  0  0  0
  5  8  1  0  0  0
  8  9  2  0  0  0
  8 10  1  0  0  0
 10 11  1  0  0  0
 11 12  1  0  0  0
 12 13  1  0  0  0
 13 14  1  0  0  0
 14 15  1  0  0  0
 21 23  1  0  0  0
 23 24  2  0  0  0
 24 25  1  0  0  0
 25 26  2  0  0  0
 26 27  1  0  0  0
 27 28  1  0  0  0
 27 29  2  0  0  0
 22 18  2  0  0  0
  7  2  1  0  0  0
 15 10  1  0  0  0
 29 23  1  0  0  0
M  END
> <minimizedAffinity>
-8.90913

> <CNNscore>
0.7090228200

> <CNNaffinity>
6.6309823990

> <CNN_VS>
4.7015180588

> <CNNaffinity_variance>
0.1152703017

$$$$
[H]c1nc(OC([H])([H])c2c(-c3c([H])c([H])c([H])c(F)c3[H])noc2C([H])([H])[H])c([H])c([H])c1C(=O)N1C([H])([H])C([H])([H])OC([H])([H])C1([H])[H]


 29 32  0  0  0  0  0  0  0  0999 V2000
   37.1463   12.6714  -15.3777 O   0  0  0  0  0  0  0  0  0  0  0  0
   36.7385   13.2153  -14.1126 C   0  0  0  0  0  0  0  0  0  0  0  0
   35.4814   13.2687  -13.6066 C   0  0  0  0  0  0  0  0  0  0  0  0
   35.2238   13.7954  -12.3523 C   0  0  0  0  0  0  0  0  0  0  0  0
   36.2140   14.2917  -11.5466 C   0  0  0  0  0  0  0  0  0  0  0  0
   37.5203   14.2284  -12.0967 C   0  0  0  0  0  0  0  0  0  0  0  0
   37.7045   13.7181  -13.3002 N   0  0  0  0  0  0  0  0  0  0  0  0
   36.1140   14.9024  -10.2695 C   0  0  0  0  0  0  0  0  0  0  0  0
   37.2842   14.7464   -9.5620 O   0  0  0  0  0  0  0  0  0  0  0  0
   35.1750   15.6206   -9.5469 N   0  0  0  0  0  0  0  0  0  0  0  0
   33.8873   16.0227   -9.9230 C   0  0  0  0  0  0  0  0  0  0  0  0
   32.8468   15.6570   -8.8584 C   0  0  0  0  0  0  0  0  0  0  0  0
   33.3395   15.7550   -7.5935 O   0  0  0  0  0  0  0  0  0  0  0  0
   34.4279   16.6183   -7.4995 C   0  0  0  0  0  0  0  0  0  0  0  0
   35.6152   15.9948   -8.1602 C   0  0  0  0  0  0  0  0  0  0  0  0
   38.2500   11.7057  -15.2379 C   0  0  0  0  0  0  0  0  0  0  0  0
   37.4083   10.4732  -18.1121 C   0  0  0  0  0  0  0  0  0  0  0  0
   38.6513   11.1765  -17.7081 C   0  0  0  0  0  0  0  0  0  0  0  0
   39.6325   11.5104  -18.5485 O   0  0  0  0  0  0  0  0  0  0  0  0
   40.5849   12.0869  -17.9564 N   0  0  0  0  0  0  0  0  0  0  0  0
   40.3077   12.2005  -16.6010 C   0  0  0  0  0  0  0  0  0  0  0  0
   39.0473   11.5985  -16.4583 C   0  0  0  0  0  0  0  0  0  0  0  0
   41.1367   12.9241  -15.6672 C   0  0  0  0  0  0  0  0  0  0  0  0
   42.5250   12.7544  -15.8509 C   0  0  0  0  0  0  0  0  0  0  0  0
   43.4793   13.3246  -15.0308 C   0  0  0  0  0  0  0  0  0  0  0  0
   43.0481   14.0977  -13.9798 C   0  0  0  0  0  0  0  0  0  0  0  0
   41.7077   14.2767  -13.7801 C   0  0  0  0  0  0  0  0  0  0  0  0
   41.3057   15.0317  -12.7232 F   0  0  0  0  0  0  0  0  0  0  0  0
   40.7486   13.6939  -14.6200 C   0  0  0  0  0  0  0  0  0  0  0  0
 17 18  1  0  0  0
 18 19  1  0  0  0
 19 20  1  0  0  0
 20 21  2  0  0  0
 21 22  1  0  0  0
 22 16  1  0  0  0
 16  1  1  0  0  0
  1  2  1  0  0  0
  2  3  2  0  0  0
  3  4  1  0  0  0
  4  5  2  0  0  0
  5  6  1  0  0  0
  6  7  2  0  0  0
  5  8  1  0  0  0
  8  9  2  0  0  0
  8 10  1  0  0  0
 10 11  1  0  0  0
 11 12  1  0  0  0
 12 13  1  0  0  0
 13 14  1  0  0  0
 14 15  1  0  0  0
 21 23  1  0  0  0
 23 24  2  0  0  0
 24 25  1  0  0  0
 25 26  2  0  0  0
 26 27  1  0  0  0
 27 28  1  0  0  0
 27 29  2  0  0  0
 22 18  2  0  0  0
  7  2  1  0  0  0
 15 10  1  0  0  0
 29 23  1  0  0  0
M  END
> <minimizedAffinity>
-8.26248

> <CNNscore>
0.6370915174

> <CNNaffinity>
6.6188874245

> <CNN_VS>
4.2168369293

> <CNNaffinity_variance>
0.2673538327

$$$$
[H]c1nc(OC([H])([H])c2c(-c3c([H])c([H])c([H])c(F)c3[H])noc2C([H])([H])[H])c([H])c([H])c1C(=O)N1C([H])([H])C([H])([H])OC([H])([H])C1([H])[H]


 29 32  0  0  0  0  0  0  0  0999 V2000
   39.3532   13.2491  -15.7810 O   0  0  0  0  0  0  0  0  0  0  0  0
   40.7629   13.2663  -15.5067 C   0  0  0  0  0  0  0  0  0  0  0  0
   41.3806   13.7562  -14.4033 C   0  0  0  0  0  0  0  0  0  0  0  0
   42.7543   13.6843  -14.2464 C   0  0  0  0  0  0  0  0  0  0  0  0
   43.5725   13.1172  -15.1873 C   0  0  0  0  0  0  0  0  0  0  0  0
   42.9056   12.6140  -16.3341 C   0  0  0  0  0  0  0  0  0  0  0  0
   41.5928   12.7139  -16.4298 N   0  0  0  0  0  0  0  0  0  0  0  0
   44.9873   13.0074  -15.2014 C   0  0  0  0  0  0  0  0  0  0  0  0
   45.3794   11.8451  -15.8257 O   0  0  0  0  0  0  0  0  0  0  0  0
   46.0777   13.7487  -14.7760 N   0  0  0  0  0  0  0  0  0  0  0  0
   46.1061   14.9965  -14.1407 C   0  0  0  0  0  0  0  0  0  0  0  0
   46.9936   14.9752  -12.8911 C   0  0  0  0  0  0  0  0  0  0  0  0
   48.0787   14.1666  -13.0369 O   0  0  0  0  0  0  0  0  0  0  0  0
   48.4301   13.9633  -14.3687 C   0  0  0  0  0  0  0  0  0  0  0  0
   47.4065   13.0940  -15.0256 C   0  0  0  0  0  0  0  0  0  0  0  0
   38.7732   11.9039  -15.6264 C   0  0  0  0  0  0  0  0  0  0  0  0
   37.6185   10.4103  -18.2579 C   0  0  0  0  0  0  0  0  0  0  0  0
   36.8930   11.1102  -17.1686 C   0  0  0  0  0  0  0  0  0  0  0  0
   35.5641   11.1497  -17.0556 O   0  0  0  0  0  0  0  0  0  0  0  0
   35.1957   11.8193  -16.0526 N   0  0  0  0  0  0  0  0  0  0  0  0
   36.3014   12.3056  -15.3689 C   0  0  0  0  0  0  0  0  0  0  0  0
   37.3964   11.8374  -16.1128 C   0  0  0  0  0  0  0  0  0  0  0  0
   36.2260   13.0019  -14.1070 C   0  0  0  0  0  0  0  0  0  0  0  0
   34.9395   13.4647  -13.7604 C   0  0  0  0  0  0  0  0  0  0  0  0
   34.6720   14.1936  -12.6177 C   0  0  0  0  0  0  0  0  0  0  0  0
   35.7195   14.4816  -11.7763 C   0  0  0  0  0  0  0  0  0  0  0  0
   36.9762   14.0450  -12.0905 C   0  0  0  0  0  0  0  0  0  0  0  0
   37.9990   14.3576  -11.2510 F   0  0  0  0  0  0  0  0  0  0  0  0
   37.2351   13.3049  -13.2526 C   0  0  0  0  0  0  0  0  0  0  0  0
 17 18  1  0  0  0
 18 19  1  0  0  0
 19 20  1  0  0  0
 20 21  2  0  0  0
 21 22  1  0  0  0
 22 16  1  0  0  0
 16  1  1  0  0  0
  1  2  1  0  0  0
  2  3  2  0  0  0
  3  4  1  0  0  0
  4  5  2  0  0  0
  5  6  1  0  0  0
  6  7  2  0  0  0
  5  8  1  0  0  0
  8  9  2  0  0  0
  8 10  1  0  0  0
 10 11  1  0  0  0
 11 12  1  0  0  0
 12 13  1  0  0  0
 13 14  1  0  0  0
 14 15  1  0  0  0
 21 23  1  0  0  0
 23 24  2  0  0  0
 24 25  1  0  0  0
 25 26  2  0  0  0
 26 27  1  0  0  0
 27 28  1  0  0  0
 27 29  2  0  0  0
 22 18  2  0  0  0
  7  2  1  0  0  0
 15 10  1  0  0  0
 29 23  1  0  0  0
M  END
> <minimizedAffinity>
-8.47332

> <CNNscore>
0.5510939360

> <CNNaffinity>
6.5351991653

> <CNN_VS>
3.6015086174

> <CNNaffinity_variance>
0.1134820729

$$$$
[H]c1nc(OC([H])([H])c2c(-c3c([H])c([H])c([H])c(F)c3[H])noc2C([H])([H])[H])c([H])c([H])c1C(=O)N1C([H])([H])C([H])([H])OC([H])([H])C1([H])[H]


 29 32  0  0  0  0  0  0  0  0999 V2000
   40.4593   13.4832  -16.0902 O   0  0  0  0  0  0  0  0  0  0  0  0
   41.7661   13.3843  -15.5026 C   0  0  0  0  0  0  0  0  0  0  0  0
   42.1090   13.6257  -14.2130 C   0  0  0  0  0  0  0  0  0  0  0  0
   43.4083   13.4635  -13.7631 C   0  0  0  0  0  0  0  0  0  0  0  0
   44.4239   13.0507  -14.5843 C   0  0  0  0  0  0  0  0  0  0  0  0
   44.0434   12.8067  -15.9292 C   0  0  0  0  0  0  0  0  0  0  0  0
   42.7889   12.9820  -16.3014 N   0  0  0  0  0  0  0  0  0  0  0  0
   45.8030   12.8822  -14.2956 C   0  0  0  0  0  0  0  0  0  0  0  0
   46.5796   13.4385  -15.2865 O   0  0  0  0  0  0  0  0  0  0  0  0
   46.5803   12.3286  -13.2912 N   0  0  0  0  0  0  0  0  0  0  0  0
   46.1787   11.7083  -12.1015 C   0  0  0  0  0  0  0  0  0  0  0  0
   46.8720   10.3551  -11.9068 C   0  0  0  0  0  0  0  0  0  0  0  0
   48.1490   10.3519  -12.3774 O   0  0  0  0  0  0  0  0  0  0  0  0
   48.7083   11.6254  -12.4408 C   0  0  0  0  0  0  0  0  0  0  0  0
   48.0596   12.3987  -13.5436 C   0  0  0  0  0  0  0  0  0  0  0  0
   39.5195   12.5000  -15.5244 C   0  0  0  0  0  0  0  0  0  0  0  0
   40.3839   11.1488  -18.3380 C   0  0  0  0  0  0  0  0  0  0  0  0
   39.0504   11.2225  -17.6903 C   0  0  0  0  0  0  0  0  0  0  0  0
   37.9543   10.6218  -18.1573 O   0  0  0  0  0  0  0  0  0  0  0  0
   36.9469   10.8500  -17.4340 N   0  0  0  0  0  0  0  0  0  0  0  0
   37.2998   11.6590  -16.3627 C   0  0  0  0  0  0  0  0  0  0  0  0
   38.6714   11.8943  -16.5493 C   0  0  0  0  0  0  0  0  0  0  0  0
   36.4064   11.9988  -15.2814 C   0  0  0  0  0  0  0  0  0  0  0  0
   35.0415   12.0516  -15.6335 C   0  0  0  0  0  0  0  0  0  0  0  0
   34.0384   12.4054  -14.7521 C   0  0  0  0  0  0  0  0  0  0  0  0
   34.3943   12.7229  -13.4634 C   0  0  0  0  0  0  0  0  0  0  0  0
   35.7107   12.6801  -13.0976 C   0  0  0  0  0  0  0  0  0  0  0  0
   36.0394   13.0154  -11.8217 F   0  0  0  0  0  0  0  0  0  0  0  0
   36.7198   12.3183  -14.0009 C   0  0  0  0  0  0  0  0  0  0  0  0
 17 18  1  0  0  0
 18 19  1  0  0  0
 19 20  1  0  0  0
 20 21  2  0  0  0
 21 22  1  0  0  0
 22 16  1  0  0  0
 16  1  1  0  0  0
  1  2  1  0  0  0
  2  3  2  0  0  0
  3  4  1  0  0  0
  4  5  2  0  0  0
  5  6  1  0  0  0
  6  7  2  0  0  0
  5  8  1  0  0  0
  8  9  2  0  0  0
  8 10  1  0  0  0
 10 11  1  0  0  0
 11 12  1  0  0  0
 12 13  1  0  0  0
 13 14  1  0  0  0
 14 15  1  0  0  0
 21 23  1  0  0  0
 23 24  2  0  0  0
 24 25  1  0  0  0
 25 26  2  0  0  0
 26 27  1  0  0  0
 27 28  1  0  0  0
 27 29  2  0  0  0
 22 18  2  0  0  0
  7  2  1  0  0  0
 15 10  1  0  0  0
 29 23  1  0  0  0
M  END
> <minimizedAffinity>
-9.15092

> <CNNscore>
0.5018404722

> <CNNaffinity>
6.4865407944

> <CNN_VS>
3.2552087307

> <CNNaffinity_variance>
0.1554164290

$$$$
[H]c1nc(OC([H])([H])c2c(-c3c([H])c([H])c([H])c(F)c3[H])noc2C([H])([H])[H])c([H])c([H])c1C(=O)N1C([H])([H])C([H])([H])OC([H])([H])C1([H])[H]


 29 32  0  0  0  0  0  0  0  0999 V2000
   38.8147   13.9182  -14.7303 O   0  0  0  0  0  0  0  0  0  0  0  0
   39.9194   14.4439  -13.9779 C   0  0  0  0  0  0  0  0  0  0  0  0
   39.8932   15.4563  -13.0760 C   0  0  0  0  0  0  0  0  0  0  0  0
   41.0303   15.8502  -12.3913 C   0  0  0  0  0  0  0  0  0  0  0  0
   42.2459   15.2471  -12.5778 C   0  0  0  0  0  0  0  0  0  0  0  0
   42.2508   14.1928  -13.5274 C   0  0  0  0  0  0  0  0  0  0  0  0
   41.1355   13.8636  -14.1523 N   0  0  0  0  0  0  0  0  0  0  0  0
   43.5033   15.5576  -11.9979 C   0  0  0  0  0  0  0  0  0  0  0  0
   43.6366   14.9507  -10.7698 O   0  0  0  0  0  0  0  0  0  0  0  0
   44.6337   16.2868  -12.3298 N   0  0  0  0  0  0  0  0  0  0  0  0
   44.9090   17.0104  -13.4969 C   0  0  0  0  0  0  0  0  0  0  0  0
   45.3998   18.4279  -13.1813 C   0  0  0  0  0  0  0  0  0  0  0  0
   46.1610   18.4764  -12.0541 O   0  0  0  0  0  0  0  0  0  0  0  0
   46.7469   17.2528  -11.7407 C   0  0  0  0  0  0  0  0  0  0  0  0
   45.6933   16.3048  -11.2651 C   0  0  0  0  0  0  0  0  0  0  0  0
   38.8867   12.4539  -14.8742 C   0  0  0  0  0  0  0  0  0  0  0  0
   41.1991   12.0166  -17.0992 C   0  0  0  0  0  0  0  0  0  0  0  0
   39.7434   11.7372  -17.1754 C   0  0  0  0  0  0  0  0  0  0  0  0
   39.1467   11.1372  -18.2071 O   0  0  0  0  0  0  0  0  0  0  0  0
   37.9022   11.0297  -18.0348 N   0  0  0  0  0  0  0  0  0  0  0  0
   37.5399   11.5698  -16.8085 C   0  0  0  0  0  0  0  0  0  0  0  0
   38.7509   12.0289  -16.2661 C   0  0  0  0  0  0  0  0  0  0  0  0
   36.2095   11.4905  -16.2549 C   0  0  0  0  0  0  0  0  0  0  0  0
   35.3370   10.6116  -16.9301 C   0  0  0  0  0  0  0  0  0  0  0  0
   34.0117   10.4344  -16.5827 C   0  0  0  0  0  0  0  0  0  0  0  0
   33.5209   11.1562  -15.5214 C   0  0  0  0  0  0  0  0  0  0  0  0
   34.3464   12.0153  -14.8512 C   0  0  0  0  0  0  0  0  0  0  0  0
   33.8328   12.7309  -13.8155 F   0  0  0  0  0  0  0  0  0  0  0  0
   35.6901   12.1857  -15.2123 C   0  0  0  0  0  0  0  0  0  0  0  0
 17 18  1  0  0  0
 18 19  1  0  0  0
 19 20  1  0  0  0
 20 21  2  0  0  0
 21 22  1  0  0  0
 22 16  1  0  0  0
 16  1  1  0  0  0
  1  2  1  0  0  0
  2  3  2  0  0  0
  3  4  1  0  0  0
  4  5  2  0  0  0
  5  6  1  0  0  0
  6  7  2  0  0  0
  5  8  1  0  0  0
  8  9  2  0  0  0
  8 10  1  0  0  0
 10 11  1  0  0  0
 11 12  1  0  0  0
 12 13  1  0  0  0
 13 14  1  0  0  0
 14 15  1  0  0  0
 21 23  1  0  0  0
 23 24  2  0  0  0
 24 25  1  0  0  0
 25 26  2  0  0  0
 26 27  1  0  0  0
 27 28  1  0  0  0
 27 29  2  0  0  0
 22 18  2  0  0  0
  7  2  1  0  0  0
 15 10  1  0  0  0
 29 23  1  0  0  0
M  END
> <minimizedAffinity>
-8.64588

> <CNNscore>
0.3808785975

> <CNNaffinity>
6.1786446571

> <CNN_VS>
2.3533134460

> <CNNaffinity_variance>
0.1013368741

$$$$
[H]c1nc(OC([H])([H])c2c(-c3c([H])c([H])c([H])c(F)c3[H])noc2C([H])([H])[H])c([H])c([H])c1C(=O)N1C([H])([H])C([H])([H])OC([H])([H])C1([H])[H]


 29 32  0  0  0  0  0  0  0  0999 V2000
   39.4463   12.8689  -16.4539 O   0  0  0  0  0  0  0  0  0  0  0  0
   40.6853   13.1038  -15.7665 C   0  0  0  0  0  0  0  0  0  0  0  0
   41.9351   12.7994  -16.1959 C   0  0  0  0  0  0  0  0  0  0  0  0
   43.0572   13.1079  -15.4458 C   0  0  0  0  0  0  0  0  0  0  0  0
   42.9790   13.7368  -14.2315 C   0  0  0  0  0  0  0  0  0  0  0  0
   41.6623   14.0433  -13.8008 C   0  0  0  0  0  0  0  0  0  0  0  0
   40.6297   13.7214  -14.5576 N   0  0  0  0  0  0  0  0  0  0  0  0
   44.0169   14.0777  -13.3258 C   0  0  0  0  0  0  0  0  0  0  0  0
   44.3564   12.9965  -12.5447 O   0  0  0  0  0  0  0  0  0  0  0  0
   44.7889   15.1872  -13.0212 N   0  0  0  0  0  0  0  0  0  0  0  0
   44.7821   16.4584  -13.6088 C   0  0  0  0  0  0  0  0  0  0  0  0
   44.6931   17.5683  -12.5553 C   0  0  0  0  0  0  0  0  0  0  0  0
   45.3654   17.2574  -11.4135 O   0  0  0  0  0  0  0  0  0  0  0  0
   46.3688   16.3130  -11.6134 C   0  0  0  0  0  0  0  0  0  0  0  0
   45.7494   14.9798  -11.8850 C   0  0  0  0  0  0  0  0  0  0  0  0
   38.6015   11.8841  -15.7564 C   0  0  0  0  0  0  0  0  0  0  0  0
   37.8620   10.2938  -18.4791 C   0  0  0  0  0  0  0  0  0  0  0  0
   36.9702   10.9536  -17.4930 C   0  0  0  0  0  0  0  0  0  0  0  0
   35.6374   10.9057  -17.5358 O   0  0  0  0  0  0  0  0  0  0  0  0
   35.1115   11.5583  -16.5936 N   0  0  0  0  0  0  0  0  0  0  0  0
   36.0958   12.1230  -15.7943 C   0  0  0  0  0  0  0  0  0  0  0  0
   37.2983   11.7220  -16.3982 C   0  0  0  0  0  0  0  0  0  0  0  0
   35.8284   12.8240  -14.5614 C   0  0  0  0  0  0  0  0  0  0  0  0
   36.7171   12.5297  -13.5064 C   0  0  0  0  0  0  0  0  0  0  0  0
   36.5986   13.0615  -12.2369 C   0  0  0  0  0  0  0  0  0  0  0  0
   35.5562   13.9230  -11.9931 C   0  0  0  0  0  0  0  0  0  0  0  0
   34.6807   14.2235  -12.9989 C   0  0  0  0  0  0  0  0  0  0  0  0
   33.6476   15.0648  -12.7282 F   0  0  0  0  0  0  0  0  0  0  0  0
   34.8121   13.6784  -14.2838 C   0  0  0  0  0  0  0  0  0  0  0  0
 17 18  1  0  0  0
 18 19  1  0  0  0
 19 20  1  0  0  0
 20 21  2  0  0  0
 21 22  1  0  0  0
 22 16  1  0  0  0
 16  1  1  0  0  0
  1  2  1  0  0  0
  2  3  2  0  0  0
  3  4  1  0  0  0
  4  5  2  0  0  0
  5  6  1  0  0  0
  6  7  2  0  0  0
  5  8  1  0  0  0
  8  9  2  0  0  0
  8 10  1  0  0  0
 10 11  1  0  0  0
 11 12  1  0  0  0
 12 13  1  0  0  0
 13 14  1  0  0  0
 14 15  1  0  0  0
 21 23  1  0  0  0
 23 24  2  0  0  0
 24 25  1  0  0  0
 25 26  2  0  0  0
 26 27  1  0  0  0
 27 28  1  0  0  0
 27 29  2  0  0  0
 22 18  2  0  0  0
  7  2  1  0  0  0
 15 10  1  0  0  0
 29 23  1  0  0  0
M  END
> <minimizedAffinity>
-8.27370

> <CNNscore>
0.3677982092

> <CNNaffinity>
6.2955999374

> <CNN_VS>
2.3155102730

> <CNNaffinity_variance>
0.1576257646

$$$$
[H]c1nc(OC([H])([H])c2c(-c3c([H])c([H])c([H])c(F)c3[H])noc2C([H])([H])[H])c([H])c([H])c1C(=O)N1C([H])([H])C([H])([H])OC([H])([H])C1([H])[H]


 29 32  0  0  0  0  0  0  0  0999 V2000
   40.0717   13.5036  -16.1506 O   0  0  0  0  0  0  0  0  0  0  0  0
   41.3492   13.4423  -15.4972 C   0  0  0  0  0  0  0  0  0  0  0  0
   42.5283   13.0380  -16.0316 C   0  0  0  0  0  0  0  0  0  0  0  0
   43.7029   13.0549  -15.2989 C   0  0  0  0  0  0  0  0  0  0  0  0
   43.7507   13.4789  -13.9973 C   0  0  0  0  0  0  0  0  0  0  0  0
   42.5060   13.8946  -13.4579 C   0  0  0  0  0  0  0  0  0  0  0  0
   41.4176   13.8530  -14.2039 N   0  0  0  0  0  0  0  0  0  0  0  0
   44.8510   13.5137  -13.1017 C   0  0  0  0  0  0  0  0  0  0  0  0
   46.0366   13.3447  -13.7800 O   0  0  0  0  0  0  0  0  0  0  0  0
   45.0624   13.6840  -11.7431 N   0  0  0  0  0  0  0  0  0  0  0  0
   44.1302   13.9216  -10.7253 C   0  0  0  0  0  0  0  0  0  0  0  0
   44.3261   12.9647   -9.5439 C   0  0  0  0  0  0  0  0  0  0  0  0
   45.6363   12.6673   -9.3265 O   0  0  0  0  0  0  0  0  0  0  0  0
   46.5037   13.6340   -9.8285 C   0  0  0  0  0  0  0  0  0  0  0  0
   46.5005   13.5767  -11.3223 C   0  0  0  0  0  0  0  0  0  0  0  0
   39.1708   12.4236  -15.7124 C   0  0  0  0  0  0  0  0  0  0  0  0
   40.3835   10.9336  -18.3198 C   0  0  0  0  0  0  0  0  0  0  0  0
   38.9733   11.0819  -17.8813 C   0  0  0  0  0  0  0  0  0  0  0  0
   37.9338   10.5048  -18.4869 O   0  0  0  0  0  0  0  0  0  0  0  0
   36.8411   10.7982  -17.9300 N   0  0  0  0  0  0  0  0  0  0  0  0
   37.0658   11.6341  -16.8449 C   0  0  0  0  0  0  0  0  0  0  0  0
   38.4586   11.8108  -16.8322 C   0  0  0  0  0  0  0  0  0  0  0  0
   36.0375   12.0485  -15.9209 C   0  0  0  0  0  0  0  0  0  0  0  0
   34.8446   11.2984  -15.9849 C   0  0  0  0  0  0  0  0  0  0  0  0
   33.7292   11.5703  -15.2166 C   0  0  0  0  0  0  0  0  0  0  0  0
   33.7893   12.6304  -14.3444 C   0  0  0  0  0  0  0  0  0  0  0  0
   34.9339   13.3734  -14.2645 C   0  0  0  0  0  0  0  0  0  0  0  0
   34.9628   14.4278  -13.4066 F   0  0  0  0  0  0  0  0  0  0  0  0
   36.0601   13.0869  -15.0485 C   0  0  0  0  0  0  0  0  0  0  0  0
 17 18  1  0  0  0
 18 19  1  0  0  0
 19 20  1  0  0  0
 20 21  2  0  0  0
 21 22  1  0  0  0
 22 16  1  0  0  0
 16  1  1  0  0  0
  1  2  1  0  0  0
  2  3  2  0  0  0
  3  4  1  0  0  0
  4  5  2  0  0  0
  5  6  1  0  0  0
  6  7  2  0  0  0
  5  8  1  0  0  0
  8  9  2  0  0  0
  8 10  1  0  0  0
 10 11  1  0  0  0
 11 12  1  0  0  0
 12 13  1  0  0  0
 13 14  1  0  0  0
 14 15  1  0  0  0
 21 23  1  0  0  0
 23 24  2  0  0  0
 24 25  1  0  0  0
 25 26  2  0  0  0
 26 27  1  0  0  0
 27 28  1  0  0  0
 27 29  2  0  0  0
 22 18  2  0  0  0
  7  2  1  0  0  0
 15 10  1  0  0  0
 29 23  1  0  0  0
M  END
> <minimizedAffinity>
-8.54561

> <CNNscore>
0.3482339978

> <CNNaffinity>
6.3249626160

> <CNN_VS>
2.2025671005

> <CNNaffinity_variance>
0.0797807351

$$$$
[H]c1nc(OC([H])([H])c2c(-c3c([H])c([H])c([H])c(F)c3[H])noc2C([H])([H])[H])c([H])c([H])c1C(=O)N1C([H])([H])C([H])([H])OC([H])([H])C1([H])[H]


 29 32  0  0  0  0  0  0  0  0999 V2000
   36.9787   12.8150  -15.6576 O   0  0  0  0  0  0  0  0  0  0  0  0
   36.5364   13.5445  -14.5022 C   0  0  0  0  0  0  0  0  0  0  0  0
   37.1447   14.6057  -13.9165 C   0  0  0  0  0  0  0  0  0  0  0  0
   36.5956   15.2431  -12.8170 C   0  0  0  0  0  0  0  0  0  0  0  0
   35.4111   14.8476  -12.2542 C   0  0  0  0  0  0  0  0  0  0  0  0
   34.7938   13.7345  -12.8810 C   0  0  0  0  0  0  0  0  0  0  0  0
   35.3665   13.1648  -13.9251 N   0  0  0  0  0  0  0  0  0  0  0  0
   34.7433   15.3573  -11.1105 C   0  0  0  0  0  0  0  0  0  0  0  0
   33.3837   15.4031  -11.3203 O   0  0  0  0  0  0  0  0  0  0  0  0
   35.0773   15.8056   -9.8428 N   0  0  0  0  0  0  0  0  0  0  0  0
   36.3360   15.8788   -9.2331 C   0  0  0  0  0  0  0  0  0  0  0  0
   36.5871   17.2600   -8.6175 C   0  0  0  0  0  0  0  0  0  0  0  0
   35.4554   17.8146   -8.1038 O   0  0  0  0  0  0  0  0  0  0  0  0
   34.4864   16.8694   -7.7776 C   0  0  0  0  0  0  0  0  0  0  0  0
   33.9110   16.2945   -9.0320 C   0  0  0  0  0  0  0  0  0  0  0  0
   38.0487   11.8558  -15.3335 C   0  0  0  0  0  0  0  0  0  0  0  0
   37.5471   10.4566  -18.2109 C   0  0  0  0  0  0  0  0  0  0  0  0
   38.7375   11.1833  -17.7034 C   0  0  0  0  0  0  0  0  0  0  0  0
   39.8137   11.4682  -18.4390 O   0  0  0  0  0  0  0  0  0  0  0  0
   40.6925   12.0791  -17.7723 N   0  0  0  0  0  0  0  0  0  0  0  0
   40.2569   12.2716  -16.4685 C   0  0  0  0  0  0  0  0  0  0  0  0
   38.9847   11.6780  -16.4421 C   0  0  0  0  0  0  0  0  0  0  0  0
   40.9735   13.0492  -15.4864 C   0  0  0  0  0  0  0  0  0  0  0  0
   42.3735   12.8778  -15.4999 C   0  0  0  0  0  0  0  0  0  0  0  0
   43.2276   13.4968  -14.6078 C   0  0  0  0  0  0  0  0  0  0  0  0
   42.6789   14.3231  -13.6568 C   0  0  0  0  0  0  0  0  0  0  0  0
   41.3245   14.5050  -13.6223 C   0  0  0  0  0  0  0  0  0  0  0  0
   40.8041   15.3137  -12.6612 F   0  0  0  0  0  0  0  0  0  0  0  0
   40.4680   13.8722  -14.5340 C   0  0  0  0  0  0  0  0  0  0  0  0
 17 18  1  0  0  0
 18 19  1  0  0  0
 19 20  1  0  0  0
 20 21  2  0  0  0
 21 22  1  0  0  0
 22 16  1  0  0  0
 16  1  1  0  0  0
  1  2  1  0  0  0
  2  3  2  0  0  0
  3  4  1  0  0  0
  4  5  2  0  0  0
  5  6  1  0  0  0
  6  7  2  0  0  0
  5  8  1  0  0  0
  8  9  2  0  0  0
  8 10  1  0  0  0
 10 11  1  0  0  0
 11 12  1  0  0  0
 12 13  1  0  0  0
 13 14  1  0  0  0
 14 15  1  0  0  0
 21 23  1  0  0  0
 23 24  2  0  0  0
 24 25  1  0  0  0
 25 26  2  0  0  0
 26 27  1  0  0  0
 27 28  1  0  0  0
 27 29  2  0  0  0
 22 18  2  0  0  0
  7  2  1  0  0  0
 15 10  1  0  0  0
 29 23  1  0  0  0
M  END
> <minimizedAffinity>
-8.67966

> <CNNscore>
0.3357875943

> <CNNaffinity>
6.4590673447

> <CNN_VS>
2.1688747406

> <CNNaffinity_variance>
0.3648184240

$$$$
[H]c1nc(OC([H])([H])c2c(-c3c([H])c([H])c([H])c(F)c3[H])noc2C([H])([H])[H])c([H])c([H])c1C(=O)N1C([H])([H])C([H])([H])OC([H])([H])C1([H])[H]


 29 32  0  0  0  0  0  0  0  0999 V2000
   39.3228   13.8151  -15.3640 O   0  0  0  0  0  0  0  0  0  0  0  0
   39.0056   14.3974  -14.0900 C   0  0  0  0  0  0  0  0  0  0  0  0
   37.8606   14.2475  -13.3789 C   0  0  0  0  0  0  0  0  0  0  0  0
   37.6904   14.8425  -12.1404 C   0  0  0  0  0  0  0  0  0  0  0  0
   38.6599   15.6141  -11.5567 C   0  0  0  0  0  0  0  0  0  0  0  0
   39.8476   15.7596  -12.3190 C   0  0  0  0  0  0  0  0  0  0  0  0
   39.9514   15.1710  -13.4961 N   0  0  0  0  0  0  0  0  0  0  0  0
   38.6265   16.3254  -10.3292 C   0  0  0  0  0  0  0  0  0  0  0  0
   38.8906   17.6609  -10.5327 O   0  0  0  0  0  0  0  0  0  0  0  0
   38.3889   16.0524   -8.9918 N   0  0  0  0  0  0  0  0  0  0  0  0
   38.0491   14.8376   -8.3833 C   0  0  0  0  0  0  0  0  0  0  0  0
   38.9450   14.5395   -7.1757 C   0  0  0  0  0  0  0  0  0  0  0  0
   39.2917   15.6654   -6.4941 O   0  0  0  0  0  0  0  0  0  0  0  0
   38.3980   16.7153   -6.6883 C   0  0  0  0  0  0  0  0  0  0  0  0
   38.5405   17.2379   -8.0817 C   0  0  0  0  0  0  0  0  0  0  0  0
   39.1060   12.3581  -15.3788 C   0  0  0  0  0  0  0  0  0  0  0  0
   41.0867   11.6928  -17.8534 C   0  0  0  0  0  0  0  0  0  0  0  0
   39.6240   11.4767  -17.7236 C   0  0  0  0  0  0  0  0  0  0  0  0
   38.8741   10.8487  -18.6311 O   0  0  0  0  0  0  0  0  0  0  0  0
   37.6599   10.8080  -18.2932 N   0  0  0  0  0  0  0  0  0  0  0  0
   37.4833   11.4311  -17.0655 C   0  0  0  0  0  0  0  0  0  0  0  0
   38.7719   11.8635  -16.7132 C   0  0  0  0  0  0  0  0  0  0  0  0
   36.2354   11.4436  -16.3407 C   0  0  0  0  0  0  0  0  0  0  0  0
   35.1810   10.7423  -16.9621 C   0  0  0  0  0  0  0  0  0  0  0  0
   33.8995   10.6789  -16.4501 C   0  0  0  0  0  0  0  0  0  0  0  0
   33.6424   11.3369  -15.2715 C   0  0  0  0  0  0  0  0  0  0  0  0
   34.6473   12.0245  -14.6502 C   0  0  0  0  0  0  0  0  0  0  0  0
   34.3637   12.6818  -13.4943 F   0  0  0  0  0  0  0  0  0  0  0  0
   35.9444   12.0806  -15.1790 C   0  0  0  0  0  0  0  0  0  0  0  0
 17 18  1  0  0  0
 18 19  1  0  0  0
 19 20  1  0  0  0
 20 21  2  0  0  0
 21 22  1  0  0  0
 22 16  1  0  0  0
 16  1  1  0  0  0
  1  2  1  0  0  0
  2  3  2  0  0  0
  3  4  1  0  0  0
  4  5  2  0  0  0
  5  6  1  0  0  0
  6  7  2  0  0  0
  5  8  1  0  0  0
  8  9  2  0  0  0
  8 10  1  0  0  0
 10 11  1  0  0  0
 11 12  1  0  0  0
 12 13  1  0  0  0
 13 14  1  0  0  0
 14 15  1  0  0  0
 21 23  1  0  0  0
 23 24  2  0  0  0
 24 25  1  0  0  0
 25 26  2  0  0  0
 26 27  1  0  0  0
 27 28  1  0  0  0
 27 29  2  0  0  0
 22 18  2  0  0  0
  7  2  1  0  0  0
 15 10  1  0  0  0
 29 23  1  0  0  0
M  END
> <minimizedAffinity>
-9.04675

> <CNNscore>
0.3344866037

> <CNNaffinity>
6.1583414078

> <CNN_VS>
2.0598826408

> <CNNaffinity_variance>
0.1839542389

$$$$
[H]c1nc([H])c(C([H])([H])[H])c(C(=O)N([H])c2c([H])c([H])c(Oc3c([H])nc([H])c4sc(C(=O)N([H])C([H])([H])[H])c([H])c34)c([H])c2[H])c1C([H])([H])[H]


 33 36  0  0  0  0  0  0  0  0999 V2000
   36.5961   14.6111  -11.4705 C   0  0  0  0  0  0  0  0  0  0  0  0
   36.1670   14.2927  -10.2194 C   0  0  0  0  0  0  0  0  0  0  0  0
   35.8426   15.2970   -9.3212 C   0  0  0  0  0  0  0  0  0  0  0  0
   35.9216   16.6332   -9.5970 C   0  0  0  0  0  0  0  0  0  0  0  0
   36.3686   16.9404  -10.9010 C   0  0  0  0  0  0  0  0  0  0  0  0
   36.6898   15.9483  -11.7921 C   0  0  0  0  0  0  0  0  0  0  0  0
   35.6328   17.6958   -8.7004 N   0  0  0  0  0  0  0  0  0  0  0  0
   36.5195   18.0935   -7.7042 C   0  0  0  0  0  0  0  0  0  0  0  0
   37.6236   17.4369   -7.6440 O   0  0  0  0  0  0  0  0  0  0  0  0
   34.6678   18.1265   -8.8564 H   0  0  0  0  0  0  0  0  0  0  0  0
   36.3584   19.1465   -6.7233 C   0  0  0  0  0  0  0  0  0  0  0  0
   36.7624   20.4287   -7.0629 C   0  0  0  0  0  0  0  0  0  0  0  0
   37.4030   20.7079   -8.3553 C   0  0  0  0  0  0  0  0  0  0  0  0
   36.6017   21.5181   -6.1915 C   0  0  0  0  0  0  0  0  0  0  0  0
   36.0434   21.3387   -4.9877 N   0  0  0  0  0  0  0  0  0  0  0  0
   35.6426   20.1242   -4.6247 C   0  0  0  0  0  0  0  0  0  0  0  0
   35.7897   19.0171   -5.4756 C   0  0  0  0  0  0  0  0  0  0  0  0
   35.2800   17.6952   -5.0277 C   0  0  0  0  0  0  0  0  0  0  0  0
   36.9200   13.6092  -12.3669 O   0  0  0  0  0  0  0  0  0  0  0  0
   37.7958   11.9153  -16.2205 C   0  0  0  0  0  0  0  0  0  0  0  0
   37.6392   12.4661  -14.9771 C   0  0  0  0  0  0  0  0  0  0  0  0
   36.3770   12.6265  -14.5232 C   0  0  0  0  0  0  0  0  0  0  0  0
   35.9668   13.1652  -13.2875 C   0  0  0  0  0  0  0  0  0  0  0  0
   34.6425   13.2592  -12.9775 C   0  0  0  0  0  0  0  0  0  0  0  0
   33.6531   12.8596  -13.7962 N   0  0  0  0  0  0  0  0  0  0  0  0
   34.0094   12.3403  -14.9842 C   0  0  0  0  0  0  0  0  0  0  0  0
   35.3644   12.2256  -15.3431 C   0  0  0  0  0  0  0  0  0  0  0  0
   36.1894   11.6387  -16.7175 S   0  0  0  0  0  0  0  0  0  0  0  0
   41.4583   12.0196  -17.3881 C   0  0  0  0  0  0  0  0  0  0  0  0
   40.2454   12.3262  -16.6641 N   0  0  0  0  0  0  0  0  0  0  0  0
   39.0635   11.6394  -16.9333 C   0  0  0  0  0  0  0  0  0  0  0  0
   39.0354   10.7445  -17.8085 O   0  0  0  0  0  0  0  0  0  0  0  0
   40.2859   13.0783  -15.9342 H   0  0  0  0  0  0  0  0  0  0  0  0
 29 30  1  0  0  0
 30 31  1  0  0  0
 31 32  2  0  0  0
 31 20  1  0  0  0
 20 21  2  0  0  0
 21 22  1  0  0  0
 22 23  2  0  0  0
 23 19  1  0  0  0
 19  1  1  0  0  0
  1  2  2  0  0  0
  2  3  1  0  0  0
  3  4  2  0  0  0
  4  7  1  0  0  0
  7  8  1  0  0  0
  8  9  2  0  0  0
  8 11  1  0  0  0
 11 12  2  0  0  0
 12 13  1  0  0  0
 12 14  1  0  0  0
 14 15  2  0  0  0
 15 16  1  0  0  0
 16 17  2  0  0  0
 17 18  1  0  0  0
  4  5  1  0  0  0
  5  6  2  0  0  0
 23 24  1  0  0  0
 24 25  2  0  0  0
 25 26  1  0  0  0
 26 27  2  0  0  0
 27 28  1  0  0  0
 28 20  1  0  0  0
 27 22  1  0  0  0
  6  1  1  0  0  0
 17 11  1  0  0  0
 30 33  1  0  0  0
  7 10  1  0  0  0
M  END
> <minimizedAffinity>
-7.86252

> <CNNscore>
0.2176908553

> <CNNaffinity>
6.3804540634

> <CNN_VS>
1.3889665604

> <CNNaffinity_variance>
0.1113365665

$$$$
[H]c1nc([H])c(C([H])([H])[H])c(C(=O)N([H])c2c([H])c([H])c(Oc3c([H])nc([H])c4sc(C(=O)N([H])C([H])([H])[H])c([H])c34)c([H])c2[H])c1C([H])([H])[H]


 33 36  0  0  0  0  0  0  0  0999 V2000
   42.4677   14.2144  -14.1862 C   0  0  0  0  0  0  0  0  0  0  0  0
   42.3891   13.3462  -15.2307 C   0  0  0  0  0  0  0  0  0  0  0  0
   41.1542   13.0147  -15.7651 C   0  0  0  0  0  0  0  0  0  0  0  0
   39.9615   13.5048  -15.3126 C   0  0  0  0  0  0  0  0  0  0  0  0
   40.0668   14.4041  -14.2288 C   0  0  0  0  0  0  0  0  0  0  0  0
   41.2879   14.7344  -13.6983 C   0  0  0  0  0  0  0  0  0  0  0  0
   38.6726   13.1690  -15.8053 N   0  0  0  0  0  0  0  0  0  0  0  0
   37.8377   12.2646  -15.1557 C   0  0  0  0  0  0  0  0  0  0  0  0
   38.3062   11.7481  -14.0752 O   0  0  0  0  0  0  0  0  0  0  0  0
   38.4341   13.6572  -16.7250 H   0  0  0  0  0  0  0  0  0  0  0  0
   36.5127   11.8256  -15.5409 C   0  0  0  0  0  0  0  0  0  0  0  0
   35.4361   12.2240  -14.7632 C   0  0  0  0  0  0  0  0  0  0  0  0
   35.6316   13.0124  -13.5390 C   0  0  0  0  0  0  0  0  0  0  0  0
   34.1131   11.8833  -15.0880 C   0  0  0  0  0  0  0  0  0  0  0  0
   33.8567   11.1499  -16.1787 N   0  0  0  0  0  0  0  0  0  0  0  0
   34.8619   10.7484  -16.9505 C   0  0  0  0  0  0  0  0  0  0  0  0
   36.1941   11.0751  -16.6510 C   0  0  0  0  0  0  0  0  0  0  0  0
   37.2673   10.6335  -17.5790 C   0  0  0  0  0  0  0  0  0  0  0  0
   43.6998   14.5454  -13.6526 O   0  0  0  0  0  0  0  0  0  0  0  0
   43.9704   12.8970   -9.6909 C   0  0  0  0  0  0  0  0  0  0  0  0
   43.7946   13.4957  -10.9092 C   0  0  0  0  0  0  0  0  0  0  0  0
   44.5770   13.0748  -11.9269 C   0  0  0  0  0  0  0  0  0  0  0  0
   44.5810   13.5348  -13.2588 C   0  0  0  0  0  0  0  0  0  0  0  0
   45.4401   13.0020  -14.1737 C   0  0  0  0  0  0  0  0  0  0  0  0
   46.3234   12.0280  -13.8908 N   0  0  0  0  0  0  0  0  0  0  0  0
   46.3462   11.5657  -12.6284 C   0  0  0  0  0  0  0  0  0  0  0  0
   45.4769   12.0879  -11.6540 C   0  0  0  0  0  0  0  0  0  0  0  0
   45.2132   11.7719   -9.9973 S   0  0  0  0  0  0  0  0  0  0  0  0
   41.3182   12.9522   -6.9069 C   0  0  0  0  0  0  0  0  0  0  0  0
   41.9872   12.6468   -8.1512 N   0  0  0  0  0  0  0  0  0  0  0  0
   43.2438   13.1789   -8.4324 C   0  0  0  0  0  0  0  0  0  0  0  0
   43.8126   13.9311   -7.6088 O   0  0  0  0  0  0  0  0  0  0  0  0
   41.4973   12.0151   -8.8301 H   0  0  0  0  0  0  0  0  0  0  0  0
 29 30  1  0  0  0
 30 31  1  0  0  0
 31 32  2  0  0  0
 31 20  1  0  0  0
 20 21  2  0  0  0
 21 22  1  0  0  0
 22 23  2  0  0  0
 23 19  1  0  0  0
 19  1  1  0  0  0
  1  2  2  0  0  0
  2  3  1  0  0  0
  3  4  2  0  0  0
  4  7  1  0  0  0
  7  8  1  0  0  0
  8  9  2  0  0  0
  8 11  1  0  0  0
 11 12  2  0  0  0
 12 13  1  0  0  0
 12 14  1  0  0  0
 14 15  2  0  0  0
 15 16  1  0  0  0
 16 17  2  0  0  0
 17 18  1  0  0  0
  4  5  1  0  0  0
  5  6  2  0  0  0
 23 24  1  0  0  0
 24 25  2  0  0  0
 25 26  1  0  0  0
 26 27  2  0  0  0
 27 28  1  0  0  0
 28 20  1  0  0  0
 27 22  1  0  0  0
  6  1  1  0  0  0
 17 11  1  0  0  0
 30 33  1  0  0  0
  7 10  1  0  0  0
M  END
> <minimizedAffinity>
-8.40533

> <CNNscore>
0.1859749854

> <CNNaffinity>
6.3755831718

> <CNN_VS>
1.1856989861

> <CNNaffinity_variance>
0.1028511748

$$$$
[H]c1nc([H])c(C([H])([H])[H])c(C(=O)N([H])c2c([H])c([H])c(Oc3c([H])nc([H])c4sc(C(=O)N([H])C([H])([H])[H])c([H])c34)c([H])c2[H])c1C([H])([H])[H]


 33 36  0  0  0  0  0  0  0  0999 V2000
   36.7173   15.2964  -12.3301 C   0  0  0  0  0  0  0  0  0  0  0  0
   37.6490   14.7167  -11.5258 C   0  0  0  0  0  0  0  0  0  0  0  0
   37.7274   15.0713  -10.1884 C   0  0  0  0  0  0  0  0  0  0  0  0
   36.9163   15.9914   -9.5858 C   0  0  0  0  0  0  0  0  0  0  0  0
   35.9568   16.5797  -10.4389 C   0  0  0  0  0  0  0  0  0  0  0  0
   35.8766   16.2301  -11.7629 C   0  0  0  0  0  0  0  0  0  0  0  0
   36.9812   16.4106   -8.2306 N   0  0  0  0  0  0  0  0  0  0  0  0
   37.6018   17.5950   -7.8447 C   0  0  0  0  0  0  0  0  0  0  0  0
   38.1161   18.2919   -8.7951 O   0  0  0  0  0  0  0  0  0  0  0  0
   36.5342   15.7153   -7.5540 H   0  0  0  0  0  0  0  0  0  0  0  0
   37.7485   18.1418   -6.5119 C   0  0  0  0  0  0  0  0  0  0  0  0
   36.7383   18.9542   -6.0197 C   0  0  0  0  0  0  0  0  0  0  0  0
   35.5789   19.3135   -6.8475 C   0  0  0  0  0  0  0  0  0  0  0  0
   36.7757   19.4898   -4.7222 C   0  0  0  0  0  0  0  0  0  0  0  0
   37.8099   19.2227   -3.9147 N   0  0  0  0  0  0  0  0  0  0  0  0
   38.7987   18.4476   -4.3495 C   0  0  0  0  0  0  0  0  0  0  0  0
   38.7873   17.8976   -5.6412 C   0  0  0  0  0  0  0  0  0  0  0  0
   39.9011   17.0029   -6.0499 C   0  0  0  0  0  0  0  0  0  0  0  0
   36.6388   14.9428  -13.6647 O   0  0  0  0  0  0  0  0  0  0  0  0
   37.3322   11.8054  -16.5215 C   0  0  0  0  0  0  0  0  0  0  0  0
   37.2296   12.8378  -15.6286 C   0  0  0  0  0  0  0  0  0  0  0  0
   36.0341   13.0223  -15.0270 C   0  0  0  0  0  0  0  0  0  0  0  0
   35.6875   14.0077  -14.0813 C   0  0  0  0  0  0  0  0  0  0  0  0
   34.4268   14.0599  -13.5647 C   0  0  0  0  0  0  0  0  0  0  0  0
   33.4447   13.2056  -13.9029 N   0  0  0  0  0  0  0  0  0  0  0  0
   33.7414   12.2521  -14.8033 C   0  0  0  0  0  0  0  0  0  0  0  0
   35.0296   12.1633  -15.3607 C   0  0  0  0  0  0  0  0  0  0  0  0
   35.7695   11.1261  -16.4968 S   0  0  0  0  0  0  0  0  0  0  0  0
   40.8672   11.6563  -18.0279 C   0  0  0  0  0  0  0  0  0  0  0  0
   39.7325   12.0906  -17.2450 N   0  0  0  0  0  0  0  0  0  0  0  0
   38.5229   11.4017  -17.3029 C   0  0  0  0  0  0  0  0  0  0  0  0
   38.4015   10.3940  -18.0360 O   0  0  0  0  0  0  0  0  0  0  0  0
   39.8508   12.9363  -16.6361 H   0  0  0  0  0  0  0  0  0  0  0  0
 29 30  1  0  0  0
 30 31  1  0  0  0
 31 32  2  0  0  0
 31 20  1  0  0  0
 20 21  2  0  0  0
 21 22  1  0  0  0
 22 23  2  0  0  0
 23 19  1  0  0  0
 19  1  1  0  0  0
  1  2  2  0  0  0
  2  3  1  0  0  0
  3  4  2  0  0  0
  4  7  1  0  0  0
  7  8  1  0  0  0
  8  9  2  0  0  0
  8 11  1  0  0  0
 11 12  2  0  0  0
 12 13  1  0  0  0
 12 14  1  0  0  0
 14 15  2  0  0  0
 15 16  1  0  0  0
 16 17  2  0  0  0
 17 18  1  0  0  0
  4  5  1  0  0  0
  5  6  2  0  0  0
 23 24  1  0  0  0
 24 25  2  0  0  0
 25 26  1  0  0  0
 26 27  2  0  0  0
 27 28  1  0  0  0
 28 20  1  0  0  0
 27 22  1  0  0  0
  6  1  1  0  0  0
 17 11  1  0  0  0
 30 33  1  0  0  0
  7 10  1  0  0  0
M  END
> <minimizedAffinity>
-7.80236

> <CNNscore>
0.1518634111

> <CNNaffinity>
6.1865053177

> <CNN_VS>
0.9395037889

> <CNNaffinity_variance>
0.0744941011

$$$$
[H]c1nc([H])c(C([H])([H])[H])c(C(=O)N([H])c2c([H])c([H])c(Oc3c([H])nc([H])c4sc(C(=O)N([H])C([H])([H])[H])c([H])c34)c([H])c2[H])c1C([H])([H])[H]


 33 36  0  0  0  0  0  0  0  0999 V2000
   35.5948   15.6971   -9.3319 C   0  0  0  0  0  0  0  0  0  0  0  0
   34.5560   15.8127  -10.2027 C   0  0  0  0  0  0  0  0  0  0  0  0
   34.6799   15.3335  -11.4972 C   0  0  0  0  0  0  0  0  0  0  0  0
   35.8024   14.7319  -11.9926 C   0  0  0  0  0  0  0  0  0  0  0  0
   36.8675   14.6220  -11.0716 C   0  0  0  0  0  0  0  0  0  0  0  0
   36.7473   15.0950   -9.7896 C   0  0  0  0  0  0  0  0  0  0  0  0
   35.9871   14.2567  -13.3179 N   0  0  0  0  0  0  0  0  0  0  0  0
   36.0007   12.9003  -13.6293 C   0  0  0  0  0  0  0  0  0  0  0  0
   35.8346   12.0977  -12.6384 O   0  0  0  0  0  0  0  0  0  0  0  0
   36.1389   15.0403  -14.0278 H   0  0  0  0  0  0  0  0  0  0  0  0
   36.1830   12.2752  -14.9227 C   0  0  0  0  0  0  0  0  0  0  0  0
   37.4752   12.1172  -15.4003 C   0  0  0  0  0  0  0  0  0  0  0  0
   38.6311   12.6308  -14.6530 C   0  0  0  0  0  0  0  0  0  0  0  0
   37.7475   11.4813  -16.6223 C   0  0  0  0  0  0  0  0  0  0  0  0
   36.7440   11.0038  -17.3694 N   0  0  0  0  0  0  0  0  0  0  0  0
   35.4907   11.1354  -16.9460 C   0  0  0  0  0  0  0  0  0  0  0  0
   35.1889   11.7655  -15.7282 C   0  0  0  0  0  0  0  0  0  0  0  0
   33.7707   11.8401  -15.2911 C   0  0  0  0  0  0  0  0  0  0  0  0
   35.4716   16.1752   -8.0402 O   0  0  0  0  0  0  0  0  0  0  0  0
   38.7741   15.5642   -5.3559 C   0  0  0  0  0  0  0  0  0  0  0  0
   37.7930   15.8423   -6.2690 C   0  0  0  0  0  0  0  0  0  0  0  0
   36.6271   15.1699   -6.1523 C   0  0  0  0  0  0  0  0  0  0  0  0
   35.4814   15.2828   -6.9648 C   0  0  0  0  0  0  0  0  0  0  0  0
   34.3753   14.5267   -6.7124 C   0  0  0  0  0  0  0  0  0  0  0  0
   34.2891   13.6420   -5.7031 N   0  0  0  0  0  0  0  0  0  0  0  0
   35.3651   13.5091   -4.9078 C   0  0  0  0  0  0  0  0  0  0  0  0
   36.5262   14.2699   -5.1334 C   0  0  0  0  0  0  0  0  0  0  0  0
   38.0477   14.3812   -4.3674 S   0  0  0  0  0  0  0  0  0  0  0  0
   42.2461   16.9503   -6.2569 C   0  0  0  0  0  0  0  0  0  0  0  0
   40.9322   16.3631   -6.3907 N   0  0  0  0  0  0  0  0  0  0  0  0
   40.1261   16.1612   -5.2724 C   0  0  0  0  0  0  0  0  0  0  0  0
   40.5298   16.4866   -4.1327 O   0  0  0  0  0  0  0  0  0  0  0  0
   40.6091   16.0962   -7.3522 H   0  0  0  0  0  0  0  0  0  0  0  0
 29 30  1  0  0  0
 30 31  1  0  0  0
 31 32  2  0  0  0
 31 20  1  0  0  0
 20 21  2  0  0  0
 21 22  1  0  0  0
 22 23  2  0  0  0
 23 19  1  0  0  0
 19  1  1  0  0  0
  1  2  2  0  0  0
  2  3  1  0  0  0
  3  4  2  0  0  0
  4  7  1  0  0  0
  7  8  1  0  0  0
  8  9  2  0  0  0
  8 11  1  0  0  0
 11 12  2  0  0  0
 12 13  1  0  0  0
 12 14  1  0  0  0
 14 15  2  0  0  0
 15 16  1  0  0  0
 16 17  2  0  0  0
 17 18  1  0  0  0
  4  5  1  0  0  0
  5  6  2  0  0  0
 23 24  1  0  0  0
 24 25  2  0  0  0
 25 26  1  0  0  0
 26 27  2  0  0  0
 27 28  1  0  0  0
 28 20  1  0  0  0
 27 22  1  0  0  0
  6  1  1  0  0  0
 17 11  1  0  0  0
 30 33  1  0  0  0
  7 10  1  0  0  0
M  END
> <minimizedAffinity>
-8.04598

> <CNNscore>
0.1437015831

> <CNNaffinity>
5.8227729797

> <CNN_VS>
0.8367416859

> <CNNaffinity_variance>
0.2535459101

$$$$
[H]c1nc([H])c(C([H])([H])[H])c(C(=O)N([H])c2c([H])c([H])c(Oc3c([H])nc([H])c4sc(C(=O)N([H])C([H])([H])[H])c([H])c34)c([H])c2[H])c1C([H])([H])[H]


 33 36  0  0  0  0  0  0  0  0999 V2000
   42.6222   13.5992  -14.6572 C   0  0  0  0  0  0  0  0  0  0  0  0
   42.2856   12.9341  -15.7953 C   0  0  0  0  0  0  0  0  0  0  0  0
   40.9539   12.8115  -16.1585 C   0  0  0  0  0  0  0  0  0  0  0  0
   39.9088   13.3218  -15.4410 C   0  0  0  0  0  0  0  0  0  0  0  0
   40.2812   14.0084  -14.2643 C   0  0  0  0  0  0  0  0  0  0  0  0
   41.5986   14.1316  -13.9027 C   0  0  0  0  0  0  0  0  0  0  0  0
   38.5299   13.1929  -15.7552 N   0  0  0  0  0  0  0  0  0  0  0  0
   37.7245   12.2090  -15.1894 C   0  0  0  0  0  0  0  0  0  0  0  0
   38.3074   11.4185  -14.3593 O   0  0  0  0  0  0  0  0  0  0  0  0
   38.1960   13.9032  -16.4797 H   0  0  0  0  0  0  0  0  0  0  0  0
   36.3171   11.9560  -15.4179 C   0  0  0  0  0  0  0  0  0  0  0  0
   35.9529   11.2398  -16.5480 C   0  0  0  0  0  0  0  0  0  0  0  0
   36.9555   10.8056  -17.5301 C   0  0  0  0  0  0  0  0  0  0  0  0
   34.6164   10.9096  -16.8246 C   0  0  0  0  0  0  0  0  0  0  0  0
   33.6435   11.2876  -15.9856 N   0  0  0  0  0  0  0  0  0  0  0  0
   33.9520   11.9758  -14.8908 C   0  0  0  0  0  0  0  0  0  0  0  0
   35.2794   12.3189  -14.5883 C   0  0  0  0  0  0  0  0  0  0  0  0
   35.5616   13.0501  -13.3260 C   0  0  0  0  0  0  0  0  0  0  0  0
   43.9510   13.7216  -14.2943 O   0  0  0  0  0  0  0  0  0  0  0  0
   44.6887   17.6285  -12.6581 C   0  0  0  0  0  0  0  0  0  0  0  0
   44.4334   16.4402  -13.2878 C   0  0  0  0  0  0  0  0  0  0  0  0
   44.5055   15.3148  -12.5439 C   0  0  0  0  0  0  0  0  0  0  0  0
   44.2866   13.9878  -12.9641 C   0  0  0  0  0  0  0  0  0  0  0  0
   44.3993   12.9540  -12.0825 C   0  0  0  0  0  0  0  0  0  0  0  0
   44.7172   13.1095  -10.7850 N   0  0  0  0  0  0  0  0  0  0  0  0
   44.9329   14.3635  -10.3503 C   0  0  0  0  0  0  0  0  0  0  0  0
   44.8270   15.4581  -11.2269 C   0  0  0  0  0  0  0  0  0  0  0  0
   45.0197   17.1458  -11.0576 S   0  0  0  0  0  0  0  0  0  0  0  0
   43.5689   20.8792  -14.3806 C   0  0  0  0  0  0  0  0  0  0  0  0
   43.5326   19.5490  -13.8161 N   0  0  0  0  0  0  0  0  0  0  0  0
   44.6737   18.9856  -13.2489 C   0  0  0  0  0  0  0  0  0  0  0  0
   45.7495   19.6255  -13.2201 O   0  0  0  0  0  0  0  0  0  0  0  0
   42.6237   19.0266  -13.8481 H   0  0  0  0  0  0  0  0  0  0  0  0
 29 30  1  0  0  0
 30 31  1  0  0  0
 31 32  2  0  0  0
 31 20  1  0  0  0
 20 21  2  0  0  0
 21 22  1  0  0  0
 22 23  2  0  0  0
 23 19  1  0  0  0
 19  1  1  0  0  0
  1  2  2  0  0  0
  2  3  1  0  0  0
  3  4  2  0  0  0
  4  7  1  0  0  0
  7  8  1  0  0  0
  8  9  2  0  0  0
  8 11  1  0  0  0
 11 12  2  0  0  0
 12 13  1  0  0  0
 12 14  1  0  0  0
 14 15  2  0  0  0
 15 16  1  0  0  0
 16 17  2  0  0  0
 17 18  1  0  0  0
  4  5  1  0  0  0
  5  6  2  0  0  0
 23 24  1  0  0  0
 24 25  2  0  0  0
 25 26  1  0  0  0
 26 27  2  0  0  0
 27 28  1  0  0  0
 28 20  1  0  0  0
 27 22  1  0  0  0
  6  1  1  0  0  0
 17 11  1  0  0  0
 30 33  1  0  0  0
  7 10  1  0  0  0
M  END
> <minimizedAffinity>
-9.04267

> <CNNscore>
0.1403847039

> <CNNaffinity>
6.1505737305

> <CNN_VS>
0.8634464741

> <CNNaffinity_variance>
0.1847421527

$$$$
[H]c1nc([H])c(C([H])([H])[H])c(C(=O)N([H])c2c([H])c([H])c(Oc3c([H])nc([H])c4sc(C(=O)N([H])C([H])([H])[H])c([H])c34)c([H])c2[H])c1C([H])([H])[H]


 33 36  0  0  0  0  0  0  0  0999 V2000
   42.6667   13.6194  -14.6554 C   0  0  0  0  0  0  0  0  0  0  0  0
   42.3547   12.9732  -15.8112 C   0  0  0  0  0  0  0  0  0  0  0  0
   41.0294   12.8335  -16.1913 C   0  0  0  0  0  0  0  0  0  0  0  0
   39.9673   13.3079  -15.4739 C   0  0  0  0  0  0  0  0  0  0  0  0
   40.3144   13.9754  -14.2787 C   0  0  0  0  0  0  0  0  0  0  0  0
   41.6255   14.1155  -13.9004 C   0  0  0  0  0  0  0  0  0  0  0  0
   38.5945   13.1598  -15.8056 N   0  0  0  0  0  0  0  0  0  0  0  0
   37.8146   12.1202  -15.3079 C   0  0  0  0  0  0  0  0  0  0  0  0
   38.4153   11.2964  -14.5242 O   0  0  0  0  0  0  0  0  0  0  0  0
   38.2443   13.9041  -16.4870 H   0  0  0  0  0  0  0  0  0  0  0  0
   36.4163   11.8423  -15.5619 C   0  0  0  0  0  0  0  0  0  0  0  0
   35.4750   12.3413  -14.6744 C   0  0  0  0  0  0  0  0  0  0  0  0
   35.8802   13.0738  -13.4671 C   0  0  0  0  0  0  0  0  0  0  0  0
   34.0961   12.1593  -14.8674 C   0  0  0  0  0  0  0  0  0  0  0  0
   33.6503   11.4851  -15.9350 N   0  0  0  0  0  0  0  0  0  0  0  0
   34.5213   10.9910  -16.8095 C   0  0  0  0  0  0  0  0  0  0  0  0
   35.9052   11.1585  -16.6427 C   0  0  0  0  0  0  0  0  0  0  0  0
   36.8232   10.6205  -17.6799 C   0  0  0  0  0  0  0  0  0  0  0  0
   43.9892   13.7589  -14.2758 O   0  0  0  0  0  0  0  0  0  0  0  0
   44.6898   17.6698  -12.6326 C   0  0  0  0  0  0  0  0  0  0  0  0
   44.4476   16.4801  -13.2649 C   0  0  0  0  0  0  0  0  0  0  0  0
   44.5128   15.3556  -12.5190 C   0  0  0  0  0  0  0  0  0  0  0  0
   44.3046   14.0274  -12.9410 C   0  0  0  0  0  0  0  0  0  0  0  0
   44.4080   12.9948  -12.0569 C   0  0  0  0  0  0  0  0  0  0  0  0
   44.7066   13.1525  -10.7551 N   0  0  0  0  0  0  0  0  0  0  0  0
   44.9116   14.4076  -10.3185 C   0  0  0  0  0  0  0  0  0  0  0  0
   44.8147   15.5011  -11.1976 C   0  0  0  0  0  0  0  0  0  0  0  0
   44.9992   17.1896  -11.0270 S   0  0  0  0  0  0  0  0  0  0  0  0
   43.5826   20.9168  -14.3701 C   0  0  0  0  0  0  0  0  0  0  0  0
   43.5426   19.5871  -13.8048 N   0  0  0  0  0  0  0  0  0  0  0  0
   44.6786   19.0263  -13.2248 C   0  0  0  0  0  0  0  0  0  0  0  0
   45.7529   19.6682  -13.1851 O   0  0  0  0  0  0  0  0  0  0  0  0
   42.6351   19.0630  -13.8461 H   0  0  0  0  0  0  0  0  0  0  0  0
 29 30  1  0  0  0
 30 31  1  0  0  0
 31 32  2  0  0  0
 31 20  1  0  0  0
 20 21  2  0  0  0
 21 22  1  0  0  0
 22 23  2  0  0  0
 23 19  1  0  0  0
 19  1  1  0  0  0
  1  2  2  0  0  0
  2  3  1  0  0  0
  3  4  2  0  0  0
  4  7  1  0  0  0
  7  8  1  0  0  0
  8  9  2  0  0  0
  8 11  1  0  0  0
 11 12  2  0  0  0
 12 13  1  0  0  0
 12 14  1  0  0  0
 14 15  2  0  0  0
 15 16  1  0  0  0
 16 17  2  0  0  0
 17 18  1  0  0  0
  4  5  1  0  0  0
  5  6  2  0  0  0
 23 24  1  0  0  0
 24 25  2  0  0  0
 25 26  1  0  0  0
 26 27  2  0  0  0
 27 28  1  0  0  0
 28 20  1  0  0  0
 27 22  1  0  0  0
  6  1  1  0  0  0
 17 11  1  0  0  0
 30 33  1  0  0  0
  7 10  1  0  0  0
M  END
> <minimizedAffinity>
-8.91242

> <CNNscore>
0.1362483948

> <CNNaffinity>
6.1343498230

> <CNN_VS>
0.8357953429

> <CNNaffinity_variance>
0.1828261465

$$$$
[H]c1nc([H])c(C([H])([H])[H])c(C(=O)N([H])c2c([H])c([H])c(Oc3c([H])nc([H])c4sc(C(=O)N([H])C([H])([H])[H])c([H])c34)c([H])c2[H])c1C([H])([H])[H]


 33 36  0  0  0  0  0  0  0  0999 V2000
   36.4754   14.6724  -10.7546 C   0  0  0  0  0  0  0  0  0  0  0  0
   35.5530   14.1010  -11.5753 C   0  0  0  0  0  0  0  0  0  0  0  0
   35.8996   13.7522  -12.8710 C   0  0  0  0  0  0  0  0  0  0  0  0
   37.1384   13.9426  -13.4156 C   0  0  0  0  0  0  0  0  0  0  0  0
   38.0797   14.5363  -12.5461 C   0  0  0  0  0  0  0  0  0  0  0  0
   37.7395   14.8819  -11.2630 C   0  0  0  0  0  0  0  0  0  0  0  0
   37.5295   13.6330  -14.7452 N   0  0  0  0  0  0  0  0  0  0  0  0
   38.0354   12.3869  -15.1032 C   0  0  0  0  0  0  0  0  0  0  0  0
   38.1277   11.5267  -14.1518 O   0  0  0  0  0  0  0  0  0  0  0  0
   37.4200   14.4556  -15.4177 H   0  0  0  0  0  0  0  0  0  0  0  0
   38.4764   11.9347  -16.4063 C   0  0  0  0  0  0  0  0  0  0  0  0
   39.7899   12.1791  -16.7773 C   0  0  0  0  0  0  0  0  0  0  0  0
   40.6981   12.9381  -15.9069 C   0  0  0  0  0  0  0  0  0  0  0  0
   40.3150   11.7364  -18.0020 C   0  0  0  0  0  0  0  0  0  0  0  0
   39.5424   11.0545  -18.8571 N   0  0  0  0  0  0  0  0  0  0  0  0
   38.2772   10.7997  -18.5381 C   0  0  0  0  0  0  0  0  0  0  0  0
   37.7258   11.2289  -17.3203 C   0  0  0  0  0  0  0  0  0  0  0  0
   36.3182   10.8725  -17.0049 C   0  0  0  0  0  0  0  0  0  0  0  0
   36.1299   15.0206   -9.4616 O   0  0  0  0  0  0  0  0  0  0  0  0
   39.4795   14.5540   -6.8067 C   0  0  0  0  0  0  0  0  0  0  0  0
   38.4127   14.5792   -7.6641 C   0  0  0  0  0  0  0  0  0  0  0  0
   37.8896   15.7868   -7.9695 C   0  0  0  0  0  0  0  0  0  0  0  0
   36.8012   16.0650   -8.8200 C   0  0  0  0  0  0  0  0  0  0  0  0
   36.3927   17.3494   -9.0256 C   0  0  0  0  0  0  0  0  0  0  0  0
   36.9740   18.4191   -8.4541 N   0  0  0  0  0  0  0  0  0  0  0  0
   38.0162   18.1894   -7.6362 C   0  0  0  0  0  0  0  0  0  0  0  0
   38.4693   16.8797   -7.3969 C   0  0  0  0  0  0  0  0  0  0  0  0
   39.7209   16.2035   -6.4534 S   0  0  0  0  0  0  0  0  0  0  0  0
   42.1855   12.2614   -5.3203 C   0  0  0  0  0  0  0  0  0  0  0  0
   41.5021   13.4494   -5.7794 N   0  0  0  0  0  0  0  0  0  0  0  0
   40.2216   13.3682   -6.3226 C   0  0  0  0  0  0  0  0  0  0  0  0
   39.6435   12.2620   -6.4209 O   0  0  0  0  0  0  0  0  0  0  0  0
   42.0001   14.3680   -5.6900 H   0  0  0  0  0  0  0  0  0  0  0  0
 29 30  1  0  0  0
 30 31  1  0  0  0
 31 32  2  0  0  0
 31 20  1  0  0  0
 20 21  2  0  0  0
 21 22  1  0  0  0
 22 23  2  0  0  0
 23 19  1  0  0  0
 19  1  1  0  0  0
  1  2  2  0  0  0
  2  3  1  0  0  0
  3  4  2  0  0  0
  4  7  1  0  0  0
  7  8  1  0  0  0
  8  9  2  0  0  0
  8 11  1  0  0  0
 11 12  2  0  0  0
 12 13  1  0  0  0
 12 14  1  0  0  0
 14 15  2  0  0  0
 15 16  1  0  0  0
 16 17  2  0  0  0
 17 18  1  0  0  0
  4  5  1  0  0  0
  5  6  2  0  0  0
 23 24  1  0  0  0
 24 25  2  0  0  0
 25 26  1  0  0  0
 26 27  2  0  0  0
 27 28  1  0  0  0
 28 20  1  0  0  0
 27 22  1  0  0  0
  6  1  1  0  0  0
 17 11  1  0  0  0
 30 33  1  0  0  0
  7 10  1  0  0  0
M  END
> <minimizedAffinity>
-8.34942

> <CNNscore>
0.1317516863

> <CNNaffinity>
6.3092727661

> <CNN_VS>
0.8312573433

> <CNNaffinity_variance>
0.1501977891

$$$$
[H]c1nc([H])c(C([H])([H])[H])c(C(=O)N([H])c2c([H])c([H])c(Oc3c([H])nc([H])c4sc(C(=O)N([H])C([H])([H])[H])c([H])c34)c([H])c2[H])c1C([H])([H])[H]


 33 36  0  0  0  0  0  0  0  0999 V2000
   35.7451   15.9513  -10.6874 C   0  0  0  0  0  0  0  0  0  0  0  0
   34.7380   15.4204  -11.4323 C   0  0  0  0  0  0  0  0  0  0  0  0
   35.0202   14.8060  -12.6419 C   0  0  0  0  0  0  0  0  0  0  0  0
   36.2744   14.6845  -13.1711 C   0  0  0  0  0  0  0  0  0  0  0  0
   37.3039   15.2419  -12.3811 C   0  0  0  0  0  0  0  0  0  0  0  0
   37.0274   15.8502  -11.1831 C   0  0  0  0  0  0  0  0  0  0  0  0
   36.6075   14.0946  -14.4191 N   0  0  0  0  0  0  0  0  0  0  0  0
   36.9892   12.7614  -14.5361 C   0  0  0  0  0  0  0  0  0  0  0  0
   37.0222   12.0911  -13.4392 O   0  0  0  0  0  0  0  0  0  0  0  0
   36.5597   14.7825  -15.2349 H   0  0  0  0  0  0  0  0  0  0  0  0
   37.3594   12.0324  -15.7313 C   0  0  0  0  0  0  0  0  0  0  0  0
   36.3544   11.4249  -16.4686 C   0  0  0  0  0  0  0  0  0  0  0  0
   34.9560   11.4549  -16.0190 C   0  0  0  0  0  0  0  0  0  0  0  0
   36.6167   10.7369  -17.6643 C   0  0  0  0  0  0  0  0  0  0  0  0
   37.8698   10.6499  -18.1283 N   0  0  0  0  0  0  0  0  0  0  0  0
   38.8615   11.2193  -17.4503 C   0  0  0  0  0  0  0  0  0  0  0  0
   38.6286   11.9144  -16.2529 C   0  0  0  0  0  0  0  0  0  0  0  0
   39.7744   12.5664  -15.5673 C   0  0  0  0  0  0  0  0  0  0  0  0
   35.4639   16.5647   -9.4803 O   0  0  0  0  0  0  0  0  0  0  0  0
   37.3743   14.0164   -6.5919 C   0  0  0  0  0  0  0  0  0  0  0  0
   36.8787   14.8499   -7.5580 C   0  0  0  0  0  0  0  0  0  0  0  0
   35.5422   15.0458   -7.5837 C   0  0  0  0  0  0  0  0  0  0  0  0
   34.8056   15.8513   -8.4748 C   0  0  0  0  0  0  0  0  0  0  0  0
   33.4497   15.9434   -8.3669 C   0  0  0  0  0  0  0  0  0  0  0  0
   32.7285   15.2962   -7.4343 N   0  0  0  0  0  0  0  0  0  0  0  0
   33.4002   14.5184   -6.5673 C   0  0  0  0  0  0  0  0  0  0  0  0
   34.7991   14.3956   -6.6439 C   0  0  0  0  0  0  0  0  0  0  0  0
   35.9720   13.5329   -5.7528 S   0  0  0  0  0  0  0  0  0  0  0  0
   41.0952   14.1221   -5.6271 C   0  0  0  0  0  0  0  0  0  0  0  0
   39.7258   14.5337   -5.8377 N   0  0  0  0  0  0  0  0  0  0  0  0
   38.7878   13.6445   -6.3578 C   0  0  0  0  0  0  0  0  0  0  0  0
   39.1189   12.4731   -6.6509 O   0  0  0  0  0  0  0  0  0  0  0  0
   39.4647   15.5181   -5.5869 H   0  0  0  0  0  0  0  0  0  0  0  0
 29 30  1  0  0  0
 30 31  1  0  0  0
 31 32  2  0  0  0
 31 20  1  0  0  0
 20 21  2  0  0  0
 21 22  1  0  0  0
 22 23  2  0  0  0
 23 19  1  0  0  0
 19  1  1  0  0  0
  1  2  2  0  0  0
  2  3  1  0  0  0
  3  4  2  0  0  0
  4  7  1  0  0  0
  7  8  1  0  0  0
  8  9  2  0  0  0
  8 11  1  0  0  0
 11 12  2  0  0  0
 12 13  1  0  0  0
 12 14  1  0  0  0
 14 15  2  0  0  0
 15 16  1  0  0  0
 16 17  2  0  0  0
 17 18  1  0  0  0
  4  5  1  0  0  0
  5  6  2  0  0  0
 23 24  1  0  0  0
 24 25  2  0  0  0
 25 26  1  0  0  0
 26 27  2  0  0  0
 27 28  1  0  0  0
 28 20  1  0  0  0
 27 22  1  0  0  0
  6  1  1  0  0  0
 17 11  1  0  0  0
 30 33  1  0  0  0
  7 10  1  0  0  0
M  END
> <minimizedAffinity>
-8.94271

> <CNNscore>
0.1286512762

> <CNNaffinity>
6.0436291695

> <CNN_VS>
0.7775205970

> <CNNaffinity_variance>
0.2268095762

$$$$
[H]c1nc([H])c(C([H])([H])[H])c(C(=O)N([H])c2c([H])c([H])c(Oc3c([H])nc([H])c4sc(C(=O)N([H])C([H])([H])[H])c([H])c34)c([H])c2[H])c1C([H])([H])[H]


 33 36  0  0  0  0  0  0  0  0999 V2000
   36.9280   15.3389   -9.9460 C   0  0  0  0  0  0  0  0  0  0  0  0
   38.0769   15.4333  -10.6685 C   0  0  0  0  0  0  0  0  0  0  0  0
   38.1065   14.9979  -11.9838 C   0  0  0  0  0  0  0  0  0  0  0  0
   37.0367   14.4594  -12.6420 C   0  0  0  0  0  0  0  0  0  0  0  0
   35.8551   14.3715  -11.8735 C   0  0  0  0  0  0  0  0  0  0  0  0
   35.8230   14.8022  -10.5715 C   0  0  0  0  0  0  0  0  0  0  0  0
   37.0285   13.9698  -13.9750 N   0  0  0  0  0  0  0  0  0  0  0  0
   37.2621   12.6322  -14.2801 C   0  0  0  0  0  0  0  0  0  0  0  0
   37.4870   11.8608  -13.2760 O   0  0  0  0  0  0  0  0  0  0  0  0
   36.8544   14.7330  -14.7017 H   0  0  0  0  0  0  0  0  0  0  0  0
   37.2904   11.9971  -15.5812 C   0  0  0  0  0  0  0  0  0  0  0  0
   38.5151   11.8499  -16.2145 C   0  0  0  0  0  0  0  0  0  0  0  0
   39.7482   12.3841  -15.6208 C   0  0  0  0  0  0  0  0  0  0  0  0
   38.6416   11.2058  -17.4558 C   0  0  0  0  0  0  0  0  0  0  0  0
   37.5593   10.7095  -18.0686 N   0  0  0  0  0  0  0  0  0  0  0  0
   36.3667   10.8303  -17.4937 C   0  0  0  0  0  0  0  0  0  0  0  0
   36.2105   11.4682  -16.2528 C   0  0  0  0  0  0  0  0  0  0  0  0
   34.8567   11.5303  -15.6433 C   0  0  0  0  0  0  0  0  0  0  0  0
   36.8982   15.7732   -8.6334 O   0  0  0  0  0  0  0  0  0  0  0  0
   33.2799   16.0370   -6.3260 C   0  0  0  0  0  0  0  0  0  0  0  0
   34.3942   16.0545   -7.1209 C   0  0  0  0  0  0  0  0  0  0  0  0
   35.3095   15.0796   -6.9290 C   0  0  0  0  0  0  0  0  0  0  0  0
   36.5243   14.8896   -7.6172 C   0  0  0  0  0  0  0  0  0  0  0  0
   37.3445   13.8474   -7.3012 C   0  0  0  0  0  0  0  0  0  0  0  0
   37.0718   12.9464   -6.3407 N   0  0  0  0  0  0  0  0  0  0  0  0
   35.9199   13.0980   -5.6639 C   0  0  0  0  0  0  0  0  0  0  0  0
   35.0455   14.1595   -5.9584 C   0  0  0  0  0  0  0  0  0  0  0  0
   33.5387   14.6710   -5.3406 S   0  0  0  0  0  0  0  0  0  0  0  0
   30.5389   18.4762   -7.4771 C   0  0  0  0  0  0  0  0  0  0  0  0
   31.6511   17.5539   -7.5145 N   0  0  0  0  0  0  0  0  0  0  0  0
   32.1441   16.9862   -6.3415 C   0  0  0  0  0  0  0  0  0  0  0  0
   31.6290   17.2678   -5.2356 O   0  0  0  0  0  0  0  0  0  0  0  0
   32.0710   17.3285   -8.4487 H   0  0  0  0  0  0  0  0  0  0  0  0
 29 30  1  0  0  0
 30 31  1  0  0  0
 31 32  2  0  0  0
 31 20  1  0  0  0
 20 21  2  0  0  0
 21 22  1  0  0  0
 22 23  2  0  0  0
 23 19  1  0  0  0
 19  1  1  0  0  0
  1  2  2  0  0  0
  2  3  1  0  0  0
  3  4  2  0  0  0
  4  7  1  0  0  0
  7  8  1  0  0  0
  8  9  2  0  0  0
  8 11  1  0  0  0
 11 12  2  0  0  0
 12 13  1  0  0  0
 12 14  1  0  0  0
 14 15  2  0  0  0
 15 16  1  0  0  0
 16 17  2  0  0  0
 17 18  1  0  0  0
  4  5  1  0  0  0
  5  6  2  0  0  0
 23 24  1  0  0  0
 24 25  2  0  0  0
 25 26  1  0  0  0
 26 27  2  0  0  0
 27 28  1  0  0  0
 28 20  1  0  0  0
 27 22  1  0  0  0
  6  1  1  0  0  0
 17 11  1  0  0  0
 30 33  1  0  0  0
  7 10  1  0  0  0
M  END
> <minimizedAffinity>
-8.73856

> <CNNscore>
0.1275488436

> <CNNaffinity>
5.8567228317

> <CNN_VS>
0.7470182180

> <CNNaffinity_variance>
0.3368899226

$$$$
[H]c1nc(N([H])c2c([H])c(OC([H])([H])[H])c(OC([H])([H])[H])c(OC([H])([H])[H])c2[H])nc(N([H])c2nc3c(c([H])c2[H])OC(C([H])([H])[H])(C([H])([H])[H])C(=O)N3[H])c1Cl


 37 40  0  0  0  0  0  0  0  0999 V2000
   38.1753   11.6952  -15.3186 C   0  0  0  0  0  0  0  0  0  0  0  0
   37.4348   11.1372  -16.2635 N   0  0  0  0  0  0  0  0  0  0  0  0
   37.7797   10.9490  -17.5429 C   0  0  0  0  0  0  0  0  0  0  0  0
   39.0296   11.3763  -17.9228 C   0  0  0  0  0  0  0  0  0  0  0  0
   39.6272   11.2046  -19.5474 Cl  0  0  0  0  0  0  0  0  0  0  0  0
   39.8683   11.9734  -16.9863 C   0  0  0  0  0  0  0  0  0  0  0  0
   39.4167   12.1082  -15.7397 N   0  0  0  0  0  0  0  0  0  0  0  0
   37.8403   11.9066  -13.9658 N   0  0  0  0  0  0  0  0  0  0  0  0
   37.8280   11.0174  -13.3675 H   0  0  0  0  0  0  0  0  0  0  0  0
   38.0277   15.2808  -12.3504 C   0  0  0  0  0  0  0  0  0  0  0  0
   38.4069   14.0718  -12.9603 C   0  0  0  0  0  0  0  0  0  0  0  0
   37.5298   13.1388  -13.3672 C   0  0  0  0  0  0  0  0  0  0  0  0
   36.1694   13.4131  -13.1601 C   0  0  0  0  0  0  0  0  0  0  0  0
   35.7815   14.5861  -12.5675 C   0  0  0  0  0  0  0  0  0  0  0  0
   36.6957   15.5429  -12.1505 C   0  0  0  0  0  0  0  0  0  0  0  0
   39.5859   16.0473  -10.6855 C   0  0  0  0  0  0  0  0  0  0  0  0
   38.9735   16.2108  -11.9482 O   0  0  0  0  0  0  0  0  0  0  0  0
   34.4444   14.8545  -12.3645 O   0  0  0  0  0  0  0  0  0  0  0  0
   33.4833   14.0705  -13.0397 C   0  0  0  0  0  0  0  0  0  0  0  0
   36.3029   16.7324  -11.5493 O   0  0  0  0  0  0  0  0  0  0  0  0
   36.0471   16.7335  -10.1676 C   0  0  0  0  0  0  0  0  0  0  0  0
   41.1588   12.4276  -17.3288 N   0  0  0  0  0  0  0  0  0  0  0  0
   41.4204   12.5558  -18.3328 H   0  0  0  0  0  0  0  0  0  0  0  0
   42.1062   12.7119  -16.3126 C   0  0  0  0  0  0  0  0  0  0  0  0
   43.4557   12.3656  -16.4899 C   0  0  0  0  0  0  0  0  0  0  0  0
   44.3548   12.6525  -15.4888 C   0  0  0  0  0  0  0  0  0  0  0  0
   43.9683   13.2688  -14.3195 C   0  0  0  0  0  0  0  0  0  0  0  0
   44.8606   13.5646  -13.3018 O   0  0  0  0  0  0  0  0  0  0  0  0
   44.4475   13.8376  -11.9768 C   0  0  0  0  0  0  0  0  0  0  0  0
   45.4597   14.7576  -11.3028 C   0  0  0  0  0  0  0  0  0  0  0  0
   44.2975   12.5472  -11.2235 C   0  0  0  0  0  0  0  0  0  0  0  0
   43.1337   14.5388  -11.9288 C   0  0  0  0  0  0  0  0  0  0  0  0
   42.8732   15.3603  -11.0003 O   0  0  0  0  0  0  0  0  0  0  0  0
   42.2045   14.2431  -12.9606 N   0  0  0  0  0  0  0  0  0  0  0  0
   42.6311   13.6028  -14.1638 C   0  0  0  0  0  0  0  0  0  0  0  0
   41.7786   13.3097  -15.1587 N   0  0  0  0  0  0  0  0  0  0  0  0
   41.2095   14.4950  -12.8376 H   0  0  0  0  0  0  0  0  0  0  0  0
 16 17  1  0  0  0
 17 10  1  0  0  0
 10 11  2  0  0  0
 11 12  1  0  0  0
 12  8  1  0  0  0
  8  1  1  0  0  0
  1  2  2  0  0  0
  2  3  1  0  0  0
  3  4  2  0  0  0
  4  5  1  0  0  0
  4  6  1  0  0  0
  6 22  1  0  0  0
 22 24  1  0  0  0
 24 25  2  0  0  0
 25 26  1  0  0  0
 26 27  2  0  0  0
 27 28  1  0  0  0
 28 29  1  0  0  0
 29 30  1  0  0  0
 29 31  1  0  0  0
 29 32  1  0  0  0
 32 33  2  0  0  0
 32 34  1  0  0  0
 34 35  1  0  0  0
 35 36  2  0  0  0
  6  7  2  0  0  0
 12 13  2  0  0  0
 13 14  1  0  0  0
 14 18  1  0  0  0
 18 19  1  0  0  0
 14 15  2  0  0  0
 15 20  1  0  0  0
 20 21  1  0  0  0
 15 10  1  0  0  0
  7  1  1  0  0  0
 36 24  1  0  0  0
 35 27  1  0  0  0
  8  9  1  0  0  0
 22 23  1  0  0  0
 34 37  1  0  0  0
M  END
> <minimizedAffinity>
-8.74704

> <CNNscore>
0.4073097408

> <CNNaffinity>
7.2250871658

> <CNN_VS>
2.9428484440

> <CNNaffinity_variance>
0.2008015215

$$$$
[H]c1nc(N([H])c2c([H])c(OC([H])([H])[H])c(OC([H])([H])[H])c(OC([H])([H])[H])c2[H])nc(N([H])c2nc3c(c([H])c2[H])OC(C([H])([H])[H])(C([H])([H])[H])C(=O)N3[H])c1Cl


 37 40  0  0  0  0  0  0  0  0999 V2000
   38.1832   11.6993  -15.2625 C   0  0  0  0  0  0  0  0  0  0  0  0
   37.4742   11.1332  -16.2265 N   0  0  0  0  0  0  0  0  0  0  0  0
   37.8355   10.9920  -17.5074 C   0  0  0  0  0  0  0  0  0  0  0  0
   39.0680   11.4826  -17.8670 C   0  0  0  0  0  0  0  0  0  0  0  0
   39.6835   11.3774  -19.4906 Cl  0  0  0  0  0  0  0  0  0  0  0  0
   39.8736   12.0923  -16.9097 C   0  0  0  0  0  0  0  0  0  0  0  0
   39.4081   12.1763  -15.6637 N   0  0  0  0  0  0  0  0  0  0  0  0
   37.8302   11.8623  -13.9076 N   0  0  0  0  0  0  0  0  0  0  0  0
   38.0005   10.9977  -13.2975 H   0  0  0  0  0  0  0  0  0  0  0  0
   35.5133   14.4741  -12.5511 C   0  0  0  0  0  0  0  0  0  0  0  0
   35.9874   13.2845  -13.1317 C   0  0  0  0  0  0  0  0  0  0  0  0
   37.2910   13.0189  -13.3205 C   0  0  0  0  0  0  0  0  0  0  0  0
   38.2051   13.9992  -12.9058 C   0  0  0  0  0  0  0  0  0  0  0  0
   37.7612   15.1645  -12.3379 C   0  0  0  0  0  0  0  0  0  0  0  0
   36.4124   15.4290  -12.1479 C   0  0  0  0  0  0  0  0  0  0  0  0
   33.2447   13.9547  -13.1603 C   0  0  0  0  0  0  0  0  0  0  0  0
   34.1564   14.6993  -12.3791 O   0  0  0  0  0  0  0  0  0  0  0  0
   38.6605   16.1272  -11.9307 O   0  0  0  0  0  0  0  0  0  0  0  0
   39.4336   15.8894  -10.7732 C   0  0  0  0  0  0  0  0  0  0  0  0
   35.9618   16.6106  -11.5722 O   0  0  0  0  0  0  0  0  0  0  0  0
   35.8269   16.6675  -10.1747 C   0  0  0  0  0  0  0  0  0  0  0  0
   41.1452   12.6105  -17.2309 N   0  0  0  0  0  0  0  0  0  0  0  0
   41.3932   12.8123  -18.2262 H   0  0  0  0  0  0  0  0  0  0  0  0
   42.0921   12.8598  -16.2050 C   0  0  0  0  0  0  0  0  0  0  0  0
   43.4374   12.4982  -16.3841 C   0  0  0  0  0  0  0  0  0  0  0  0
   44.3360   12.7510  -15.3735 C   0  0  0  0  0  0  0  0  0  0  0  0
   43.9531   13.3477  -14.1930 C   0  0  0  0  0  0  0  0  0  0  0  0
   44.8450   13.6091  -13.1655 O   0  0  0  0  0  0  0  0  0  0  0  0
   44.4300   13.8597  -11.8366 C   0  0  0  0  0  0  0  0  0  0  0  0
   45.4521   14.7507  -11.1390 C   0  0  0  0  0  0  0  0  0  0  0  0
   44.2586   12.5557  -11.1117 C   0  0  0  0  0  0  0  0  0  0  0  0
   43.1260   14.5782  -11.7791 C   0  0  0  0  0  0  0  0  0  0  0  0
   42.8730   15.3833  -10.8343 O   0  0  0  0  0  0  0  0  0  0  0  0
   42.1973   14.3177  -12.8207 N   0  0  0  0  0  0  0  0  0  0  0  0
   42.6201   13.6972  -14.0356 C   0  0  0  0  0  0  0  0  0  0  0  0
   41.7679   13.4374  -15.0400 N   0  0  0  0  0  0  0  0  0  0  0  0
   41.2054   14.5810  -12.6964 H   0  0  0  0  0  0  0  0  0  0  0  0
 16 17  1  0  0  0
 17 10  1  0  0  0
 10 11  2  0  0  0
 11 12  1  0  0  0
 12  8  1  0  0  0
  8  1  1  0  0  0
  1  2  2  0  0  0
  2  3  1  0  0  0
  3  4  2  0  0  0
  4  5  1  0  0  0
  4  6  1  0  0  0
  6 22  1  0  0  0
 22 24  1  0  0  0
 24 25  2  0  0  0
 25 26  1  0  0  0
 26 27  2  0  0  0
 27 28  1  0  0  0
 28 29  1  0  0  0
 29 30  1  0  0  0
 29 31  1  0  0  0
 29 32  1  0  0  0
 32 33  2  0  0  0
 32 34  1  0  0  0
 34 35  1  0  0  0
 35 36  2  0  0  0
  6  7  2  0  0  0
 12 13  2  0  0  0
 13 14  1  0  0  0
 14 18  1  0  0  0
 18 19  1  0  0  0
 14 15  2  0  0  0
 15 20  1  0  0  0
 20 21  1  0  0  0
 15 10  1  0  0  0
  7  1  1  0  0  0
 36 24  1  0  0  0
 35 27  1  0  0  0
  8  9  1  0  0  0
 22 23  1  0  0  0
 34 37  1  0  0  0
M  END
> <minimizedAffinity>
-8.54897

> <CNNscore>
0.3444058597

> <CNNaffinity>
7.1522302628

> <CNN_VS>
2.4632699490

> <CNNaffinity_variance>
0.1492314339

$$$$
[H]c1nc(N([H])c2c([H])c(OC([H])([H])[H])c(OC([H])([H])[H])c(OC([H])([H])[H])c2[H])nc(N([H])c2nc3c(c([H])c2[H])OC(C([H])([H])[H])(C([H])([H])[H])C(=O)N3[H])c1Cl


 37 40  0  0  0  0  0  0  0  0999 V2000
   38.0277   11.8235  -15.3145 C   0  0  0  0  0  0  0  0  0  0  0  0
   37.5877   11.0244  -16.2740 N   0  0  0  0  0  0  0  0  0  0  0  0
   38.1243   10.8637  -17.4895 C   0  0  0  0  0  0  0  0  0  0  0  0
   39.2478   11.6004  -17.7792 C   0  0  0  0  0  0  0  0  0  0  0  0
   40.0634   11.5055  -19.3128 Cl  0  0  0  0  0  0  0  0  0  0  0  0
   39.7720   12.4640  -16.8219 C   0  0  0  0  0  0  0  0  0  0  0  0
   39.1520   12.5417  -15.6447 N   0  0  0  0  0  0  0  0  0  0  0  0
   37.4853   12.0136  -14.0275 N   0  0  0  0  0  0  0  0  0  0  0  0
   37.1956   11.1095  -13.5299 H   0  0  0  0  0  0  0  0  0  0  0  0
   38.0049   15.2708  -12.2524 C   0  0  0  0  0  0  0  0  0  0  0  0
   38.2629   14.0568  -12.9134 C   0  0  0  0  0  0  0  0  0  0  0  0
   37.2982   13.2438  -13.3757 C   0  0  0  0  0  0  0  0  0  0  0  0
   35.9716   13.6542  -13.1743 C   0  0  0  0  0  0  0  0  0  0  0  0
   35.7013   14.8342  -12.5324 C   0  0  0  0  0  0  0  0  0  0  0  0
   36.7054   15.6664  -12.0583 C   0  0  0  0  0  0  0  0  0  0  0  0
   40.3165   15.9255  -12.3761 C   0  0  0  0  0  0  0  0  0  0  0  0
   39.0377   16.0735  -11.7940 O   0  0  0  0  0  0  0  0  0  0  0  0
   34.3974   15.2365  -12.3351 O   0  0  0  0  0  0  0  0  0  0  0  0
   33.3521   14.3721  -12.7282 C   0  0  0  0  0  0  0  0  0  0  0  0
   36.4318   16.8629  -11.4072 O   0  0  0  0  0  0  0  0  0  0  0  0
   36.2752   16.8465  -10.0108 C   0  0  0  0  0  0  0  0  0  0  0  0
   40.9224   13.2401  -17.0730 N   0  0  0  0  0  0  0  0  0  0  0  0
   40.9941   13.8027  -17.9512 H   0  0  0  0  0  0  0  0  0  0  0  0
   41.9860   13.2602  -16.1352 C   0  0  0  0  0  0  0  0  0  0  0  0
   41.7157   13.4139  -14.7656 C   0  0  0  0  0  0  0  0  0  0  0  0
   42.7655   13.4301  -13.8764 C   0  0  0  0  0  0  0  0  0  0  0  0
   44.0719   13.3001  -14.2921 C   0  0  0  0  0  0  0  0  0  0  0  0
   45.1403   13.3144  -13.4101 O   0  0  0  0  0  0  0  0  0  0  0  0
   46.4705   13.5616  -13.8230 C   0  0  0  0  0  0  0  0  0  0  0  0
   47.4401   12.8631  -12.8758 C   0  0  0  0  0  0  0  0  0  0  0  0
   46.7159   15.0427  -13.8596 C   0  0  0  0  0  0  0  0  0  0  0  0
   46.7461   13.0287  -15.1868 C   0  0  0  0  0  0  0  0  0  0  0  0
   47.9017   12.6123  -15.4966 O   0  0  0  0  0  0  0  0  0  0  0  0
   45.6640   13.0121  -16.1057 N   0  0  0  0  0  0  0  0  0  0  0  0
   44.3179   13.1493  -15.6487 C   0  0  0  0  0  0  0  0  0  0  0  0
   43.2723   13.1374  -16.4909 N   0  0  0  0  0  0  0  0  0  0  0  0
   45.8549   12.8994  -17.1154 H   0  0  0  0  0  0  0  0  0  0  0  0
 16 17  1  0  0  0
 17 10  1  0  0  0
 10 11  2  0  0  0
 11 12  1  0  0  0
 12  8  1  0  0  0
  8  1  1  0  0  0
  1  2  2  0  0  0
  2  3  1  0  0  0
  3  4  2  0  0  0
  4  5  1  0  0  0
  4  6  1  0  0  0
  6 22  1  0  0  0
 22 24  1  0  0  0
 24 25  2  0  0  0
 25 26  1  0  0  0
 26 27  2  0  0  0
 27 28  1  0  0  0
 28 29  1  0  0  0
 29 30  1  0  0  0
 29 31  1  0  0  0
 29 32  1  0  0  0
 32 33  2  0  0  0
 32 34  1  0  0  0
 34 35  1  0  0  0
 35 36  2  0  0  0
  6  7  2  0  0  0
 12 13  2  0  0  0
 13 14  1  0  0  0
 14 18  1  0  0  0
 18 19  1  0  0  0
 14 15  2  0  0  0
 15 20  1  0  0  0
 20 21  1  0  0  0
 15 10  1  0  0  0
  7  1  1  0  0  0
 36 24  1  0  0  0
 35 27  1  0  0  0
  8  9  1  0  0  0
 22 23  1  0  0  0
 34 37  1  0  0  0
M  END
> <minimizedAffinity>
-8.81223

> <CNNscore>
0.3224104643

> <CNNaffinity>
6.9947257042

> <CNN_VS>
2.2551727295

> <CNNaffinity_variance>
0.4348680973

$$$$
[H]c1nc(N([H])c2c([H])c(OC([H])([H])[H])c(OC([H])([H])[H])c(OC([H])([H])[H])c2[H])nc(N([H])c2nc3c(c([H])c2[H])OC(C([H])([H])[H])(C([H])([H])[H])C(=O)N3[H])c1Cl


 37 40  0  0  0  0  0  0  0  0999 V2000
   41.2751   13.1660  -15.6068 C   0  0  0  0  0  0  0  0  0  0  0  0
   41.5901   12.8226  -16.8459 N   0  0  0  0  0  0  0  0  0  0  0  0
   40.8352   12.1168  -17.6964 C   0  0  0  0  0  0  0  0  0  0  0  0
   39.6052   11.7022  -17.2444 C   0  0  0  0  0  0  0  0  0  0  0  0
   38.5067   10.7774  -18.2263 Cl  0  0  0  0  0  0  0  0  0  0  0  0
   39.2011   12.0239  -15.9520 C   0  0  0  0  0  0  0  0  0  0  0  0
   40.0380   12.7322  -15.1942 N   0  0  0  0  0  0  0  0  0  0  0  0
   42.0472   13.9070  -14.6894 N   0  0  0  0  0  0  0  0  0  0  0  0
   41.6483   14.8732  -14.4521 H   0  0  0  0  0  0  0  0  0  0  0  0
   45.5429   12.7145  -14.0663 C   0  0  0  0  0  0  0  0  0  0  0  0
   44.3749   13.1320  -14.7288 C   0  0  0  0  0  0  0  0  0  0  0  0
   43.2502   13.4974  -14.0909 C   0  0  0  0  0  0  0  0  0  0  0  0
   43.2718   13.4504  -12.6887 C   0  0  0  0  0  0  0  0  0  0  0  0
   44.4012   13.0464  -12.0263 C   0  0  0  0  0  0  0  0  0  0  0  0
   45.5575   12.6706  -12.6950 C   0  0  0  0  0  0  0  0  0  0  0  0
   47.4423   13.3593  -15.3945 C   0  0  0  0  0  0  0  0  0  0  0  0
   46.6777   12.3472  -14.7724 O   0  0  0  0  0  0  0  0  0  0  0  0
   44.4212   13.0007  -10.6484 O   0  0  0  0  0  0  0  0  0  0  0  0
   44.0096   14.1409   -9.9241 C   0  0  0  0  0  0  0  0  0  0  0  0
   46.7029   12.2606  -12.0237 O   0  0  0  0  0  0  0  0  0  0  0  0
   47.6294   13.2365  -11.6193 C   0  0  0  0  0  0  0  0  0  0  0  0
   37.9488   11.6209  -15.4441 N   0  0  0  0  0  0  0  0  0  0  0  0
   37.5729   10.6714  -15.6680 H   0  0  0  0  0  0  0  0  0  0  0  0
   37.1948   12.5020  -14.6278 C   0  0  0  0  0  0  0  0  0  0  0  0
   36.0451   13.1262  -15.1386 C   0  0  0  0  0  0  0  0  0  0  0  0
   35.3312   13.9767  -14.3262 C   0  0  0  0  0  0  0  0  0  0  0  0
   35.7128   14.2322  -13.0279 C   0  0  0  0  0  0  0  0  0  0  0  0
   35.0055   15.0857  -12.1967 O   0  0  0  0  0  0  0  0  0  0  0  0
   35.5633   15.6504  -11.0259 C   0  0  0  0  0  0  0  0  0  0  0  0
   34.4577   15.9289  -10.0134 C   0  0  0  0  0  0  0  0  0  0  0  0
   36.3064   16.9061  -11.3810 C   0  0  0  0  0  0  0  0  0  0  0  0
   36.5300   14.7314  -10.3618 C   0  0  0  0  0  0  0  0  0  0  0  0
   36.6749   14.7454   -9.1034 O   0  0  0  0  0  0  0  0  0  0  0  0
   37.2680   13.8539  -11.1990 N   0  0  0  0  0  0  0  0  0  0  0  0
   36.8511   13.6060  -12.5422 C   0  0  0  0  0  0  0  0  0  0  0  0
   37.5258   12.7819  -13.3597 N   0  0  0  0  0  0  0  0  0  0  0  0
   38.1153   13.3906  -10.8302 H   0  0  0  0  0  0  0  0  0  0  0  0
 16 17  1  0  0  0
 17 10  1  0  0  0
 10 11  2  0  0  0
 11 12  1  0  0  0
 12  8  1  0  0  0
  8  1  1  0  0  0
  1  2  2  0  0  0
  2  3  1  0  0  0
  3  4  2  0  0  0
  4  5  1  0  0  0
  4  6  1  0  0  0
  6 22  1  0  0  0
 22 24  1  0  0  0
 24 25  2  0  0  0
 25 26  1  0  0  0
 26 27  2  0  0  0
 27 28  1  0  0  0
 28 29  1  0  0  0
 29 30  1  0  0  0
 29 31  1  0  0  0
 29 32  1  0  0  0
 32 33  2  0  0  0
 32 34  1  0  0  0
 34 35  1  0  0  0
 35 36  2  0  0  0
  6  7  2  0  0  0
 12 13  2  0  0  0
 13 14  1  0  0  0
 14 18  1  0  0  0
 18 19  1  0  0  0
 14 15  2  0  0  0
 15 20  1  0  0  0
 20 21  1  0  0  0
 15 10  1  0  0  0
  7  1  1  0  0  0
 36 24  1  0  0  0
 35 27  1  0  0  0
  8  9  1  0  0  0
 22 23  1  0  0  0
 34 37  1  0  0  0
M  END
> <minimizedAffinity>
-7.57628

> <CNNscore>
0.1712392122

> <CNNaffinity>
6.6349844933

> <CNN_VS>
1.1361695528

> <CNNaffinity_variance>
0.2610366046

$$$$
[H]c1nc(N([H])c2c([H])c(OC([H])([H])[H])c(OC([H])([H])[H])c(OC([H])([H])[H])c2[H])nc(N([H])c2nc3c(c([H])c2[H])OC(C([H])([H])[H])(C([H])([H])[H])C(=O)N3[H])c1Cl


 37 40  0  0  0  0  0  0  0  0999 V2000
   38.0949   12.8507  -15.2706 C   0  0  0  0  0  0  0  0  0  0  0  0
   37.3533   11.8320  -15.6766 N   0  0  0  0  0  0  0  0  0  0  0  0
   36.0346   11.6834  -15.5025 C   0  0  0  0  0  0  0  0  0  0  0  0
   35.3753   12.6873  -14.8343 C   0  0  0  0  0  0  0  0  0  0  0  0
   33.6636   12.6445  -14.5273 Cl  0  0  0  0  0  0  0  0  0  0  0  0
   36.0858   13.7927  -14.3755 C   0  0  0  0  0  0  0  0  0  0  0  0
   37.3976   13.8319  -14.6072 N   0  0  0  0  0  0  0  0  0  0  0  0
   39.4822   13.0349  -15.4389 N   0  0  0  0  0  0  0  0  0  0  0  0
   39.8890   12.5680  -16.3137 H   0  0  0  0  0  0  0  0  0  0  0  0
   40.9337   15.5177  -13.0391 C   0  0  0  0  0  0  0  0  0  0  0  0
   40.0207   14.8394  -13.8660 C   0  0  0  0  0  0  0  0  0  0  0  0
   40.3377   13.7483  -14.5832 C   0  0  0  0  0  0  0  0  0  0  0  0
   41.6576   13.2832  -14.4814 C   0  0  0  0  0  0  0  0  0  0  0  0
   42.5608   13.9314  -13.6805 C   0  0  0  0  0  0  0  0  0  0  0  0
   42.2231   15.0579  -12.9442 C   0  0  0  0  0  0  0  0  0  0  0  0
   40.1836   16.4806  -10.9661 C   0  0  0  0  0  0  0  0  0  0  0  0
   40.5555   16.6405  -12.3197 O   0  0  0  0  0  0  0  0  0  0  0  0
   43.8575   13.4734  -13.5813 O   0  0  0  0  0  0  0  0  0  0  0  0
   44.6591   13.4438  -14.7436 C   0  0  0  0  0  0  0  0  0  0  0  0
   43.1387   15.7157  -12.1321 O   0  0  0  0  0  0  0  0  0  0  0  0
   43.8903   16.7674  -12.6830 C   0  0  0  0  0  0  0  0  0  0  0  0
   35.4532   14.8472  -13.6851 N   0  0  0  0  0  0  0  0  0  0  0  0
   34.6604   15.3639  -14.1294 H   0  0  0  0  0  0  0  0  0  0  0  0
   35.8900   15.2104  -12.3857 C   0  0  0  0  0  0  0  0  0  0  0  0
   35.9483   14.2462  -11.3662 C   0  0  0  0  0  0  0  0  0  0  0  0
   36.3756   14.6245  -10.1143 C   0  0  0  0  0  0  0  0  0  0  0  0
   36.7471   15.9206   -9.8341 C   0  0  0  0  0  0  0  0  0  0  0  0
   37.1796   16.3180   -8.5793 O   0  0  0  0  0  0  0  0  0  0  0  0
   37.2005   17.6719   -8.1701 C   0  0  0  0  0  0  0  0  0  0  0  0
   38.2957   17.8766   -7.1290 C   0  0  0  0  0  0  0  0  0  0  0  0
   35.8532   18.0510   -7.6258 C   0  0  0  0  0  0  0  0  0  0  0  0
   37.5038   18.5973   -9.2977 C   0  0  0  0  0  0  0  0  0  0  0  0
   38.1292   19.6801   -9.0947 O   0  0  0  0  0  0  0  0  0  0  0  0
   37.0626   18.2088  -10.5900 N   0  0  0  0  0  0  0  0  0  0  0  0
   36.6825   16.8578  -10.8545 C   0  0  0  0  0  0  0  0  0  0  0  0
   36.2615   16.4575  -12.0649 N   0  0  0  0  0  0  0  0  0  0  0  0
   37.0171   18.9127  -11.3457 H   0  0  0  0  0  0  0  0  0  0  0  0
 16 17  1  0  0  0
 17 10  1  0  0  0
 10 11  2  0  0  0
 11 12  1  0  0  0
 12  8  1  0  0  0
  8  1  1  0  0  0
  1  2  2  0  0  0
  2  3  1  0  0  0
  3  4  2  0  0  0
  4  5  1  0  0  0
  4  6  1  0  0  0
  6 22  1  0  0  0
 22 24  1  0  0  0
 24 25  2  0  0  0
 25 26  1  0  0  0
 26 27  2  0  0  0
 27 28  1  0  0  0
 28 29  1  0  0  0
 29 30  1  0  0  0
 29 31  1  0  0  0
 29 32  1  0  0  0
 32 33  2  0  0  0
 32 34  1  0  0  0
 34 35  1  0  0  0
 35 36  2  0  0  0
  6  7  2  0  0  0
 12 13  2  0  0  0
 13 14  1  0  0  0
 14 18  1  0  0  0
 18 19  1  0  0  0
 14 15  2  0  0  0
 15 20  1  0  0  0
 20 21  1  0  0  0
 15 10  1  0  0  0
  7  1  1  0  0  0
 36 24  1  0  0  0
 35 27  1  0  0  0
  8  9  1  0  0  0
 22 23  1  0  0  0
 34 37  1  0  0  0
M  END
> <minimizedAffinity>
-8.59754

> <CNNscore>
0.0919683278

> <CNNaffinity>
6.2987098694

> <CNN_VS>
0.5792818069

> <CNNaffinity_variance>
0.3385221660

$$$$
[H]c1nc(N([H])c2c([H])c(OC([H])([H])[H])c(OC([H])([H])[H])c(OC([H])([H])[H])c2[H])nc(N([H])c2nc3c(c([H])c2[H])OC(C([H])([H])[H])(C([H])([H])[H])C(=O)N3[H])c1Cl


 37 40  0  0  0  0  0  0  0  0999 V2000
   41.0899   13.6114  -14.6587 C   0  0  0  0  0  0  0  0  0  0  0  0
   41.0510   12.8334  -15.7291 N   0  0  0  0  0  0  0  0  0  0  0  0
   42.0934   12.4428  -16.4721 C   0  0  0  0  0  0  0  0  0  0  0  0
   43.3355   12.8913  -16.0912 C   0  0  0  0  0  0  0  0  0  0  0  0
   44.7890   12.4739  -16.9510 Cl  0  0  0  0  0  0  0  0  0  0  0  0
   43.4594   13.7139  -14.9754 C   0  0  0  0  0  0  0  0  0  0  0  0
   42.3497   14.0377  -14.3121 N   0  0  0  0  0  0  0  0  0  0  0  0
   40.0119   14.0389  -13.8575 N   0  0  0  0  0  0  0  0  0  0  0  0
   40.2477   14.8416  -13.1875 H   0  0  0  0  0  0  0  0  0  0  0  0
   36.8561   12.2322  -14.7561 C   0  0  0  0  0  0  0  0  0  0  0  0
   38.1780   12.7096  -14.8012 C   0  0  0  0  0  0  0  0  0  0  0  0
   38.7090   13.5139  -13.8649 C   0  0  0  0  0  0  0  0  0  0  0  0
   37.8765   13.8802  -12.7965 C   0  0  0  0  0  0  0  0  0  0  0  0
   36.5857   13.4244  -12.7360 C   0  0  0  0  0  0  0  0  0  0  0  0
   36.0471   12.5942  -13.7086 C   0  0  0  0  0  0  0  0  0  0  0  0
   37.0285   11.3584  -16.9909 C   0  0  0  0  0  0  0  0  0  0  0  0
   36.3565   11.4040  -15.7490 O   0  0  0  0  0  0  0  0  0  0  0  0
   35.7687   13.7850  -11.6855 O   0  0  0  0  0  0  0  0  0  0  0  0
   36.2451   14.7241  -10.7447 C   0  0  0  0  0  0  0  0  0  0  0  0
   34.7382   12.1320  -13.6479 O   0  0  0  0  0  0  0  0  0  0  0  0
   33.7255   12.9042  -14.2417 C   0  0  0  0  0  0  0  0  0  0  0  0
   44.7122   14.1988  -14.5463 N   0  0  0  0  0  0  0  0  0  0  0  0
   45.0419   15.1426  -14.8518 H   0  0  0  0  0  0  0  0  0  0  0  0
   45.5292   13.4079  -13.6989 C   0  0  0  0  0  0  0  0  0  0  0  0
   46.8968   13.2554  -13.9799 C   0  0  0  0  0  0  0  0  0  0  0  0
   47.6676   12.4828  -13.1421 C   0  0  0  0  0  0  0  0  0  0  0  0
   47.1356   11.8560  -12.0374 C   0  0  0  0  0  0  0  0  0  0  0  0
   47.8975   11.0747  -11.1838 O   0  0  0  0  0  0  0  0  0  0  0  0
   47.3278   10.1371  -10.2909 C   0  0  0  0  0  0  0  0  0  0  0  0
   48.2363    9.9655   -9.0783 C   0  0  0  0  0  0  0  0  0  0  0  0
   47.1170    8.8319  -11.0033 C   0  0  0  0  0  0  0  0  0  0  0  0
   46.0037   10.5833   -9.7738 C   0  0  0  0  0  0  0  0  0  0  0  0
   45.6207   10.2570   -8.6111 O   0  0  0  0  0  0  0  0  0  0  0  0
   45.2068   11.3798  -10.6375 N   0  0  0  0  0  0  0  0  0  0  0  0
   45.7830   12.0191  -11.7772 C   0  0  0  0  0  0  0  0  0  0  0  0
   45.0579   12.7790  -12.6134 N   0  0  0  0  0  0  0  0  0  0  0  0
   44.1994   11.4969  -10.4373 H   0  0  0  0  0  0  0  0  0  0  0  0
 16 17  1  0  0  0
 17 10  1  0  0  0
 10 11  2  0  0  0
 11 12  1  0  0  0
 12  8  1  0  0  0
  8  1  1  0  0  0
  1  2  2  0  0  0
  2  3  1  0  0  0
  3  4  2  0  0  0
  4  5  1  0  0  0
  4  6  1  0  0  0
  6 22  1  0  0  0
 22 24  1  0  0  0
 24 25  2  0  0  0
 25 26  1  0  0  0
 26 27  2  0  0  0
 27 28  1  0  0  0
 28 29  1  0  0  0
 29 30  1  0  0  0
 29 31  1  0  0  0
 29 32  1  0  0  0
 32 33  2  0  0  0
 32 34  1  0  0  0
 34 35  1  0  0  0
 35 36  2  0  0  0
  6  7  2  0  0  0
 12 13  2  0  0  0
 13 14  1  0  0  0
 14 18  1  0  0  0
 18 19  1  0  0  0
 14 15  2  0  0  0
 15 20  1  0  0  0
 20 21  1  0  0  0
 15 10  1  0  0  0
  7  1  1  0  0  0
 36 24  1  0  0  0
 35 27  1  0  0  0
  8  9  1  0  0  0
 22 23  1  0  0  0
 34 37  1  0  0  0
M  END
> <minimizedAffinity>
-7.75873

> <CNNscore>
0.0826829225

> <CNNaffinity>
6.3595762253

> <CNN_VS>
0.5258283615

> <CNNaffinity_variance>
0.0540815182

$$$$
[H]c1nc(N([H])c2c([H])c(OC([H])([H])[H])c(OC([H])([H])[H])c(OC([H])([H])[H])c2[H])nc(N([H])c2nc3c(c([H])c2[H])OC(C([H])([H])[H])(C([H])([H])[H])C(=O)N3[H])c1Cl


 37 40  0  0  0  0  0  0  0  0999 V2000
   35.9161   14.0431  -14.0369 C   0  0  0  0  0  0  0  0  0  0  0  0
   34.7696   13.4183  -14.2554 N   0  0  0  0  0  0  0  0  0  0  0  0
   34.5690   12.3780  -15.0733 C   0  0  0  0  0  0  0  0  0  0  0  0
   35.6607   11.9038  -15.7607 C   0  0  0  0  0  0  0  0  0  0  0  0
   35.5663   10.5598  -16.8612 Cl  0  0  0  0  0  0  0  0  0  0  0  0
   36.9021   12.5079  -15.5848 C   0  0  0  0  0  0  0  0  0  0  0  0
   36.9815   13.5382  -14.7431 N   0  0  0  0  0  0  0  0  0  0  0  0
   36.1578   15.1386  -13.1836 N   0  0  0  0  0  0  0  0  0  0  0  0
   36.8809   15.8381  -13.5533 H   0  0  0  0  0  0  0  0  0  0  0  0
   33.6989   15.7407  -10.4228 C   0  0  0  0  0  0  0  0  0  0  0  0
   34.2372   15.4882  -11.6972 C   0  0  0  0  0  0  0  0  0  0  0  0
   35.5542   15.3726  -11.9370 C   0  0  0  0  0  0  0  0  0  0  0  0
   36.4145   15.5155  -10.8378 C   0  0  0  0  0  0  0  0  0  0  0  0
   35.9078   15.7615   -9.5887 C   0  0  0  0  0  0  0  0  0  0  0  0
   34.5456   15.8796   -9.3521 C   0  0  0  0  0  0  0  0  0  0  0  0
   31.4653   15.2710  -11.1830 C   0  0  0  0  0  0  0  0  0  0  0  0
   32.3309   15.8516  -10.2293 O   0  0  0  0  0  0  0  0  0  0  0  0
   36.7542   15.9017   -8.5093 O   0  0  0  0  0  0  0  0  0  0  0  0
   37.4035   14.7553   -8.0009 C   0  0  0  0  0  0  0  0  0  0  0  0
   34.0314   16.1293   -8.0857 O   0  0  0  0  0  0  0  0  0  0  0  0
   33.6957   15.0355   -7.2700 C   0  0  0  0  0  0  0  0  0  0  0  0
   38.0504   12.0568  -16.2680 N   0  0  0  0  0  0  0  0  0  0  0  0
   37.9585   11.3744  -17.0546 H   0  0  0  0  0  0  0  0  0  0  0  0
   39.3339   12.5271  -15.8904 C   0  0  0  0  0  0  0  0  0  0  0  0
   40.4581   12.2121  -16.6711 C   0  0  0  0  0  0  0  0  0  0  0  0
   41.6921   12.6806  -16.2830 C   0  0  0  0  0  0  0  0  0  0  0  0
   41.8547   13.4487  -15.1517 C   0  0  0  0  0  0  0  0  0  0  0  0
   43.0899   13.9284  -14.7468 O   0  0  0  0  0  0  0  0  0  0  0  0
   43.3418   14.3794  -13.4300 C   0  0  0  0  0  0  0  0  0  0  0  0
   44.4476   15.4292  -13.4498 C   0  0  0  0  0  0  0  0  0  0  0  0
   43.7148   13.2109  -12.5636 C   0  0  0  0  0  0  0  0  0  0  0  0
   42.1479   15.0271  -12.8176 C   0  0  0  0  0  0  0  0  0  0  0  0
   42.2816   15.9670  -11.9788 O   0  0  0  0  0  0  0  0  0  0  0  0
   40.8739   14.5441  -13.2165 N   0  0  0  0  0  0  0  0  0  0  0  0
   40.7322   13.7488  -14.3942 C   0  0  0  0  0  0  0  0  0  0  0  0
   39.5424   13.2768  -14.7993 N   0  0  0  0  0  0  0  0  0  0  0  0
   40.0417   14.7717  -12.6470 H   0  0  0  0  0  0  0  0  0  0  0  0
 16 17  1  0  0  0
 17 10  1  0  0  0
 10 11  2  0  0  0
 11 12  1  0  0  0
 12  8  1  0  0  0
  8  1  1  0  0  0
  1  2  2  0  0  0
  2  3  1  0  0  0
  3  4  2  0  0  0
  4  5  1  0  0  0
  4  6  1  0  0  0
  6 22  1  0  0  0
 22 24  1  0  0  0
 24 25  2  0  0  0
 25 26  1  0  0  0
 26 27  2  0  0  0
 27 28  1  0  0  0
 28 29  1  0  0  0
 29 30  1  0  0  0
 29 31  1  0  0  0
 29 32  1  0  0  0
 32 33  2  0  0  0
 32 34  1  0  0  0
 34 35  1  0  0  0
 35 36  2  0  0  0
  6  7  2  0  0  0
 12 13  2  0  0  0
 13 14  1  0  0  0
 14 18  1  0  0  0
 18 19  1  0  0  0
 14 15  2  0  0  0
 15 20  1  0  0  0
 20 21  1  0  0  0
 15 10  1  0  0  0
  7  1  1  0  0  0
 36 24  1  0  0  0
 35 27  1  0  0  0
  8  9  1  0  0  0
 22 23  1  0  0  0
 34 37  1  0  0  0
M  END
> <minimizedAffinity>
-8.49774

> <CNNscore>
0.0710066184

> <CNNaffinity>
6.6008653641

> <CNN_VS>
0.4687051177

> <CNNaffinity_variance>
0.1629992425

$$$$
[H]c1nc(N([H])c2c([H])c(OC([H])([H])[H])c(OC([H])([H])[H])c(OC([H])([H])[H])c2[H])nc(N([H])c2nc3c(c([H])c2[H])OC(C([H])([H])[H])(C([H])([H])[H])C(=O)N3[H])c1Cl


 37 40  0  0  0  0  0  0  0  0999 V2000
   40.0596   13.3984  -15.0959 C   0  0  0  0  0  0  0  0  0  0  0  0
   40.4185   12.6386  -16.1188 N   0  0  0  0  0  0  0  0  0  0  0  0
   41.6684   12.3579  -16.5065 C   0  0  0  0  0  0  0  0  0  0  0  0
   42.6899   12.9115  -15.7723 C   0  0  0  0  0  0  0  0  0  0  0  0
   44.3675   12.6437  -16.1464 Cl  0  0  0  0  0  0  0  0  0  0  0  0
   42.3936   13.7227  -14.6809 C   0  0  0  0  0  0  0  0  0  0  0  0
   41.1102   13.9322  -14.3887 N   0  0  0  0  0  0  0  0  0  0  0  0
   38.7549   13.7116  -14.6640 N   0  0  0  0  0  0  0  0  0  0  0  0
   38.6884   14.5899  -14.0531 H   0  0  0  0  0  0  0  0  0  0  0  0
   35.2875   12.2954  -14.6281 C   0  0  0  0  0  0  0  0  0  0  0  0
   36.4184   13.0609  -14.2930 C   0  0  0  0  0  0  0  0  0  0  0  0
   37.5852   12.9904  -14.9554 C   0  0  0  0  0  0  0  0  0  0  0  0
   37.6492   12.0968  -16.0353 C   0  0  0  0  0  0  0  0  0  0  0  0
   36.5570   11.3429  -16.3763 C   0  0  0  0  0  0  0  0  0  0  0  0
   35.3566   11.4231  -15.6851 C   0  0  0  0  0  0  0  0  0  0  0  0
   33.6999   13.6860  -13.4734 C   0  0  0  0  0  0  0  0  0  0  0  0
   34.1063   12.4057  -13.9112 O   0  0  0  0  0  0  0  0  0  0  0  0
   36.6210   10.4652  -17.4377 O   0  0  0  0  0  0  0  0  0  0  0  0
   37.7023   10.5671  -18.3403 C   0  0  0  0  0  0  0  0  0  0  0  0
   34.2489   10.6587  -16.0305 O   0  0  0  0  0  0  0  0  0  0  0  0
   33.4804   11.0531  -17.1388 C   0  0  0  0  0  0  0  0  0  0  0  0
   43.4073   14.3127  -13.8979 N   0  0  0  0  0  0  0  0  0  0  0  0
   44.1392   14.9075  -14.3489 H   0  0  0  0  0  0  0  0  0  0  0  0
   43.4376   14.1013  -12.4959 C   0  0  0  0  0  0  0  0  0  0  0  0
   44.0244   12.9384  -11.9707 C   0  0  0  0  0  0  0  0  0  0  0  0
   44.0409   12.7572  -10.6070 C   0  0  0  0  0  0  0  0  0  0  0  0
   43.4985   13.6835   -9.7443 C   0  0  0  0  0  0  0  0  0  0  0  0
   43.5067   13.5164   -8.3689 O   0  0  0  0  0  0  0  0  0  0  0  0
   42.6480   14.2358   -7.5053 C   0  0  0  0  0  0  0  0  0  0  0  0
   43.3048   14.3871   -6.1375 C   0  0  0  0  0  0  0  0  0  0  0  0
   41.3306   13.5225   -7.4015 C   0  0  0  0  0  0  0  0  0  0  0  0
   42.3728   15.6132   -8.0024 C   0  0  0  0  0  0  0  0  0  0  0  0
   42.1661   16.5638   -7.1910 O   0  0  0  0  0  0  0  0  0  0  0  0
   42.3546   15.8015   -9.4094 N   0  0  0  0  0  0  0  0  0  0  0  0
   42.9238   14.8252  -10.2827 C   0  0  0  0  0  0  0  0  0  0  0  0
   42.9234   14.9727  -11.6171 N   0  0  0  0  0  0  0  0  0  0  0  0
   41.9245   16.6549   -9.8036 H   0  0  0  0  0  0  0  0  0  0  0  0
 16 17  1  0  0  0
 17 10  1  0  0  0
 10 11  2  0  0  0
 11 12  1  0  0  0
 12  8  1  0  0  0
  8  1  1  0  0  0
  1  2  2  0  0  0
  2  3  1  0  0  0
  3  4  2  0  0  0
  4  5  1  0  0  0
  4  6  1  0  0  0
  6 22  1  0  0  0
 22 24  1  0  0  0
 24 25  2  0  0  0
 25 26  1  0  0  0
 26 27  2  0  0  0
 27 28  1  0  0  0
 28 29  1  0  0  0
 29 30  1  0  0  0
 29 31  1  0  0  0
 29 32  1  0  0  0
 32 33  2  0  0  0
 32 34  1  0  0  0
 34 35  1  0  0  0
 35 36  2  0  0  0
  6  7  2  0  0  0
 12 13  2  0  0  0
 13 14  1  0  0  0
 14 18  1  0  0  0
 18 19  1  0  0  0
 14 15  2  0  0  0
 15 20  1  0  0  0
 20 21  1  0  0  0
 15 10  1  0  0  0
  7  1  1  0  0  0
 36 24  1  0  0  0
 35 27  1  0  0  0
  8  9  1  0  0  0
 22 23  1  0  0  0
 34 37  1  0  0  0
M  END
> <minimizedAffinity>
-7.82102

> <CNNscore>
0.0625887662

> <CNNaffinity>
6.4955506325

> <CNN_VS>
0.4065485001

> <CNNaffinity_variance>
0.0793979019

$$$$
[H]c1nc(N([H])c2c([H])c(OC([H])([H])[H])c(OC([H])([H])[H])c(OC([H])([H])[H])c2[H])nc(N([H])c2nc3c(c([H])c2[H])OC(C([H])([H])[H])(C([H])([H])[H])C(=O)N3[H])c1Cl


 37 40  0  0  0  0  0  0  0  0999 V2000
   40.8208   14.0214  -14.8075 C   0  0  0  0  0  0  0  0  0  0  0  0
   40.7423   13.3890  -15.9679 N   0  0  0  0  0  0  0  0  0  0  0  0
   41.7235   12.7140  -16.5787 C   0  0  0  0  0  0  0  0  0  0  0  0
   42.9408   12.6682  -15.9421 C   0  0  0  0  0  0  0  0  0  0  0  0
   44.3157   11.8326  -16.6038 Cl  0  0  0  0  0  0  0  0  0  0  0  0
   43.1032   13.3090  -14.7174 C   0  0  0  0  0  0  0  0  0  0  0  0
   42.0539   13.9512  -14.2047 N   0  0  0  0  0  0  0  0  0  0  0  0
   39.8072   14.7389  -14.1406 N   0  0  0  0  0  0  0  0  0  0  0  0
   40.0927   15.7237  -13.8281 H   0  0  0  0  0  0  0  0  0  0  0  0
   36.3994   14.2338  -12.6703 C   0  0  0  0  0  0  0  0  0  0  0  0
   37.6853   14.7506  -12.9087 C   0  0  0  0  0  0  0  0  0  0  0  0
   38.5088   14.2816  -13.8612 C   0  0  0  0  0  0  0  0  0  0  0  0
   38.0331   13.2193  -14.6449 C   0  0  0  0  0  0  0  0  0  0  0  0
   36.7827   12.7032  -14.4268 C   0  0  0  0  0  0  0  0  0  0  0  0
   35.9403   13.1948  -13.4399 C   0  0  0  0  0  0  0  0  0  0  0  0
   36.0676   14.7504  -10.3442 C   0  0  0  0  0  0  0  0  0  0  0  0
   35.5889   14.7541  -11.6734 O   0  0  0  0  0  0  0  0  0  0  0  0
   36.3164   11.6593  -15.1976 O   0  0  0  0  0  0  0  0  0  0  0  0
   36.1567   11.8579  -16.5865 C   0  0  0  0  0  0  0  0  0  0  0  0
   34.6723   12.6716  -13.2183 O   0  0  0  0  0  0  0  0  0  0  0  0
   33.5872   13.2213  -13.9217 C   0  0  0  0  0  0  0  0  0  0  0  0
   44.3327   13.2897  -14.0270 N   0  0  0  0  0  0  0  0  0  0  0  0
   45.1973   12.9475  -14.5048 H   0  0  0  0  0  0  0  0  0  0  0  0
   44.4008   13.7344  -12.6821 C   0  0  0  0  0  0  0  0  0  0  0  0
   45.1151   14.9000  -12.3602 C   0  0  0  0  0  0  0  0  0  0  0  0
   45.1658   15.3100  -11.0478 C   0  0  0  0  0  0  0  0  0  0  0  0
   44.5364   14.6097  -10.0429 C   0  0  0  0  0  0  0  0  0  0  0  0
   44.5776   15.0086   -8.7167 O   0  0  0  0  0  0  0  0  0  0  0  0
   44.2777   14.1354   -7.6450 C   0  0  0  0  0  0  0  0  0  0  0  0
   43.7372   14.9370   -6.4658 C   0  0  0  0  0  0  0  0  0  0  0  0
   45.5116   13.3692   -7.2636 C   0  0  0  0  0  0  0  0  0  0  0  0
   43.2273   13.1417   -8.0042 C   0  0  0  0  0  0  0  0  0  0  0  0
   42.4243   12.7047   -7.1273 O   0  0  0  0  0  0  0  0  0  0  0  0
   43.1744   12.7170   -9.3578 N   0  0  0  0  0  0  0  0  0  0  0  0
   43.8362   13.4612  -10.3814 C   0  0  0  0  0  0  0  0  0  0  0  0
   43.8055   13.0875  -11.6705 N   0  0  0  0  0  0  0  0  0  0  0  0
   42.6506   11.8600   -9.6027 H   0  0  0  0  0  0  0  0  0  0  0  0
 16 17  1  0  0  0
 17 10  1  0  0  0
 10 11  2  0  0  0
 11 12  1  0  0  0
 12  8  1  0  0  0
  8  1  1  0  0  0
  1  2  2  0  0  0
  2  3  1  0  0  0
  3  4  2  0  0  0
  4  5  1  0  0  0
  4  6  1  0  0  0
  6 22  1  0  0  0
 22 24  1  0  0  0
 24 25  2  0  0  0
 25 26  1  0  0  0
 26 27  2  0  0  0
 27 28  1  0  0  0
 28 29  1  0  0  0
 29 30  1  0  0  0
 29 31  1  0  0  0
 29 32  1  0  0  0
 32 33  2  0  0  0
 32 34  1  0  0  0
 34 35  1  0  0  0
 35 36  2  0  0  0
  6  7  2  0  0  0
 12 13  2  0  0  0
 13 14  1  0  0  0
 14 18  1  0  0  0
 18 19  1  0  0  0
 14 15  2  0  0  0
 15 20  1  0  0  0
 20 21  1  0  0  0
 15 10  1  0  0  0
  7  1  1  0  0  0
 36 24  1  0  0  0
 35 27  1  0  0  0
  8  9  1  0  0  0
 22 23  1  0  0  0
 34 37  1  0  0  0
M  END
> <minimizedAffinity>
-7.56880

> <CNNscore>
0.0507756583

> <CNNaffinity>
6.4138441086

> <CNN_VS>
0.3256671429

> <CNNaffinity_variance>
0.1018339619

$$$$
[H]C1=C2[C@]([H])(C([H])([H])C([H])([H])[H])C([H])([H])[C@]3([H])[C@]([H])(C([H])([H])C([H])([H])[C@]4(C([H])([H])[H])[C@@]([H])(C([H])([H])[H])C([H])([H])C([H])([H])C([H])([H])[C@@]34[H])[C@@]2(C([H])([H])[H])C([H])([H])C([H])([H])C1=O


 24 27  0  0  0  0  0  0  0  0999 V2000
   37.1462   11.7947  -15.8571 C   0  0  0  0  0  0  0  0  0  0  0  0
   36.2985   13.0303  -15.5860 C   0  0  0  0  0  0  0  0  0  0  0  0
   36.7875   13.8428  -14.4393 C   0  0  0  0  0  0  0  0  0  0  0  0
   35.8883   13.8091  -13.2262 C   0  0  0  0  0  0  0  0  0  0  0  0
   34.4477   13.9284  -13.5550 C   0  0  0  0  0  0  0  0  0  0  0  0
   33.6511   14.8018  -12.6546 C   0  0  0  0  0  0  0  0  0  0  0  0
   34.1034   14.6154  -11.2471 C   0  0  0  0  0  0  0  0  0  0  0  0
   35.5376   14.9518  -11.0165 C   0  0  0  0  0  0  0  0  0  0  0  0
   35.6170   16.2978  -10.3549 C   0  0  0  0  0  0  0  0  0  0  0  0
   36.3934   14.8526  -12.2598 C   0  0  0  0  0  0  0  0  0  0  0  0
   36.5454   16.2064  -12.9479 C   0  0  0  0  0  0  0  0  0  0  0  0
   37.7797   14.4651  -11.7870 C   0  0  0  0  0  0  0  0  0  0  0  0
   38.7313   14.1766  -12.9027 C   0  0  0  0  0  0  0  0  0  0  0  0
   38.1480   13.3513  -13.9972 C   0  0  0  0  0  0  0  0  0  0  0  0
   39.0691   13.2802  -15.1756 C   0  0  0  0  0  0  0  0  0  0  0  0
   39.0840   14.5710  -15.9664 C   0  0  0  0  0  0  0  0  0  0  0  0
   40.4500   12.9204  -14.6848 C   0  0  0  0  0  0  0  0  0  0  0  0
   41.4198   12.7279  -15.8318 C   0  0  0  0  0  0  0  0  0  0  0  0
   40.7371   12.1009  -17.0045 C   0  0  0  0  0  0  0  0  0  0  0  0
   41.3732   11.9928  -18.0620 O   0  0  0  0  0  0  0  0  0  0  0  0
   39.3631   11.6270  -16.9164 C   0  0  0  0  0  0  0  0  0  0  0  0
   38.5583   12.1762  -16.0517 C   0  0  0  0  0  0  0  0  0  0  0  0
   35.0844   10.8586  -16.8606 C   0  0  0  0  0  0  0  0  0  0  0  0
   36.5601   11.1334  -17.0942 C   0  0  0  0  0  0  0  0  0  0  0  0
 23 24  1  0  0  0
 24  1  1  0  0  0
  1  2  1  0  0  0
  2  3  1  0  0  0
  3  4  1  0  0  0
  4  5  1  0  0  0
  5  6  1  0  0  0
  6  7  1  0  0  0
  7  8  1  0  0  0
  8  9  1  0  0  0
  8 10  1  0  0  0
 10 11  1  0  0  0
 10 12  1  0  0  0
 12 13  1  0  0  0
 13 14  1  0  0  0
 14 15  1  0  0  0
 15 16  1  0  0  0
 15 17  1  0  0  0
 17 18  1  0  0  0
 18 19  1  0  0  0
 19 20  2  0  0  0
 19 21  1  0  0  0
 21 22  2  0  0  0
 22  1  1  0  0  0
 14  3  1  0  0  0
 22 15  1  0  0  0
 10  4  1  0  0  0
M  END
> <minimizedAffinity>
-6.21323

> <CNNscore>
0.4036110342

> <CNNaffinity>
6.5076971054

> <CNN_VS>
2.6265783310

> <CNNaffinity_variance>
0.1989916861

$$$$
[H]C1=C2[C@]([H])(C([H])([H])C([H])([H])[H])C([H])([H])[C@]3([H])[C@]([H])(C([H])([H])C([H])([H])[C@]4(C([H])([H])[H])[C@@]([H])(C([H])([H])[H])C([H])([H])C([H])([H])C([H])([H])[C@@]34[H])[C@@]2(C([H])([H])[H])C([H])([H])C([H])([H])C1=O


 24 27  0  0  0  0  0  0  0  0999 V2000
   44.6736   12.3618  -10.5380 C   0  0  0  0  0  0  0  0  0  0  0  0
   44.9467   13.4997   -9.5635 C   0  0  0  0  0  0  0  0  0  0  0  0
   45.3191   13.0339   -8.2002 C   0  0  0  0  0  0  0  0  0  0  0  0
   44.2730   13.3033   -7.1447 C   0  0  0  0  0  0  0  0  0  0  0  0
   43.6709   14.6546   -7.2408 C   0  0  0  0  0  0  0  0  0  0  0  0
   43.4542   15.3572   -5.9494 C   0  0  0  0  0  0  0  0  0  0  0  0
   42.9918   14.3832   -4.9208 C   0  0  0  0  0  0  0  0  0  0  0  0
   43.9528   13.2749   -4.6530 C   0  0  0  0  0  0  0  0  0  0  0  0
   44.6704   13.5596   -3.3647 C   0  0  0  0  0  0  0  0  0  0  0  0
   44.8931   12.9935   -5.8040 C   0  0  0  0  0  0  0  0  0  0  0  0
   46.2230   13.7230   -5.6355 C   0  0  0  0  0  0  0  0  0  0  0  0
   45.2146   11.5146   -5.7330 C   0  0  0  0  0  0  0  0  0  0  0  0
   46.0227   11.0238   -6.8905 C   0  0  0  0  0  0  0  0  0  0  0  0
   45.5654   11.5415   -8.2104 C   0  0  0  0  0  0  0  0  0  0  0  0
   46.5357   11.1950   -9.2970 C   0  0  0  0  0  0  0  0  0  0  0  0
   47.7858   12.0467   -9.2380 C   0  0  0  0  0  0  0  0  0  0  0  0
   46.8661    9.7261   -9.1954 C   0  0  0  0  0  0  0  0  0  0  0  0
   47.7654    9.2745  -10.3269 C   0  0  0  0  0  0  0  0  0  0  0  0
   47.4239    9.9901  -11.5941 C   0  0  0  0  0  0  0  0  0  0  0  0
   48.1545    9.8151  -12.5791 O   0  0  0  0  0  0  0  0  0  0  0  0
   46.2670   10.8701  -11.6785 C   0  0  0  0  0  0  0  0  0  0  0  0
   45.8319   11.4494  -10.5959 C   0  0  0  0  0  0  0  0  0  0  0  0
   43.5146   14.2311  -11.6768 C   0  0  0  0  0  0  0  0  0  0  0  0
   44.3902   13.0072  -11.8849 C   0  0  0  0  0  0  0  0  0  0  0  0
 23 24  1  0  0  0
 24  1  1  0  0  0
  1  2  1  0  0  0
  2  3  1  0  0  0
  3  4  1  0  0  0
  4  5  1  0  0  0
  5  6  1  0  0  0
  6  7  1  0  0  0
  7  8  1  0  0  0
  8  9  1  0  0  0
  8 10  1  0  0  0
 10 11  1  0  0  0
 10 12  1  0  0  0
 12 13  1  0  0  0
 13 14  1  0  0  0
 14 15  1  0  0  0
 15 16  1  0  0  0
 15 17  1  0  0  0
 17 18  1  0  0  0
 18 19  1  0  0  0
 19 20  2  0  0  0
 19 21  1  0  0  0
 21 22  2  0  0  0
 22  1  1  0  0  0
 14  3  1  0  0  0
 22 15  1  0  0  0
 10  4  1  0  0  0
M  END
> <minimizedAffinity>
-5.19023

> <CNNscore>
0.3979535997

> <CNNaffinity>
5.0621299744

> <CNN_VS>
2.0144927502

> <CNNaffinity_variance>
0.0225850735

$$$$
[H]C1=C2[C@]([H])(C([H])([H])C([H])([H])[H])C([H])([H])[C@]3([H])[C@]([H])(C([H])([H])C([H])([H])[C@]4(C([H])([H])[H])[C@@]([H])(C([H])([H])[H])C([H])([H])C([H])([H])C([H])([H])[C@@]34[H])[C@@]2(C([H])([H])[H])C([H])([H])C([H])([H])C1=O


 24 27  0  0  0  0  0  0  0  0999 V2000
   37.9861   11.7818  -17.1460 C   0  0  0  0  0  0  0  0  0  0  0  0
   39.2958   11.2706  -16.5608 C   0  0  0  0  0  0  0  0  0  0  0  0
   39.9534   12.2422  -15.6455 C   0  0  0  0  0  0  0  0  0  0  0  0
   41.2302   12.8397  -16.1876 C   0  0  0  0  0  0  0  0  0  0  0  0
   42.1141   11.8479  -16.8455 C   0  0  0  0  0  0  0  0  0  0  0  0
   43.5652   11.9861  -16.5571 C   0  0  0  0  0  0  0  0  0  0  0  0
   43.9319   13.4297  -16.5133 C   0  0  0  0  0  0  0  0  0  0  0  0
   43.2084   14.2126  -15.4707 C   0  0  0  0  0  0  0  0  0  0  0  0
   44.1330   14.4386  -14.3090 C   0  0  0  0  0  0  0  0  0  0  0  0
   41.8843   13.6052  -15.0633 C   0  0  0  0  0  0  0  0  0  0  0  0
   42.0243   12.7338  -13.8181 C   0  0  0  0  0  0  0  0  0  0  0  0
   40.9939   14.7646  -14.6652 C   0  0  0  0  0  0  0  0  0  0  0  0
   39.5855   14.3609  -14.3703 C   0  0  0  0  0  0  0  0  0  0  0  0
   39.0165   13.3919  -15.3482 C   0  0  0  0  0  0  0  0  0  0  0  0
   37.6951   12.8622  -14.8840 C   0  0  0  0  0  0  0  0  0  0  0  0
   37.8460   11.8568  -13.7622 C   0  0  0  0  0  0  0  0  0  0  0  0
   36.8310   14.0266  -14.4658 C   0  0  0  0  0  0  0  0  0  0  0  0
   35.4369   13.5794  -14.0791 C   0  0  0  0  0  0  0  0  0  0  0  0
   34.9860   12.4437  -14.9402 C   0  0  0  0  0  0  0  0  0  0  0  0
   33.9132   11.8899  -14.6626 O   0  0  0  0  0  0  0  0  0  0  0  0
   35.7783   11.9935  -16.0759 C   0  0  0  0  0  0  0  0  0  0  0  0
   37.0666   12.1859  -16.0650 C   0  0  0  0  0  0  0  0  0  0  0  0
   38.0979   10.6389  -19.3405 C   0  0  0  0  0  0  0  0  0  0  0  0
   37.4166   10.6474  -17.9827 C   0  0  0  0  0  0  0  0  0  0  0  0
 23 24  1  0  0  0
 24  1  1  0  0  0
  1  2  1  0  0  0
  2  3  1  0  0  0
  3  4  1  0  0  0
  4  5  1  0  0  0
  5  6  1  0  0  0
  6  7  1  0  0  0
  7  8  1  0  0  0
  8  9  1  0  0  0
  8 10  1  0  0  0
 10 11  1  0  0  0
 10 12  1  0  0  0
 12 13  1  0  0  0
 13 14  1  0  0  0
 14 15  1  0  0  0
 15 16  1  0  0  0
 15 17  1  0  0  0
 17 18  1  0  0  0
 18 19  1  0  0  0
 19 20  2  0  0  0
 19 21  1  0  0  0
 21 22  2  0  0  0
 22  1  1  0  0  0
 14  3  1  0  0  0
 22 15  1  0  0  0
 10  4  1  0  0  0
M  END
> <minimizedAffinity>
-6.60611

> <CNNscore>
0.3442274332

> <CNNaffinity>
6.5836210251

> <CNN_VS>
2.2662630081

> <CNNaffinity_variance>
0.2432688475

$$$$
[H]C1=C2[C@]([H])(C([H])([H])C([H])([H])[H])C([H])([H])[C@]3([H])[C@]([H])(C([H])([H])C([H])([H])[C@]4(C([H])([H])[H])[C@@]([H])(C([H])([H])[H])C([H])([H])C([H])([H])C([H])([H])[C@@]34[H])[C@@]2(C([H])([H])[H])C([H])([H])C([H])([H])C1=O


 24 27  0  0  0  0  0  0  0  0999 V2000
   36.4256   16.3005   -7.4290 C   0  0  0  0  0  0  0  0  0  0  0  0
   37.4548   15.6195   -8.3212 C   0  0  0  0  0  0  0  0  0  0  0  0
   38.5878   15.0199   -7.5656 C   0  0  0  0  0  0  0  0  0  0  0  0
   39.9077   15.7280   -7.7600 C   0  0  0  0  0  0  0  0  0  0  0  0
   40.1761   16.1013   -9.1694 C   0  0  0  0  0  0  0  0  0  0  0  0
   41.5697   15.8874   -9.6387 C   0  0  0  0  0  0  0  0  0  0  0  0
   42.5248   16.2507   -8.5542 C   0  0  0  0  0  0  0  0  0  0  0  0
   42.3630   15.4527   -7.3049 C   0  0  0  0  0  0  0  0  0  0  0  0
   43.4473   14.4149   -7.2518 C   0  0  0  0  0  0  0  0  0  0  0  0
   40.9780   14.8705   -7.1299 C   0  0  0  0  0  0  0  0  0  0  0  0
   40.9015   13.4356   -7.6443 C   0  0  0  0  0  0  0  0  0  0  0  0
   40.7395   14.7930   -5.6357 C   0  0  0  0  0  0  0  0  0  0  0  0
   39.3513   14.3738   -5.2743 C   0  0  0  0  0  0  0  0  0  0  0  0
   38.2896   15.0358   -6.0828 C   0  0  0  0  0  0  0  0  0  0  0  0
   36.9484   14.4206   -5.8286 C   0  0  0  0  0  0  0  0  0  0  0  0
   36.8067   13.0674   -6.4925 C   0  0  0  0  0  0  0  0  0  0  0  0
   36.7383   14.3257   -4.3372 C   0  0  0  0  0  0  0  0  0  0  0  0
   35.3569   13.8065   -3.9978 C   0  0  0  0  0  0  0  0  0  0  0  0
   34.3450   14.3122   -4.9750 C   0  0  0  0  0  0  0  0  0  0  0  0
   33.1889   13.8739   -4.8986 O   0  0  0  0  0  0  0  0  0  0  0  0
   34.6984   15.2927   -5.9918 C   0  0  0  0  0  0  0  0  0  0  0  0
   35.9313   15.3577   -6.4072 C   0  0  0  0  0  0  0  0  0  0  0  0
   35.5921   16.3066   -9.7613 C   0  0  0  0  0  0  0  0  0  0  0  0
   35.3120   16.7811   -8.3455 C   0  0  0  0  0  0  0  0  0  0  0  0
 23 24  1  0  0  0
 24  1  1  0  0  0
  1  2  1  0  0  0
  2  3  1  0  0  0
  3  4  1  0  0  0
  4  5  1  0  0  0
  5  6  1  0  0  0
  6  7  1  0  0  0
  7  8  1  0  0  0
  8  9  1  0  0  0
  8 10  1  0  0  0
 10 11  1  0  0  0
 10 12  1  0  0  0
 12 13  1  0  0  0
 13 14  1  0  0  0
 14 15  1  0  0  0
 15 16  1  0  0  0
 15 17  1  0  0  0
 17 18  1  0  0  0
 18 19  1  0  0  0
 19 20  2  0  0  0
 19 21  1  0  0  0
 21 22  2  0  0  0
 22  1  1  0  0  0
 14  3  1  0  0  0
 22 15  1  0  0  0
 10  4  1  0  0  0
M  END
> <minimizedAffinity>
-5.84377

> <CNNscore>
0.3360510767

> <CNNaffinity>
5.3095045090

> <CNN_VS>
1.7842646837

> <CNNaffinity_variance>
0.0440555662

$$$$
[H]C1=C2[C@]([H])(C([H])([H])C([H])([H])[H])C([H])([H])[C@]3([H])[C@]([H])(C([H])([H])C([H])([H])[C@]4(C([H])([H])[H])[C@@]([H])(C([H])([H])[H])C([H])([H])C([H])([H])C([H])([H])[C@@]34[H])[C@@]2(C([H])([H])[H])C([H])([H])C([H])([H])C1=O


 24 27  0  0  0  0  0  0  0  0999 V2000
   37.6543   14.0254  -12.8364 C   0  0  0  0  0  0  0  0  0  0  0  0
   38.1620   14.1712  -14.2647 C   0  0  0  0  0  0  0  0  0  0  0  0
   37.4801   13.2666  -15.2297 C   0  0  0  0  0  0  0  0  0  0  0  0
   38.3548   12.1586  -15.7666 C   0  0  0  0  0  0  0  0  0  0  0  0
   39.7198   12.6075  -16.1315 C   0  0  0  0  0  0  0  0  0  0  0  0
   40.2673   12.0457  -17.3935 C   0  0  0  0  0  0  0  0  0  0  0  0
   39.8723   10.6143  -17.5175 C   0  0  0  0  0  0  0  0  0  0  0  0
   38.3988   10.3876  -17.5479 C   0  0  0  0  0  0  0  0  0  0  0  0
   37.9803   10.1256  -18.9663 C   0  0  0  0  0  0  0  0  0  0  0  0
   37.5998   11.4904  -16.8897 C   0  0  0  0  0  0  0  0  0  0  0  0
   37.1133   12.5178  -17.9081 C   0  0  0  0  0  0  0  0  0  0  0  0
   36.3545   10.8323  -16.3311 C   0  0  0  0  0  0  0  0  0  0  0  0
   35.5101   11.7533  -15.5111 C   0  0  0  0  0  0  0  0  0  0  0  0
   36.2862   12.6107  -14.5722 C   0  0  0  0  0  0  0  0  0  0  0  0
   35.4167   13.6547  -13.9428 C   0  0  0  0  0  0  0  0  0  0  0  0
   35.0791   14.7723  -14.9066 C   0  0  0  0  0  0  0  0  0  0  0  0
   34.1696   12.9875  -13.4164 C   0  0  0  0  0  0  0  0  0  0  0  0
   33.2835   13.9640  -12.6719 C   0  0  0  0  0  0  0  0  0  0  0  0
   34.1061   14.9589  -11.9182 C   0  0  0  0  0  0  0  0  0  0  0  0
   33.5212   15.8966  -11.3586 O   0  0  0  0  0  0  0  0  0  0  0  0
   35.5549   14.8378  -11.8379 C   0  0  0  0  0  0  0  0  0  0  0  0
   36.1923   14.2200  -12.7913 C   0  0  0  0  0  0  0  0  0  0  0  0
   39.6972   15.4194  -12.7018 C   0  0  0  0  0  0  0  0  0  0  0  0
   38.3923   15.0656  -12.0090 C   0  0  0  0  0  0  0  0  0  0  0  0
 23 24  1  0  0  0
 24  1  1  0  0  0
  1  2  1  0  0  0
  2  3  1  0  0  0
  3  4  1  0  0  0
  4  5  1  0  0  0
  5  6  1  0  0  0
  6  7  1  0  0  0
  7  8  1  0  0  0
  8  9  1  0  0  0
  8 10  1  0  0  0
 10 11  1  0  0  0
 10 12  1  0  0  0
 12 13  1  0  0  0
 13 14  1  0  0  0
 14 15  1  0  0  0
 15 16  1  0  0  0
 15 17  1  0  0  0
 17 18  1  0  0  0
 18 19  1  0  0  0
 19 20  2  0  0  0
 19 21  1  0  0  0
 21 22  2  0  0  0
 22  1  1  0  0  0
 14  3  1  0  0  0
 22 15  1  0  0  0
 10  4  1  0  0  0
M  END
> <minimizedAffinity>
-5.21895

> <CNNscore>
0.3343466222

> <CNNaffinity>
6.4879531860

> <CNN_VS>
2.1692252159

> <CNNaffinity_variance>
0.1910258830

$$$$
[H]C1=C2[C@]([H])(C([H])([H])C([H])([H])[H])C([H])([H])[C@]3([H])[C@]([H])(C([H])([H])C([H])([H])[C@]4(C([H])([H])[H])[C@@]([H])(C([H])([H])[H])C([H])([H])C([H])([H])C([H])([H])[C@@]34[H])[C@@]2(C([H])([H])[H])C([H])([H])C([H])([H])C1=O


 24 27  0  0  0  0  0  0  0  0999 V2000
   41.8376   13.7255   -7.8879 C   0  0  0  0  0  0  0  0  0  0  0  0
   41.8941   13.4142   -6.3982 C   0  0  0  0  0  0  0  0  0  0  0  0
   43.0895   12.6200   -6.0053 C   0  0  0  0  0  0  0  0  0  0  0  0
   42.7823   11.2021   -5.5853 C   0  0  0  0  0  0  0  0  0  0  0  0
   41.5950   11.0907   -4.7045 C   0  0  0  0  0  0  0  0  0  0  0  0
   41.7240   10.1455   -3.5652 C   0  0  0  0  0  0  0  0  0  0  0  0
   42.4704    8.9324   -4.0028 C   0  0  0  0  0  0  0  0  0  0  0  0
   43.8514    9.2083   -4.4928 C   0  0  0  0  0  0  0  0  0  0  0  0
   44.8292    8.8314   -3.4170 C   0  0  0  0  0  0  0  0  0  0  0  0
   44.0461   10.6197   -5.0009 C   0  0  0  0  0  0  0  0  0  0  0  0
   44.6197   11.5326   -3.9207 C   0  0  0  0  0  0  0  0  0  0  0  0
   45.1033   10.5356   -6.0830 C   0  0  0  0  0  0  0  0  0  0  0  0
   45.3208   11.8256   -6.8056 C   0  0  0  0  0  0  0  0  0  0  0  0
   44.0627   12.5399   -7.1605 C   0  0  0  0  0  0  0  0  0  0  0  0
   44.3456   13.9149   -7.6815 C   0  0  0  0  0  0  0  0  0  0  0  0
   44.7436   14.8720   -6.5783 C   0  0  0  0  0  0  0  0  0  0  0  0
   45.4189   13.8168   -8.7378 C   0  0  0  0  0  0  0  0  0  0  0  0
   45.6890   15.1573   -9.3883 C   0  0  0  0  0  0  0  0  0  0  0  0
   44.4268   15.9471   -9.5203 C   0  0  0  0  0  0  0  0  0  0  0  0
   44.5080   17.1156   -9.9234 O   0  0  0  0  0  0  0  0  0  0  0  0
   43.1329   15.3681   -9.1873 C   0  0  0  0  0  0  0  0  0  0  0  0
   43.0775   14.4010   -8.3163 C   0  0  0  0  0  0  0  0  0  0  0  0
   39.4390   14.0055   -7.3374 C   0  0  0  0  0  0  0  0  0  0  0  0
   40.6117   14.5996   -8.0988 C   0  0  0  0  0  0  0  0  0  0  0  0
 23 24  1  0  0  0
 24  1  1  0  0  0
  1  2  1  0  0  0
  2  3  1  0  0  0
  3  4  1  0  0  0
  4  5  1  0  0  0
  5  6  1  0  0  0
  6  7  1  0  0  0
  7  8  1  0  0  0
  8  9  1  0  0  0
  8 10  1  0  0  0
 10 11  1  0  0  0
 10 12  1  0  0  0
 12 13  1  0  0  0
 13 14  1  0  0  0
 14 15  1  0  0  0
 15 16  1  0  0  0
 15 17  1  0  0  0
 17 18  1  0  0  0
 18 19  1  0  0  0
 19 20  2  0  0  0
 19 21  1  0  0  0
 21 22  2  0  0  0
 22  1  1  0  0  0
 14  3  1  0  0  0
 22 15  1  0  0  0
 10  4  1  0  0  0
M  END
> <minimizedAffinity>
-5.63841

> <CNNscore>
0.3291924298

> <CNNaffinity>
5.0787658691

> <CNN_VS>
1.6718913317

> <CNNaffinity_variance>
0.0138178673

$$$$
[H]C1=C2[C@]([H])(C([H])([H])C([H])([H])[H])C([H])([H])[C@]3([H])[C@]([H])(C([H])([H])C([H])([H])[C@]4(C([H])([H])[H])[C@@]([H])(C([H])([H])[H])C([H])([H])C([H])([H])C([H])([H])[C@@]34[H])[C@@]2(C([H])([H])[H])C([H])([H])C([H])([H])C1=O


 24 27  0  0  0  0  0  0  0  0999 V2000
   39.3457   11.2737  -16.5070 C   0  0  0  0  0  0  0  0  0  0  0  0
   38.0165   11.9501  -16.8148 C   0  0  0  0  0  0  0  0  0  0  0  0
   37.4598   12.7108  -15.6634 C   0  0  0  0  0  0  0  0  0  0  0  0
   36.2188   12.0996  -15.0571 C   0  0  0  0  0  0  0  0  0  0  0  0
   35.2444   11.6178  -16.0652 C   0  0  0  0  0  0  0  0  0  0  0  0
   33.8162   11.9013  -15.7683 C   0  0  0  0  0  0  0  0  0  0  0  0
   33.5628   11.7233  -14.3107 C   0  0  0  0  0  0  0  0  0  0  0  0
   34.3715   12.6200  -13.4359 C   0  0  0  0  0  0  0  0  0  0  0  0
   33.4979   13.7447  -12.9591 C   0  0  0  0  0  0  0  0  0  0  0  0
   35.6552   13.0991  -14.0766 C   0  0  0  0  0  0  0  0  0  0  0  0
   35.4816   14.4673  -14.7301 C   0  0  0  0  0  0  0  0  0  0  0  0
   36.6423   13.2979  -12.9444 C   0  0  0  0  0  0  0  0  0  0  0  0
   38.0228   13.6327  -13.4087 C   0  0  0  0  0  0  0  0  0  0  0  0
   38.4897   12.8110  -14.5602 C   0  0  0  0  0  0  0  0  0  0  0  0
   39.7783   13.3340  -15.1153 C   0  0  0  0  0  0  0  0  0  0  0  0
   39.5802   14.6015  -15.9191 C   0  0  0  0  0  0  0  0  0  0  0  0
   40.7400   13.5522  -13.9731 C   0  0  0  0  0  0  0  0  0  0  0  0
   42.1053   13.9847  -14.4649 C   0  0  0  0  0  0  0  0  0  0  0  0
   42.4448   13.3061  -15.7528 C   0  0  0  0  0  0  0  0  0  0  0  0
   43.4789   13.6521  -16.3408 O   0  0  0  0  0  0  0  0  0  0  0  0
   41.5907   12.2663  -16.3090 C   0  0  0  0  0  0  0  0  0  0  0  0
   40.3217   12.2649  -16.0148 C   0  0  0  0  0  0  0  0  0  0  0  0
   38.6220   10.5024  -18.7466 C   0  0  0  0  0  0  0  0  0  0  0  0
   39.8041   10.6174  -17.7994 C   0  0  0  0  0  0  0  0  0  0  0  0
 23 24  1  0  0  0
 24  1  1  0  0  0
  1  2  1  0  0  0
  2  3  1  0  0  0
  3  4  1  0  0  0
  4  5  1  0  0  0
  5  6  1  0  0  0
  6  7  1  0  0  0
  7  8  1  0  0  0
  8  9  1  0  0  0
  8 10  1  0  0  0
 10 11  1  0  0  0
 10 12  1  0  0  0
 12 13  1  0  0  0
 13 14  1  0  0  0
 14 15  1  0  0  0
 15 16  1  0  0  0
 15 17  1  0  0  0
 17 18  1  0  0  0
 18 19  1  0  0  0
 19 20  2  0  0  0
 19 21  1  0  0  0
 21 22  2  0  0  0
 22  1  1  0  0  0
 14  3  1  0  0  0
 22 15  1  0  0  0
 10  4  1  0  0  0
M  END
> <minimizedAffinity>
-7.70313

> <CNNscore>
0.3216601610

> <CNNaffinity>
6.7582521439

> <CNN_VS>
2.1738605499

> <CNNaffinity_variance>
0.2048221529

$$$$
[H]C1=C2[C@]([H])(C([H])([H])C([H])([H])[H])C([H])([H])[C@]3([H])[C@]([H])(C([H])([H])C([H])([H])[C@]4(C([H])([H])[H])[C@@]([H])(C([H])([H])[H])C([H])([H])C([H])([H])C([H])([H])[C@@]34[H])[C@@]2(C([H])([H])[H])C([H])([H])C([H])([H])C1=O


 24 27  0  0  0  0  0  0  0  0999 V2000
   36.7557   12.4613  -13.4323 C   0  0  0  0  0  0  0  0  0  0  0  0
   37.7012   13.5912  -13.8175 C   0  0  0  0  0  0  0  0  0  0  0  0
   38.6353   13.2309  -14.9185 C   0  0  0  0  0  0  0  0  0  0  0  0
   40.0777   13.0986  -14.4907 C   0  0  0  0  0  0  0  0  0  0  0  0
   40.5222   14.1728  -13.5707 C   0  0  0  0  0  0  0  0  0  0  0  0
   41.8810   14.7179  -13.8249 C   0  0  0  0  0  0  0  0  0  0  0  0
   42.8004   13.6111  -14.2121 C   0  0  0  0  0  0  0  0  0  0  0  0
   42.3911   12.8801  -15.4457 C   0  0  0  0  0  0  0  0  0  0  0  0
   43.2481   13.3446  -16.5882 C   0  0  0  0  0  0  0  0  0  0  0  0
   40.9106   12.9689  -15.7426 C   0  0  0  0  0  0  0  0  0  0  0  0
   40.6001   14.0954  -16.7244 C   0  0  0  0  0  0  0  0  0  0  0  0
   40.5457   11.6815  -16.4532 C   0  0  0  0  0  0  0  0  0  0  0  0
   39.0788   11.5292  -16.6955 C   0  0  0  0  0  0  0  0  0  0  0  0
   38.2307   11.9084  -15.5310 C   0  0  0  0  0  0  0  0  0  0  0  0
   36.7805   11.9438  -15.9022 C   0  0  0  0  0  0  0  0  0  0  0  0
   36.4336   13.1624  -16.7307 C   0  0  0  0  0  0  0  0  0  0  0  0
   36.4403   10.6677  -16.6323 C   0  0  0  0  0  0  0  0  0  0  0  0
   34.9626   10.5820  -16.9520 C   0  0  0  0  0  0  0  0  0  0  0  0
   34.1464   11.1845  -15.8542 C   0  0  0  0  0  0  0  0  0  0  0  0
   32.9252   11.2978  -16.0286 O   0  0  0  0  0  0  0  0  0  0  0  0
   34.7600   11.6288  -14.6107 C   0  0  0  0  0  0  0  0  0  0  0  0
   36.0111   11.9918  -14.6166 C   0  0  0  0  0  0  0  0  0  0  0  0
   35.8127   14.5358  -12.4620 C   0  0  0  0  0  0  0  0  0  0  0  0
   35.8304   13.0199  -12.3633 C   0  0  0  0  0  0  0  0  0  0  0  0
 23 24  1  0  0  0
 24  1  1  0  0  0
  1  2  1  0  0  0
  2  3  1  0  0  0
  3  4  1  0  0  0
  4  5  1  0  0  0
  5  6  1  0  0  0
  6  7  1  0  0  0
  7  8  1  0  0  0
  8  9  1  0  0  0
  8 10  1  0  0  0
 10 11  1  0  0  0
 10 12  1  0  0  0
 12 13  1  0  0  0
 13 14  1  0  0  0
 14 15  1  0  0  0
 15 16  1  0  0  0
 15 17  1  0  0  0
 17 18  1  0  0  0
 18 19  1  0  0  0
 19 20  2  0  0  0
 19 21  1  0  0  0
 21 22  2  0  0  0
 22  1  1  0  0  0
 14  3  1  0  0  0
 22 15  1  0  0  0
 10  4  1  0  0  0
M  END
> <minimizedAffinity>
-6.91519

> <CNNscore>
0.3199115098

> <CNNaffinity>
6.7752771378

> <CNN_VS>
2.1674890518

> <CNNaffinity_variance>
0.2539794445

$$$$
[H]C1=C2[C@]([H])(C([H])([H])C([H])([H])[H])C([H])([H])[C@]3([H])[C@]([H])(C([H])([H])C([H])([H])[C@]4(C([H])([H])[H])[C@@]([H])(C([H])([H])[H])C([H])([H])C([H])([H])C([H])([H])[C@@]34[H])[C@@]2(C([H])([H])[H])C([H])([H])C([H])([H])C1=O


 24 27  0  0  0  0  0  0  0  0999 V2000
   42.9088   14.9167   -9.2978 C   0  0  0  0  0  0  0  0  0  0  0  0
   43.2510   13.4451   -9.1075 C   0  0  0  0  0  0  0  0  0  0  0  0
   43.2456   13.0164   -7.6825 C   0  0  0  0  0  0  0  0  0  0  0  0
   44.6120   12.6929   -7.1263 C   0  0  0  0  0  0  0  0  0  0  0  0
   45.4546   11.8995   -8.0529 C   0  0  0  0  0  0  0  0  0  0  0  0
   46.2439   10.8055   -7.4298 C   0  0  0  0  0  0  0  0  0  0  0  0
   46.7701   11.2562   -6.1106 C   0  0  0  0  0  0  0  0  0  0  0  0
   45.7140   11.6387   -5.1298 C   0  0  0  0  0  0  0  0  0  0  0  0
   45.5483   10.5219   -4.1394 C   0  0  0  0  0  0  0  0  0  0  0  0
   44.4103   12.0577   -5.7721 C   0  0  0  0  0  0  0  0  0  0  0  0
   43.4246   10.8955   -5.8552 C   0  0  0  0  0  0  0  0  0  0  0  0
   43.7853   13.0706   -4.8344 C   0  0  0  0  0  0  0  0  0  0  0  0
   42.5501   13.7084   -5.3830 C   0  0  0  0  0  0  0  0  0  0  0  0
   42.6597   14.1074   -6.8140 C   0  0  0  0  0  0  0  0  0  0  0  0
   41.3340   14.5355   -7.3630 C   0  0  0  0  0  0  0  0  0  0  0  0
   40.4147   13.3596   -7.6156 C   0  0  0  0  0  0  0  0  0  0  0  0
   40.7133   15.5224   -6.4047 C   0  0  0  0  0  0  0  0  0  0  0  0
   39.4126   16.0821   -6.9411 C   0  0  0  0  0  0  0  0  0  0  0  0
   39.4811   16.2554   -8.4243 C   0  0  0  0  0  0  0  0  0  0  0  0
   38.4488   16.5901   -9.0218 O   0  0  0  0  0  0  0  0  0  0  0  0
   40.7216   16.0395   -9.1554 C   0  0  0  0  0  0  0  0  0  0  0  0
   41.6127   15.2262   -8.6640 C   0  0  0  0  0  0  0  0  0  0  0  0
   43.6025   14.0252  -11.5019 C   0  0  0  0  0  0  0  0  0  0  0  0
   42.8812   15.1618  -10.7979 C   0  0  0  0  0  0  0  0  0  0  0  0
 23 24  1  0  0  0
 24  1  1  0  0  0
  1  2  1  0  0  0
  2  3  1  0  0  0
  3  4  1  0  0  0
  4  5  1  0  0  0
  5  6  1  0  0  0
  6  7  1  0  0  0
  7  8  1  0  0  0
  8  9  1  0  0  0
  8 10  1  0  0  0
 10 11  1  0  0  0
 10 12  1  0  0  0
 12 13  1  0  0  0
 13 14  1  0  0  0
 14 15  1  0  0  0
 15 16  1  0  0  0
 15 17  1  0  0  0
 17 18  1  0  0  0
 18 19  1  0  0  0
 19 20  2  0  0  0
 19 21  1  0  0  0
 21 22  2  0  0  0
 22  1  1  0  0  0
 14  3  1  0  0  0
 22 15  1  0  0  0
 10  4  1  0  0  0
M  END
> <minimizedAffinity>
-5.01519

> <CNNscore>
0.2992943227

> <CNNaffinity>
5.0740957260

> <CNN_VS>
1.5186480284

> <CNNaffinity_variance>
0.2961114645

$$$$
[H]c1nc(C([H])([H])[H])oc1-c1c(N([H])[H])nc([H])c(-c2c([H])c(C(=O)N([H])c3c([H])c([H])c([H])c(C(=O)N([H])[H])c3[H])c([H])c([H])c2C([H])([H])[H])c1[H]


 37 40  0  0  0  0  0  0  0  0999 V2000
   37.7461   11.8567  -16.2208 C   0  0  0  0  0  0  0  0  0  0  0  0
   37.0427   12.3243  -15.1108 C   0  0  0  0  0  0  0  0  0  0  0  0
   35.7070   12.1362  -14.9531 C   0  0  0  0  0  0  0  0  0  0  0  0
   34.9984   11.4589  -15.9164 C   0  0  0  0  0  0  0  0  0  0  0  0
   35.6507   10.9836  -17.0205 C   0  0  0  0  0  0  0  0  0  0  0  0
   37.0382   11.1866  -17.1691 C   0  0  0  0  0  0  0  0  0  0  0  0
   37.6632   10.6276  -18.3814 C   0  0  0  0  0  0  0  0  0  0  0  0
   41.2088   12.9984  -15.3797 C   0  0  0  0  0  0  0  0  0  0  0  0
   39.8675   12.7149  -15.3248 C   0  0  0  0  0  0  0  0  0  0  0  0
   39.1686   12.0947  -16.3581 C   0  0  0  0  0  0  0  0  0  0  0  0
   39.8648   11.7436  -17.5057 C   0  0  0  0  0  0  0  0  0  0  0  0
   41.1740   12.0250  -17.5495 N   0  0  0  0  0  0  0  0  0  0  0  0
   41.8556   12.6194  -16.5657 C   0  0  0  0  0  0  0  0  0  0  0  0
   43.2473   12.9105  -16.6329 N   0  0  0  0  0  0  0  0  0  0  0  0
   43.9685   12.2634  -16.2112 H   0  0  0  0  0  0  0  0  0  0  0  0
   43.6213   13.7662  -17.0937 H   0  0  0  0  0  0  0  0  0  0  0  0
   44.7751   14.0335  -12.1441 C   0  0  0  0  0  0  0  0  0  0  0  0
   43.4788   14.1162  -12.8773 C   0  0  0  0  0  0  0  0  0  0  0  0
   42.5069   15.0003  -12.6342 N   0  0  0  0  0  0  0  0  0  0  0  0
   41.5348   14.7060  -13.5277 C   0  0  0  0  0  0  0  0  0  0  0  0
   41.9317   13.6460  -14.3011 C   0  0  0  0  0  0  0  0  0  0  0  0
   43.1253   13.3210  -13.8650 O   0  0  0  0  0  0  0  0  0  0  0  0
   34.9888   12.6310  -13.7575 C   0  0  0  0  0  0  0  0  0  0  0  0
   35.1164   11.9499  -12.7285 O   0  0  0  0  0  0  0  0  0  0  0  0
   34.2309   13.7881  -13.8181 N   0  0  0  0  0  0  0  0  0  0  0  0
   34.2208   14.2797  -14.7750 H   0  0  0  0  0  0  0  0  0  0  0  0
   33.4808   14.3774  -12.7748 C   0  0  0  0  0  0  0  0  0  0  0  0
   34.1976   15.1226  -11.8273 C   0  0  0  0  0  0  0  0  0  0  0  0
   33.5427   15.7381  -10.7921 C   0  0  0  0  0  0  0  0  0  0  0  0
   32.1881   15.6378  -10.6646 C   0  0  0  0  0  0  0  0  0  0  0  0
   31.4823   14.9183  -11.5760 C   0  0  0  0  0  0  0  0  0  0  0  0
   32.1386   14.2843  -12.6388 C   0  0  0  0  0  0  0  0  0  0  0  0
   30.0383   14.7934  -11.4769 C   0  0  0  0  0  0  0  0  0  0  0  0
   29.2780   14.4673  -12.6302 N   0  0  0  0  0  0  0  0  0  0  0  0
   29.4871   14.9766  -10.3630 O   0  0  0  0  0  0  0  0  0  0  0  0
   29.1265   15.1773  -13.3766 H   0  0  0  0  0  0  0  0  0  0  0  0
   28.8833   13.5011  -12.6957 H   0  0  0  0  0  0  0  0  0  0  0  0
 17 18  1  0  0  0
 18 19  2  0  0  0
 19 20  1  0  0  0
 20 21  2  0  0  0
 21 22  1  0  0  0
 21  8  1  0  0  0
  8  9  2  0  0  0
  9 10  1  0  0  0
 10 11  2  0  0  0
 11 12  1  0  0  0
 12 13  2  0  0  0
 13 14  1  0  0  0
 10  1  1  0  0  0
  1  2  2  0  0  0
  2  3  1  0  0  0
  3  4  2  0  0  0
  4  5  1  0  0  0
  5  6  2  0  0  0
  6  7  1  0  0  0
  3 23  1  0  0  0
 23 24  2  0  0  0
 23 25  1  0  0  0
 25 27  1  0  0  0
 27 28  2  0  0  0
 28 29  1  0  0  0
 29 30  2  0  0  0
 30 31  1  0  0  0
 31 32  2  0  0  0
 31 33  1  0  0  0
 33 34  1  0  0  0
 33 35  2  0  0  0
 22 18  1  0  0  0
 13  8  1  0  0  0
  6  1  1  0  0  0
 32 27  1  0  0  0
 14 15  1  0  0  0
 14 16  1  0  0  0
 25 26  1  0  0  0
 34 36  1  0  0  0
 34 37  1  0  0  0
M  END
> <minimizedAffinity>
-11.31529

> <CNNscore>
0.7959658504

> <CNNaffinity>
7.5146994591

> <CNN_VS>
5.9814443588

> <CNNaffinity_variance>
0.1218197495

$$$$
[H]c1nc(C([H])([H])[H])oc1-c1c(N([H])[H])nc([H])c(-c2c([H])c(C(=O)N([H])c3c([H])c([H])c([H])c(C(=O)N([H])[H])c3[H])c([H])c([H])c2C([H])([H])[H])c1[H]


 37 40  0  0  0  0  0  0  0  0999 V2000
   36.1155   12.0590  -15.4557 C   0  0  0  0  0  0  0  0  0  0  0  0
   36.3599   12.7465  -14.2669 C   0  0  0  0  0  0  0  0  0  0  0  0
   35.3723   13.0985  -13.4038 C   0  0  0  0  0  0  0  0  0  0  0  0
   34.0690   12.7733  -13.6943 C   0  0  0  0  0  0  0  0  0  0  0  0
   33.7865   12.0988  -14.8500 C   0  0  0  0  0  0  0  0  0  0  0  0
   34.8235   11.7399  -15.7356 C   0  0  0  0  0  0  0  0  0  0  0  0
   34.4317   11.0012  -16.9496 C   0  0  0  0  0  0  0  0  0  0  0  0
   39.5738   11.8699  -16.8719 C   0  0  0  0  0  0  0  0  0  0  0  0
   38.4956   12.1290  -16.0640 C   0  0  0  0  0  0  0  0  0  0  0  0
   37.1971   11.7183  -16.3573 C   0  0  0  0  0  0  0  0  0  0  0  0
   36.9804   11.0082  -17.5294 C   0  0  0  0  0  0  0  0  0  0  0  0
   38.0396   10.7606  -18.3115 N   0  0  0  0  0  0  0  0  0  0  0  0
   39.2894   11.1491  -18.0415 C   0  0  0  0  0  0  0  0  0  0  0  0
   40.4015   10.8763  -18.8872 N   0  0  0  0  0  0  0  0  0  0  0  0
   41.0382   10.0508  -18.7142 H   0  0  0  0  0  0  0  0  0  0  0  0
   40.6426   11.4697  -19.7083 H   0  0  0  0  0  0  0  0  0  0  0  0
   44.4929   12.1167  -16.9055 C   0  0  0  0  0  0  0  0  0  0  0  0
   43.0749   12.4269  -16.5618 C   0  0  0  0  0  0  0  0  0  0  0  0
   42.6744   13.3759  -15.7107 N   0  0  0  0  0  0  0  0  0  0  0  0
   41.3240   13.2980  -15.7102 C   0  0  0  0  0  0  0  0  0  0  0  0
   40.9242   12.3014  -16.5623 C   0  0  0  0  0  0  0  0  0  0  0  0
   42.0297   11.7987  -17.0576 O   0  0  0  0  0  0  0  0  0  0  0  0
   35.6625   13.8153  -12.1421 C   0  0  0  0  0  0  0  0  0  0  0  0
   36.4275   13.2378  -11.3545 O   0  0  0  0  0  0  0  0  0  0  0  0
   35.0991   15.0544  -11.8887 N   0  0  0  0  0  0  0  0  0  0  0  0
   34.4634   15.4367  -12.6679 H   0  0  0  0  0  0  0  0  0  0  0  0
   35.2663   15.8524  -10.7338 C   0  0  0  0  0  0  0  0  0  0  0  0
   34.2577   15.7737   -9.7626 C   0  0  0  0  0  0  0  0  0  0  0  0
   34.3516   16.5051   -8.6070 C   0  0  0  0  0  0  0  0  0  0  0  0
   35.4224   17.3196   -8.3811 C   0  0  0  0  0  0  0  0  0  0  0  0
   36.4062   17.4049   -9.3146 C   0  0  0  0  0  0  0  0  0  0  0  0
   36.3232   16.6630  -10.4998 C   0  0  0  0  0  0  0  0  0  0  0  0
   37.5646   18.2566   -9.1072 C   0  0  0  0  0  0  0  0  0  0  0  0
   38.6305   18.2378  -10.0444 N   0  0  0  0  0  0  0  0  0  0  0  0
   37.5996   18.9999   -8.0952 O   0  0  0  0  0  0  0  0  0  0  0  0
   39.2820   17.4265  -10.0814 H   0  0  0  0  0  0  0  0  0  0  0  0
   38.7312   19.0595  -10.6834 H   0  0  0  0  0  0  0  0  0  0  0  0
 17 18  1  0  0  0
 18 19  2  0  0  0
 19 20  1  0  0  0
 20 21  2  0  0  0
 21 22  1  0  0  0
 21  8  1  0  0  0
  8  9  2  0  0  0
  9 10  1  0  0  0
 10 11  2  0  0  0
 11 12  1  0  0  0
 12 13  2  0  0  0
 13 14  1  0  0  0
 10  1  1  0  0  0
  1  2  2  0  0  0
  2  3  1  0  0  0
  3  4  2  0  0  0
  4  5  1  0  0  0
  5  6  2  0  0  0
  6  7  1  0  0  0
  3 23  1  0  0  0
 23 24  2  0  0  0
 23 25  1  0  0  0
 25 27  1  0  0  0
 27 28  2  0  0  0
 28 29  1  0  0  0
 29 30  2  0  0  0
 30 31  1  0  0  0
 31 32  2  0  0  0
 31 33  1  0  0  0
 33 34  1  0  0  0
 33 35  2  0  0  0
 22 18  1  0  0  0
 13  8  1  0  0  0
  6  1  1  0  0  0
 32 27  1  0  0  0
 14 15  1  0  0  0
 14 16  1  0  0  0
 25 26  1  0  0  0
 34 36  1  0  0  0
 34 37  1  0  0  0
M  END
> <minimizedAffinity>
-10.28561

> <CNNscore>
0.7404126525

> <CNNaffinity>
7.4564933777

> <CNN_VS>
5.5208821297

> <CNNaffinity_variance>
0.2786602080

$$$$
[H]c1nc(C([H])([H])[H])oc1-c1c(N([H])[H])nc([H])c(-c2c([H])c(C(=O)N([H])c3c([H])c([H])c([H])c(C(=O)N([H])[H])c3[H])c([H])c([H])c2C([H])([H])[H])c1[H]


 37 40  0  0  0  0  0  0  0  0999 V2000
   37.6812   11.9417  -16.0976 C   0  0  0  0  0  0  0  0  0  0  0  0
   37.0991   12.4376  -14.9311 C   0  0  0  0  0  0  0  0  0  0  0  0
   35.7697   12.3383  -14.6722 C   0  0  0  0  0  0  0  0  0  0  0  0
   34.9440   11.7268  -15.5850 C   0  0  0  0  0  0  0  0  0  0  0  0
   35.4752   11.2266  -16.7417 C   0  0  0  0  0  0  0  0  0  0  0  0
   36.8579   11.3372  -16.9955 C   0  0  0  0  0  0  0  0  0  0  0  0
   37.3478   10.7571  -18.2590 C   0  0  0  0  0  0  0  0  0  0  0  0
   41.2610   12.8742  -15.5355 C   0  0  0  0  0  0  0  0  0  0  0  0
   39.9122   12.6790  -15.3776 C   0  0  0  0  0  0  0  0  0  0  0  0
   39.1020   12.0845  -16.3424 C   0  0  0  0  0  0  0  0  0  0  0  0
   39.6889   11.6661  -17.5279 C   0  0  0  0  0  0  0  0  0  0  0  0
   41.0065   11.8615  -17.6724 N   0  0  0  0  0  0  0  0  0  0  0  0
   41.7942   12.4304  -16.7550 C   0  0  0  0  0  0  0  0  0  0  0  0
   43.1929   12.6296  -16.9290 N   0  0  0  0  0  0  0  0  0  0  0  0
   43.9008   11.9459  -16.5442 H   0  0  0  0  0  0  0  0  0  0  0  0
   43.5853   13.4499  -17.4366 H   0  0  0  0  0  0  0  0  0  0  0  0
   45.1963   13.8962  -12.7555 C   0  0  0  0  0  0  0  0  0  0  0  0
   43.8093   13.9588  -13.3007 C   0  0  0  0  0  0  0  0  0  0  0  0
   42.8472   14.7833  -12.8766 N   0  0  0  0  0  0  0  0  0  0  0  0
   41.7735   14.4932  -13.6466 C   0  0  0  0  0  0  0  0  0  0  0  0
   42.1003   13.4955  -14.5279 C   0  0  0  0  0  0  0  0  0  0  0  0
   43.3539   13.2023  -14.2770 O   0  0  0  0  0  0  0  0  0  0  0  0
   35.1814   12.8609  -13.4188 C   0  0  0  0  0  0  0  0  0  0  0  0
   35.2470   12.1085  -12.4347 O   0  0  0  0  0  0  0  0  0  0  0  0
   34.6025   14.1181  -13.3815 N   0  0  0  0  0  0  0  0  0  0  0  0
   34.6277   14.6619  -14.3094 H   0  0  0  0  0  0  0  0  0  0  0  0
   33.9907   14.7478  -12.2735 C   0  0  0  0  0  0  0  0  0  0  0  0
   32.5889   14.7918  -12.2691 C   0  0  0  0  0  0  0  0  0  0  0  0
   31.9184   15.3722  -11.2238 C   0  0  0  0  0  0  0  0  0  0  0  0
   32.5985   15.9156  -10.1734 C   0  0  0  0  0  0  0  0  0  0  0  0
   33.9569   15.8795  -10.1660 C   0  0  0  0  0  0  0  0  0  0  0  0
   34.6549   15.2895  -11.2274 C   0  0  0  0  0  0  0  0  0  0  0  0
   34.7157   16.4423   -9.0624 C   0  0  0  0  0  0  0  0  0  0  0  0
   36.1148   16.6400   -9.1970 N   0  0  0  0  0  0  0  0  0  0  0  0
   34.1134   16.7467   -8.0029 O   0  0  0  0  0  0  0  0  0  0  0  0
   36.7637   15.8260   -9.1774 H   0  0  0  0  0  0  0  0  0  0  0  0
   36.4587   17.6206   -9.3138 H   0  0  0  0  0  0  0  0  0  0  0  0
 17 18  1  0  0  0
 18 19  2  0  0  0
 19 20  1  0  0  0
 20 21  2  0  0  0
 21 22  1  0  0  0
 21  8  1  0  0  0
  8  9  2  0  0  0
  9 10  1  0  0  0
 10 11  2  0  0  0
 11 12  1  0  0  0
 12 13  2  0  0  0
 13 14  1  0  0  0
 10  1  1  0  0  0
  1  2  2  0  0  0
  2  3  1  0  0  0
  3  4  2  0  0  0
  4  5  1  0  0  0
  5  6  2  0  0  0
  6  7  1  0  0  0
  3 23  1  0  0  0
 23 24  2  0  0  0
 23 25  1  0  0  0
 25 27  1  0  0  0
 27 28  2  0  0  0
 28 29  1  0  0  0
 29 30  2  0  0  0
 30 31  1  0  0  0
 31 32  2  0  0  0
 31 33  1  0  0  0
 33 34  1  0  0  0
 33 35  2  0  0  0
 22 18  1  0  0  0
 13  8  1  0  0  0
  6  1  1  0  0  0
 32 27  1  0  0  0
 14 15  1  0  0  0
 14 16  1  0  0  0
 25 26  1  0  0  0
 34 36  1  0  0  0
 34 37  1  0  0  0
M  END
> <minimizedAffinity>
-10.07211

> <CNNscore>
0.6442079544

> <CNNaffinity>
7.2785263062

> <CNN_VS>
4.6888847351

> <CNNaffinity_variance>
0.1483665258

$$$$
[H]c1nc(C([H])([H])[H])oc1-c1c(N([H])[H])nc([H])c(-c2c([H])c(C(=O)N([H])c3c([H])c([H])c([H])c(C(=O)N([H])[H])c3[H])c([H])c([H])c2C([H])([H])[H])c1[H]


 37 40  0  0  0  0  0  0  0  0999 V2000
   38.5918   11.6774  -17.0812 C   0  0  0  0  0  0  0  0  0  0  0  0
   39.6224   12.1961  -16.2975 C   0  0  0  0  0  0  0  0  0  0  0  0
   40.9132   12.2443  -16.7169 C   0  0  0  0  0  0  0  0  0  0  0  0
   41.2403   11.7670  -17.9635 C   0  0  0  0  0  0  0  0  0  0  0  0
   40.2590   11.2504  -18.7638 C   0  0  0  0  0  0  0  0  0  0  0  0
   38.9232   11.2080  -18.3139 C   0  0  0  0  0  0  0  0  0  0  0  0
   37.9276   10.6496  -19.2465 C   0  0  0  0  0  0  0  0  0  0  0  0
   35.6072   12.4029  -14.9443 C   0  0  0  0  0  0  0  0  0  0  0  0
   36.8660   12.4046  -15.4899 C   0  0  0  0  0  0  0  0  0  0  0  0
   37.2304   11.6286  -16.5880 C   0  0  0  0  0  0  0  0  0  0  0  0
   36.2697   10.8091  -17.1627 C   0  0  0  0  0  0  0  0  0  0  0  0
   35.0438   10.8143  -16.6223 N   0  0  0  0  0  0  0  0  0  0  0  0
   34.6819   11.5536  -15.5695 C   0  0  0  0  0  0  0  0  0  0  0  0
   33.3731   11.5437  -15.0098 N   0  0  0  0  0  0  0  0  0  0  0  0
   32.6538   12.2718  -15.2728 H   0  0  0  0  0  0  0  0  0  0  0  0
   33.0618   10.8284  -14.3200 H   0  0  0  0  0  0  0  0  0  0  0  0
   32.9746   15.3401  -11.9945 C   0  0  0  0  0  0  0  0  0  0  0  0
   34.0989   14.4964  -12.4934 C   0  0  0  0  0  0  0  0  0  0  0  0
   35.2415   14.2643  -11.8408 N   0  0  0  0  0  0  0  0  0  0  0  0
   35.9546   13.4580  -12.6600 C   0  0  0  0  0  0  0  0  0  0  0  0
   35.2332   13.2121  -13.7993 C   0  0  0  0  0  0  0  0  0  0  0  0
   34.1076   13.8687  -13.6505 O   0  0  0  0  0  0  0  0  0  0  0  0
   41.9845   12.8136  -15.8693 C   0  0  0  0  0  0  0  0  0  0  0  0
   41.6272   13.2474  -14.7634 O   0  0  0  0  0  0  0  0  0  0  0  0
   43.2954   12.8430  -16.3137 N   0  0  0  0  0  0  0  0  0  0  0  0
   43.4578   12.4213  -17.2902 H   0  0  0  0  0  0  0  0  0  0  0  0
   44.4203   13.3622  -15.6328 C   0  0  0  0  0  0  0  0  0  0  0  0
   45.5555   12.5409  -15.5748 C   0  0  0  0  0  0  0  0  0  0  0  0
   46.6927   12.9762  -14.9450 C   0  0  0  0  0  0  0  0  0  0  0  0
   46.7412   14.2103  -14.3655 C   0  0  0  0  0  0  0  0  0  0  0  0
   45.6476   15.0154  -14.4147 C   0  0  0  0  0  0  0  0  0  0  0  0
   44.4791   14.5834  -15.0550 C   0  0  0  0  0  0  0  0  0  0  0  0
   45.6631   16.3382  -13.8143 C   0  0  0  0  0  0  0  0  0  0  0  0
   46.0278   17.4640  -14.5981 N   0  0  0  0  0  0  0  0  0  0  0  0
   45.3494   16.4605  -12.6041 O   0  0  0  0  0  0  0  0  0  0  0  0
   47.0222   17.6164  -14.8662 H   0  0  0  0  0  0  0  0  0  0  0  0
   45.2682   18.1216  -14.8882 H   0  0  0  0  0  0  0  0  0  0  0  0
 17 18  1  0  0  0
 18 19  2  0  0  0
 19 20  1  0  0  0
 20 21  2  0  0  0
 21 22  1  0  0  0
 21  8  1  0  0  0
  8  9  2  0  0  0
  9 10  1  0  0  0
 10 11  2  0  0  0
 11 12  1  0  0  0
 12 13  2  0  0  0
 13 14  1  0  0  0
 10  1  1  0  0  0
  1  2  2  0  0  0
  2  3  1  0  0  0
  3  4  2  0  0  0
  4  5  1  0  0  0
  5  6  2  0  0  0
  6  7  1  0  0  0
  3 23  1  0  0  0
 23 24  2  0  0  0
 23 25  1  0  0  0
 25 27  1  0  0  0
 27 28  2  0  0  0
 28 29  1  0  0  0
 29 30  2  0  0  0
 30 31  1  0  0  0
 31 32  2  0  0  0
 31 33  1  0  0  0
 33 34  1  0  0  0
 33 35  2  0  0  0
 22 18  1  0  0  0
 13  8  1  0  0  0
  6  1  1  0  0  0
 32 27  1  0  0  0
 14 15  1  0  0  0
 14 16  1  0  0  0
 25 26  1  0  0  0
 34 36  1  0  0  0
 34 37  1  0  0  0
M  END
> <minimizedAffinity>
-10.66119

> <CNNscore>
0.3686261475

> <CNNaffinity>
6.9608826637

> <CNN_VS>
2.5659632683

> <CNNaffinity_variance>
0.1322903037

$$$$
[H]c1nc(C([H])([H])[H])oc1-c1c(N([H])[H])nc([H])c(-c2c([H])c(C(=O)N([H])c3c([H])c([H])c([H])c(C(=O)N([H])[H])c3[H])c([H])c([H])c2C([H])([H])[H])c1[H]


 37 40  0  0  0  0  0  0  0  0999 V2000
   36.3508   12.2408  -15.4220 C   0  0  0  0  0  0  0  0  0  0  0  0
   36.2856   13.0982  -14.3238 C   0  0  0  0  0  0  0  0  0  0  0  0
   35.1372   13.3271  -13.6360 C   0  0  0  0  0  0  0  0  0  0  0  0
   33.9779   12.6976  -14.0214 C   0  0  0  0  0  0  0  0  0  0  0  0
   33.9991   11.8484  -15.0933 C   0  0  0  0  0  0  0  0  0  0  0  0
   35.1999   11.6208  -15.7967 C   0  0  0  0  0  0  0  0  0  0  0  0
   35.1359   10.6791  -16.9289 C   0  0  0  0  0  0  0  0  0  0  0  0
   40.0044   12.3813  -16.2172 C   0  0  0  0  0  0  0  0  0  0  0  0
   38.7874   12.5096  -15.5970 C   0  0  0  0  0  0  0  0  0  0  0  0
   37.5935   12.0385  -16.1388 C   0  0  0  0  0  0  0  0  0  0  0  0
   37.6354   11.4046  -17.3722 C   0  0  0  0  0  0  0  0  0  0  0  0
   38.8285   11.2846  -17.9697 N   0  0  0  0  0  0  0  0  0  0  0  0
   39.9803   11.7322  -17.4608 C   0  0  0  0  0  0  0  0  0  0  0  0
   41.2382   11.5953  -18.1129 N   0  0  0  0  0  0  0  0  0  0  0  0
   41.8973   10.8022  -17.8819 H   0  0  0  0  0  0  0  0  0  0  0  0
   41.5699   12.2622  -18.8407 H   0  0  0  0  0  0  0  0  0  0  0  0
   44.8183   13.2145  -15.5913 C   0  0  0  0  0  0  0  0  0  0  0  0
   43.3458   13.2524  -15.3564 C   0  0  0  0  0  0  0  0  0  0  0  0
   42.7381   13.8913  -14.3526 N   0  0  0  0  0  0  0  0  0  0  0  0
   41.4188   13.6552  -14.5353 C   0  0  0  0  0  0  0  0  0  0  0  0
   41.2449   12.8752  -15.6490 C   0  0  0  0  0  0  0  0  0  0  0  0
   42.4511   12.6552  -16.1151 O   0  0  0  0  0  0  0  0  0  0  0  0
   35.1003   14.2313  -12.4650 C   0  0  0  0  0  0  0  0  0  0  0  0
   34.0404   14.8527  -12.2936 O   0  0  0  0  0  0  0  0  0  0  0  0
   36.1991   14.3512  -11.6311 N   0  0  0  0  0  0  0  0  0  0  0  0
   37.0453   13.7427  -11.8977 H   0  0  0  0  0  0  0  0  0  0  0  0
   36.3234   15.1764  -10.4900 C   0  0  0  0  0  0  0  0  0  0  0  0
   36.6983   16.5090  -10.7144 C   0  0  0  0  0  0  0  0  0  0  0  0
   36.8270   17.3780   -9.6620 C   0  0  0  0  0  0  0  0  0  0  0  0
   36.5943   16.9649   -8.3828 C   0  0  0  0  0  0  0  0  0  0  0  0
   36.2307   15.6760   -8.1522 C   0  0  0  0  0  0  0  0  0  0  0  0
   36.0953   14.7775   -9.2181 C   0  0  0  0  0  0  0  0  0  0  0  0
   35.9686   15.2008   -6.8046 C   0  0  0  0  0  0  0  0  0  0  0  0
   35.9216   13.8060   -6.5456 N   0  0  0  0  0  0  0  0  0  0  0  0
   35.7889   16.0405   -5.8878 O   0  0  0  0  0  0  0  0  0  0  0  0
   35.1062   13.2411   -6.8618 H   0  0  0  0  0  0  0  0  0  0  0  0
   36.7263   13.3790   -6.0321 H   0  0  0  0  0  0  0  0  0  0  0  0
 17 18  1  0  0  0
 18 19  2  0  0  0
 19 20  1  0  0  0
 20 21  2  0  0  0
 21 22  1  0  0  0
 21  8  1  0  0  0
  8  9  2  0  0  0
  9 10  1  0  0  0
 10 11  2  0  0  0
 11 12  1  0  0  0
 12 13  2  0  0  0
 13 14  1  0  0  0
 10  1  1  0  0  0
  1  2  2  0  0  0
  2  3  1  0  0  0
  3  4  2  0  0  0
  4  5  1  0  0  0
  5  6  2  0  0  0
  6  7  1  0  0  0
  3 23  1  0  0  0
 23 24  2  0  0  0
 23 25  1  0  0  0
 25 27  1  0  0  0
 27 28  2  0  0  0
 28 29  1  0  0  0
 29 30  2  0  0  0
 30 31  1  0  0  0
 31 32  2  0  0  0
 31 33  1  0  0  0
 33 34  1  0  0  0
 33 35  2  0  0  0
 22 18  1  0  0  0
 13  8  1  0  0  0
  6  1  1  0  0  0
 32 27  1  0  0  0
 14 15  1  0  0  0
 14 16  1  0  0  0
 25 26  1  0  0  0
 34 36  1  0  0  0
 34 37  1  0  0  0
M  END
> <minimizedAffinity>
-9.71815

> <CNNscore>
0.3447744548

> <CNNaffinity>
6.9248313904

> <CNN_VS>
2.3875050545

> <CNNaffinity_variance>
0.1763679981

$$$$
[H]c1nc(C([H])([H])[H])oc1-c1c(N([H])[H])nc([H])c(-c2c([H])c(C(=O)N([H])c3c([H])c([H])c([H])c(C(=O)N([H])[H])c3[H])c([H])c([H])c2C([H])([H])[H])c1[H]


 37 40  0  0  0  0  0  0  0  0999 V2000
   36.8236   12.0230  -16.0393 C   0  0  0  0  0  0  0  0  0  0  0  0
   38.1838   12.3070  -16.1611 C   0  0  0  0  0  0  0  0  0  0  0  0
   38.9775   11.7204  -17.0938 C   0  0  0  0  0  0  0  0  0  0  0  0
   38.4383   10.8048  -17.9654 C   0  0  0  0  0  0  0  0  0  0  0  0
   37.1082   10.4984  -17.8797 C   0  0  0  0  0  0  0  0  0  0  0  0
   36.2971   11.1167  -16.9059 C   0  0  0  0  0  0  0  0  0  0  0  0
   34.8722   10.7399  -16.8944 C   0  0  0  0  0  0  0  0  0  0  0  0
   35.9374   13.7664  -12.8493 C   0  0  0  0  0  0  0  0  0  0  0  0
   36.6267   13.1697  -13.8746 C   0  0  0  0  0  0  0  0  0  0  0  0
   36.0164   12.6588  -15.0180 C   0  0  0  0  0  0  0  0  0  0  0  0
   34.6369   12.7580  -15.1279 C   0  0  0  0  0  0  0  0  0  0  0  0
   33.9731   13.3420  -14.1213 N   0  0  0  0  0  0  0  0  0  0  0  0
   34.5465   13.8357  -13.0198 C   0  0  0  0  0  0  0  0  0  0  0  0
   33.8223   14.4521  -11.9606 N   0  0  0  0  0  0  0  0  0  0  0  0
   33.7152   15.5017  -11.9017 H   0  0  0  0  0  0  0  0  0  0  0  0
   33.3679   13.9071  -11.1983 H   0  0  0  0  0  0  0  0  0  0  0  0
   36.8091   14.7970   -8.1125 C   0  0  0  0  0  0  0  0  0  0  0  0
   36.9784   14.7580   -9.5939 C   0  0  0  0  0  0  0  0  0  0  0  0
   37.9763   15.3294  -10.2744 N   0  0  0  0  0  0  0  0  0  0  0  0
   37.7259   15.0398  -11.5717 C   0  0  0  0  0  0  0  0  0  0  0  0
   36.5780   14.2957  -11.6597 C   0  0  0  0  0  0  0  0  0  0  0  0
   36.1584   14.1507  -10.4255 O   0  0  0  0  0  0  0  0  0  0  0  0
   40.4152   12.0518  -17.2095 C   0  0  0  0  0  0  0  0  0  0  0  0
   40.8778   12.0620  -18.3606 O   0  0  0  0  0  0  0  0  0  0  0  0
   41.1683   12.3302  -16.0816 N   0  0  0  0  0  0  0  0  0  0  0  0
   40.6300   12.2939  -15.1507 H   0  0  0  0  0  0  0  0  0  0  0  0
   42.5448   12.6477  -16.0264 C   0  0  0  0  0  0  0  0  0  0  0  0
   43.4007   11.8796  -16.8291 C   0  0  0  0  0  0  0  0  0  0  0  0
   44.7479   12.1332  -16.8437 C   0  0  0  0  0  0  0  0  0  0  0  0
   45.2787   13.1323  -16.0814 C   0  0  0  0  0  0  0  0  0  0  0  0
   44.4599   13.8834  -15.2991 C   0  0  0  0  0  0  0  0  0  0  0  0
   43.0815   13.6353  -15.2746 C   0  0  0  0  0  0  0  0  0  0  0  0
   44.9873   14.9597  -14.4782 C   0  0  0  0  0  0  0  0  0  0  0  0
   45.9809   15.8260  -15.0046 N   0  0  0  0  0  0  0  0  0  0  0  0
   44.5490   15.1043  -13.3099 O   0  0  0  0  0  0  0  0  0  0  0  0
   46.9591   15.4903  -15.1248 H   0  0  0  0  0  0  0  0  0  0  0  0
   45.6928   16.7980  -15.2607 H   0  0  0  0  0  0  0  0  0  0  0  0
 17 18  1  0  0  0
 18 19  2  0  0  0
 19 20  1  0  0  0
 20 21  2  0  0  0
 21 22  1  0  0  0
 21  8  1  0  0  0
  8  9  2  0  0  0
  9 10  1  0  0  0
 10 11  2  0  0  0
 11 12  1  0  0  0
 12 13  2  0  0  0
 13 14  1  0  0  0
 10  1  1  0  0  0
  1  2  2  0  0  0
  2  3  1  0  0  0
  3  4  2  0  0  0
  4  5  1  0  0  0
  5  6  2  0  0  0
  6  7  1  0  0  0
  3 23  1  0  0  0
 23 24  2  0  0  0
 23 25  1  0  0  0
 25 27  1  0  0  0
 27 28  2  0  0  0
 28 29  1  0  0  0
 29 30  2  0  0  0
 30 31  1  0  0  0
 31 32  2  0  0  0
 31 33  1  0  0  0
 33 34  1  0  0  0
 33 35  2  0  0  0
 22 18  1  0  0  0
 13  8  1  0  0  0
  6  1  1  0  0  0
 32 27  1  0  0  0
 14 15  1  0  0  0
 14 16  1  0  0  0
 25 26  1  0  0  0
 34 36  1  0  0  0
 34 37  1  0  0  0
M  END
> <minimizedAffinity>
-10.99285

> <CNNscore>
0.3239451051

> <CNNaffinity>
7.0208711624

> <CNN_VS>
2.2743768692

> <CNNaffinity_variance>
0.1097423285

$$$$
[H]c1nc(C([H])([H])[H])oc1-c1c(N([H])[H])nc([H])c(-c2c([H])c(C(=O)N([H])c3c([H])c([H])c([H])c(C(=O)N([H])[H])c3[H])c([H])c([H])c2C([H])([H])[H])c1[H]


 37 40  0  0  0  0  0  0  0  0999 V2000
   36.2749   12.1275  -15.8021 C   0  0  0  0  0  0  0  0  0  0  0  0
   37.6457   12.3842  -15.7790 C   0  0  0  0  0  0  0  0  0  0  0  0
   38.5177   11.8047  -16.6439 C   0  0  0  0  0  0  0  0  0  0  0  0
   38.0511   10.9244  -17.5906 C   0  0  0  0  0  0  0  0  0  0  0  0
   36.7134   10.6456  -17.6472 C   0  0  0  0  0  0  0  0  0  0  0  0
   35.8207   11.2561  -16.7423 C   0  0  0  0  0  0  0  0  0  0  0  0
   34.3947   10.9109  -16.8841 C   0  0  0  0  0  0  0  0  0  0  0  0
   35.1356   14.0184  -12.7809 C   0  0  0  0  0  0  0  0  0  0  0  0
   35.9077   13.4175  -13.7428 C   0  0  0  0  0  0  0  0  0  0  0  0
   35.3815   12.7541  -14.8491 C   0  0  0  0  0  0  0  0  0  0  0  0
   34.0022   12.6969  -14.9876 C   0  0  0  0  0  0  0  0  0  0  0  0
   33.2572   13.2864  -14.0429 N   0  0  0  0  0  0  0  0  0  0  0  0
   33.7496   13.9254  -12.9775 C   0  0  0  0  0  0  0  0  0  0  0  0
   32.9398   14.5447  -11.9839 N   0  0  0  0  0  0  0  0  0  0  0  0
   32.7220   15.5783  -12.0136 H   0  0  0  0  0  0  0  0  0  0  0  0
   32.5271   14.0178  -11.1861 H   0  0  0  0  0  0  0  0  0  0  0  0
   36.7533   14.8533   -8.2043 C   0  0  0  0  0  0  0  0  0  0  0  0
   36.4015   15.0940   -9.6337 C   0  0  0  0  0  0  0  0  0  0  0  0
   36.5611   16.2489  -10.2863 N   0  0  0  0  0  0  0  0  0  0  0  0
   36.1139   16.0070  -11.5398 C   0  0  0  0  0  0  0  0  0  0  0  0
   35.6888   14.7069  -11.6296 C   0  0  0  0  0  0  0  0  0  0  0  0
   35.8842   14.1909  -10.4397 O   0  0  0  0  0  0  0  0  0  0  0  0
   39.9659   12.1069  -16.6057 C   0  0  0  0  0  0  0  0  0  0  0  0
   40.6071   11.8158  -17.6271 O   0  0  0  0  0  0  0  0  0  0  0  0
   40.5376   12.6814  -15.4832 N   0  0  0  0  0  0  0  0  0  0  0  0
   39.8562   12.8882  -14.6767 H   0  0  0  0  0  0  0  0  0  0  0  0
   41.8976   13.0149  -15.2889 C   0  0  0  0  0  0  0  0  0  0  0  0
   42.2021   13.7815  -14.1547 C   0  0  0  0  0  0  0  0  0  0  0  0
   43.4992   14.1350  -13.8866 C   0  0  0  0  0  0  0  0  0  0  0  0
   44.5132   13.7500  -14.7140 C   0  0  0  0  0  0  0  0  0  0  0  0
   44.2311   13.0072  -15.8164 C   0  0  0  0  0  0  0  0  0  0  0  0
   42.9103   12.6388  -16.1024 C   0  0  0  0  0  0  0  0  0  0  0  0
   45.2846   12.5734  -16.7177 C   0  0  0  0  0  0  0  0  0  0  0  0
   46.6154   13.0239  -16.5155 N   0  0  0  0  0  0  0  0  0  0  0  0
   44.9948   11.8009  -17.6649 O   0  0  0  0  0  0  0  0  0  0  0  0
   46.8772   14.0053  -16.7439 H   0  0  0  0  0  0  0  0  0  0  0  0
   47.3083   12.3393  -16.1350 H   0  0  0  0  0  0  0  0  0  0  0  0
 17 18  1  0  0  0
 18 19  2  0  0  0
 19 20  1  0  0  0
 20 21  2  0  0  0
 21 22  1  0  0  0
 21  8  1  0  0  0
  8  9  2  0  0  0
  9 10  1  0  0  0
 10 11  2  0  0  0
 11 12  1  0  0  0
 12 13  2  0  0  0
 13 14  1  0  0  0
 10  1  1  0  0  0
  1  2  2  0  0  0
  2  3  1  0  0  0
  3  4  2  0  0  0
  4  5  1  0  0  0
  5  6  2  0  0  0
  6  7  1  0  0  0
  3 23  1  0  0  0
 23 24  2  0  0  0
 23 25  1  0  0  0
 25 27  1  0  0  0
 27 28  2  0  0  0
 28 29  1  0  0  0
 29 30  2  0  0  0
 30 31  1  0  0  0
 31 32  2  0  0  0
 31 33  1  0  0  0
 33 34  1  0  0  0
 33 35  2  0  0  0
 22 18  1  0  0  0
 13  8  1  0  0  0
  6  1  1  0  0  0
 32 27  1  0  0  0
 14 15  1  0  0  0
 14 16  1  0  0  0
 25 26  1  0  0  0
 34 36  1  0  0  0
 34 37  1  0  0  0
M  END
> <minimizedAffinity>
-11.43541

> <CNNscore>
0.3176502585

> <CNNaffinity>
7.0375947952

> <CNN_VS>
2.2354938984

> <CNNaffinity_variance>
0.0524737239

$$$$
[H]c1nc(C([H])([H])[H])oc1-c1c(N([H])[H])nc([H])c(-c2c([H])c(C(=O)N([H])c3c([H])c([H])c([H])c(C(=O)N([H])[H])c3[H])c([H])c([H])c2C([H])([H])[H])c1[H]


 37 40  0  0  0  0  0  0  0  0999 V2000
   38.0021   13.0669  -14.9015 C   0  0  0  0  0  0  0  0  0  0  0  0
   37.7687   13.9109  -13.8160 C   0  0  0  0  0  0  0  0  0  0  0  0
   36.5326   14.1077  -13.2890 C   0  0  0  0  0  0  0  0  0  0  0  0
   35.4511   13.4573  -13.8332 C   0  0  0  0  0  0  0  0  0  0  0  0
   35.6371   12.6202  -14.8986 C   0  0  0  0  0  0  0  0  0  0  0  0
   36.9271   12.4260  -15.4339 C   0  0  0  0  0  0  0  0  0  0  0  0
   37.0390   11.4952  -16.5714 C   0  0  0  0  0  0  0  0  0  0  0  0
   41.7333   13.2058  -15.1450 C   0  0  0  0  0  0  0  0  0  0  0  0
   40.4395   13.3068  -14.6997 C   0  0  0  0  0  0  0  0  0  0  0  0
   39.3349   12.8990  -15.4442 C   0  0  0  0  0  0  0  0  0  0  0  0
   39.5527   12.3611  -16.7044 C   0  0  0  0  0  0  0  0  0  0  0  0
   40.8195   12.2671  -17.1301 N   0  0  0  0  0  0  0  0  0  0  0  0
   41.8872   12.6546  -16.4260 C   0  0  0  0  0  0  0  0  0  0  0  0
   43.2260   12.5468  -16.8975 N   0  0  0  0  0  0  0  0  0  0  0  0
   43.8398   11.7273  -16.6364 H   0  0  0  0  0  0  0  0  0  0  0  0
   43.6641   13.2619  -17.5150 H   0  0  0  0  0  0  0  0  0  0  0  0
   46.0849   15.2106  -14.0030 C   0  0  0  0  0  0  0  0  0  0  0  0
   44.7807   14.5042  -13.8443 C   0  0  0  0  0  0  0  0  0  0  0  0
   44.2996   14.0151  -12.6977 N   0  0  0  0  0  0  0  0  0  0  0  0
   43.1063   13.4681  -13.0241 C   0  0  0  0  0  0  0  0  0  0  0  0
   42.8804   13.6335  -14.3660 C   0  0  0  0  0  0  0  0  0  0  0  0
   43.9317   14.2711  -14.8229 O   0  0  0  0  0  0  0  0  0  0  0  0
   36.3165   14.9984  -12.1271 C   0  0  0  0  0  0  0  0  0  0  0  0
   36.6028   16.1931  -12.2997 O   0  0  0  0  0  0  0  0  0  0  0  0
   35.8217   14.4964  -10.9354 N   0  0  0  0  0  0  0  0  0  0  0  0
   35.6084   13.4418  -10.9357 H   0  0  0  0  0  0  0  0  0  0  0  0
   35.5754   15.2106   -9.7405 C   0  0  0  0  0  0  0  0  0  0  0  0
   36.6936   15.5328   -8.9578 C   0  0  0  0  0  0  0  0  0  0  0  0
   36.5417   16.2367   -7.7912 C   0  0  0  0  0  0  0  0  0  0  0  0
   35.3061   16.6348   -7.3717 C   0  0  0  0  0  0  0  0  0  0  0  0
   34.2147   16.3285   -8.1211 C   0  0  0  0  0  0  0  0  0  0  0  0
   34.3554   15.6100   -9.3153 C   0  0  0  0  0  0  0  0  0  0  0  0
   32.8836   16.7402   -7.7101 C   0  0  0  0  0  0  0  0  0  0  0  0
   31.8603   16.8901   -8.6823 N   0  0  0  0  0  0  0  0  0  0  0  0
   32.6625   16.9557   -6.4925 O   0  0  0  0  0  0  0  0  0  0  0  0
   31.8693   17.7036   -9.3320 H   0  0  0  0  0  0  0  0  0  0  0  0
   31.1107   16.1617   -8.7161 H   0  0  0  0  0  0  0  0  0  0  0  0
 17 18  1  0  0  0
 18 19  2  0  0  0
 19 20  1  0  0  0
 20 21  2  0  0  0
 21 22  1  0  0  0
 21  8  1  0  0  0
  8  9  2  0  0  0
  9 10  1  0  0  0
 10 11  2  0  0  0
 11 12  1  0  0  0
 12 13  2  0  0  0
 13 14  1  0  0  0
 10  1  1  0  0  0
  1  2  2  0  0  0
  2  3  1  0  0  0
  3  4  2  0  0  0
  4  5  1  0  0  0
  5  6  2  0  0  0
  6  7  1  0  0  0
  3 23  1  0  0  0
 23 24  2  0  0  0
 23 25  1  0  0  0
 25 27  1  0  0  0
 27 28  2  0  0  0
 28 29  1  0  0  0
 29 30  2  0  0  0
 30 31  1  0  0  0
 31 32  2  0  0  0
 31 33  1  0  0  0
 33 34  1  0  0  0
 33 35  2  0  0  0
 22 18  1  0  0  0
 13  8  1  0  0  0
  6  1  1  0  0  0
 32 27  1  0  0  0
 14 15  1  0  0  0
 14 16  1  0  0  0
 25 26  1  0  0  0
 34 36  1  0  0  0
 34 37  1  0  0  0
M  END
> <minimizedAffinity>
-9.05283

> <CNNscore>
0.2982909679

> <CNNaffinity>
6.6073660851

> <CNN_VS>
1.9709175825

> <CNNaffinity_variance>
0.2828704715

$$$$
[H]c1nc(C([H])([H])[H])oc1-c1c(N([H])[H])nc([H])c(-c2c([H])c(C(=O)N([H])c3c([H])c([H])c([H])c(C(=O)N([H])[H])c3[H])c([H])c([H])c2C([H])([H])[H])c1[H]


 37 40  0  0  0  0  0  0  0  0999 V2000
   38.1510   12.3569  -15.8047 C   0  0  0  0  0  0  0  0  0  0  0  0
   37.7434   13.1245  -14.7138 C   0  0  0  0  0  0  0  0  0  0  0  0
   36.4468   13.2140  -14.3201 C   0  0  0  0  0  0  0  0  0  0  0  0
   35.4782   12.5270  -15.0120 C   0  0  0  0  0  0  0  0  0  0  0  0
   35.8360   11.7623  -16.0879 C   0  0  0  0  0  0  0  0  0  0  0  0
   37.1869   11.6792  -16.4837 C   0  0  0  0  0  0  0  0  0  0  0  0
   37.4855   10.8203  -17.6438 C   0  0  0  0  0  0  0  0  0  0  0  0
   41.8510   12.9048  -15.7034 C   0  0  0  0  0  0  0  0  0  0  0  0
   40.5145   12.8896  -15.3935 C   0  0  0  0  0  0  0  0  0  0  0  0
   39.5432   12.3031  -16.2018 C   0  0  0  0  0  0  0  0  0  0  0  0
   39.9471   11.7011  -17.3847 C   0  0  0  0  0  0  0  0  0  0  0  0
   41.2542   11.7216  -17.6784 N   0  0  0  0  0  0  0  0  0  0  0  0
   42.1953   12.2807  -16.9119 C   0  0  0  0  0  0  0  0  0  0  0  0
   43.5797   12.2925  -17.2430 N   0  0  0  0  0  0  0  0  0  0  0  0
   44.2470   11.5707  -16.8553 H   0  0  0  0  0  0  0  0  0  0  0  0
   44.0007   13.0050  -17.8751 H   0  0  0  0  0  0  0  0  0  0  0  0
   45.8037   15.5012  -14.3271 C   0  0  0  0  0  0  0  0  0  0  0  0
   44.5830   14.6490  -14.2343 C   0  0  0  0  0  0  0  0  0  0  0  0
   44.0543   14.1745  -13.1027 N   0  0  0  0  0  0  0  0  0  0  0  0
   42.9713   13.4644  -13.4935 C   0  0  0  0  0  0  0  0  0  0  0  0
   42.8585   13.5185  -14.8585 C   0  0  0  0  0  0  0  0  0  0  0  0
   43.8663   14.2530  -15.2650 O   0  0  0  0  0  0  0  0  0  0  0  0
   36.0448   14.0250  -13.1493 C   0  0  0  0  0  0  0  0  0  0  0  0
   34.8609   14.3951  -13.1274 O   0  0  0  0  0  0  0  0  0  0  0  0
   36.9592   14.3323  -12.1561 N   0  0  0  0  0  0  0  0  0  0  0  0
   37.9477   13.9342  -12.3042 H   0  0  0  0  0  0  0  0  0  0  0  0
   36.7345   15.1024  -10.9921 C   0  0  0  0  0  0  0  0  0  0  0  0
   36.0703   14.4651   -9.9340 C   0  0  0  0  0  0  0  0  0  0  0  0
   35.8264   15.1381   -8.7649 C   0  0  0  0  0  0  0  0  0  0  0  0
   36.2229   16.4342   -8.6095 C   0  0  0  0  0  0  0  0  0  0  0  0
   36.8671   17.0629   -9.6275 C   0  0  0  0  0  0  0  0  0  0  0  0
   37.1230   16.3872  -10.8274 C   0  0  0  0  0  0  0  0  0  0  0  0
   37.3098   18.4404   -9.4972 C   0  0  0  0  0  0  0  0  0  0  0  0
   36.8229   19.2395   -8.4299 N   0  0  0  0  0  0  0  0  0  0  0  0
   38.1223   18.9001  -10.3376 O   0  0  0  0  0  0  0  0  0  0  0  0
   35.8448   19.5959   -8.4455 H   0  0  0  0  0  0  0  0  0  0  0  0
   37.4777   19.4511   -7.6425 H   0  0  0  0  0  0  0  0  0  0  0  0
 17 18  1  0  0  0
 18 19  2  0  0  0
 19 20  1  0  0  0
 20 21  2  0  0  0
 21 22  1  0  0  0
 21  8  1  0  0  0
  8  9  2  0  0  0
  9 10  1  0  0  0
 10 11  2  0  0  0
 11 12  1  0  0  0
 12 13  2  0  0  0
 13 14  1  0  0  0
 10  1  1  0  0  0
  1  2  2  0  0  0
  2  3  1  0  0  0
  3  4  2  0  0  0
  4  5  1  0  0  0
  5  6  2  0  0  0
  6  7  1  0  0  0
  3 23  1  0  0  0
 23 24  2  0  0  0
 23 25  1  0  0  0
 25 27  1  0  0  0
 27 28  2  0  0  0
 28 29  1  0  0  0
 29 30  2  0  0  0
 30 31  1  0  0  0
 31 32  2  0  0  0
 31 33  1  0  0  0
 33 34  1  0  0  0
 33 35  2  0  0  0
 22 18  1  0  0  0
 13  8  1  0  0  0
  6  1  1  0  0  0
 32 27  1  0  0  0
 14 15  1  0  0  0
 14 16  1  0  0  0
 25 26  1  0  0  0
 34 36  1  0  0  0
 34 37  1  0  0  0
M  END
> <minimizedAffinity>
-9.80794

> <CNNscore>
0.2762610614

> <CNNaffinity>
6.7434220314

> <CNN_VS>
1.8629449606

> <CNNaffinity_variance>
0.1696228981

$$$$
[H]OC(=O)[C@@]([H])(N([H])C(=O)[C@@]([H])(N([H])C(=O)[C@@]1([H])N(C(=O)[C@@]([H])(N([H])[H])C([H])([H])c2c([H])n([H])c3c([H])c([H])c([H])c([H])c23)C([H])([H])C([H])([H])C1([H])[H])C([H])([H])c1c([H])c([H])c([H])c([H])c1[H])C([H])([H])C([H])(C([H])([H])[H])C([H])([H])[H]


 47 50  0  0  0  0  0  0  0  0999 V2000
   35.0495   15.9897  -10.3071 N   0  0  0  0  0  0  0  0  0  0  0  0
   35.4839   14.9587  -11.1325 C   0  0  0  0  0  0  0  0  0  0  0  0
   36.0364   13.9727  -10.4805 O   0  0  0  0  0  0  0  0  0  0  0  0
   34.6193   16.8394  -10.7092 H   0  0  0  0  0  0  0  0  0  0  0  0
   35.4492   14.7758  -12.5634 C   0  0  0  0  0  0  0  0  0  0  0  0
   34.8571   13.3572  -12.8642 C   0  0  0  0  0  0  0  0  0  0  0  0
   35.2081   13.1776  -14.3115 C   0  0  0  0  0  0  0  0  0  0  0  0
   36.1662   14.2762  -14.6661 C   0  0  0  0  0  0  0  0  0  0  0  0
   36.6364   14.7234  -13.3398 N   0  0  0  0  0  0  0  0  0  0  0  0
   37.9790   15.0731  -13.1575 C   0  0  0  0  0  0  0  0  0  0  0  0
   38.3174   15.6537  -12.1014 O   0  0  0  0  0  0  0  0  0  0  0  0
   39.0157   14.7974  -14.1449 C   0  0  0  0  0  0  0  0  0  0  0  0
   40.2682   15.4397  -13.6139 N   0  0  0  0  0  0  0  0  0  0  0  0
   40.5645   14.8320  -12.8442 H   0  0  0  0  0  0  0  0  0  0  0  0
   40.0898   16.4253  -13.3825 H   0  0  0  0  0  0  0  0  0  0  0  0
   39.4321   13.3562  -14.2704 C   0  0  0  0  0  0  0  0  0  0  0  0
   39.8151   12.8435  -15.5576 C   0  0  0  0  0  0  0  0  0  0  0  0
   41.0758   13.0441  -16.1315 C   0  0  0  0  0  0  0  0  0  0  0  0
   41.1040   12.4391  -17.3315 N   0  0  0  0  0  0  0  0  0  0  0  0
   39.9220   11.8507  -17.5739 C   0  0  0  0  0  0  0  0  0  0  0  0
   39.4868   11.1258  -18.6581 C   0  0  0  0  0  0  0  0  0  0  0  0
   38.1957   10.6056  -18.6888 C   0  0  0  0  0  0  0  0  0  0  0  0
   37.3835   10.8505  -17.5888 C   0  0  0  0  0  0  0  0  0  0  0  0
   37.8471   11.5868  -16.5042 C   0  0  0  0  0  0  0  0  0  0  0  0
   39.1246   12.0971  -16.4836 C   0  0  0  0  0  0  0  0  0  0  0  0
   41.9461   12.4537  -17.9466 H   0  0  0  0  0  0  0  0  0  0  0  0
   35.1826   15.9948   -8.8572 C   0  0  0  0  0  0  0  0  0  0  0  0
   33.2828   14.7164   -7.8587 N   0  0  0  0  0  0  0  0  0  0  0  0
   33.8851   15.9886   -8.1503 C   0  0  0  0  0  0  0  0  0  0  0  0
   33.2558   17.0135   -7.7849 O   0  0  0  0  0  0  0  0  0  0  0  0
   33.7440   13.8415   -8.1230 H   0  0  0  0  0  0  0  0  0  0  0  0
   31.9747   14.6269   -7.1660 C   0  0  0  0  0  0  0  0  0  0  0  0
   32.2517   13.7836   -5.9873 C   0  0  0  0  0  0  0  0  0  0  0  0
   31.3449   12.7731   -5.6554 O   0  0  0  0  0  0  0  0  0  0  0  0
   33.2556   13.9193   -5.2534 O   0  0  0  0  0  0  0  0  0  0  0  0
   31.5820   12.0333   -4.9944 H   0  0  0  0  0  0  0  0  0  0  0  0
   31.0596   13.9071   -8.1207 C   0  0  0  0  0  0  0  0  0  0  0  0
   29.2452   14.5436   -9.7604 C   0  0  0  0  0  0  0  0  0  0  0  0
   29.7019   14.4169   -8.3475 C   0  0  0  0  0  0  0  0  0  0  0  0
   29.6686   15.8453   -7.7539 C   0  0  0  0  0  0  0  0  0  0  0  0
   36.0135   17.1568   -8.3866 C   0  0  0  0  0  0  0  0  0  0  0  0
   37.3656   16.8083   -7.9147 C   0  0  0  0  0  0  0  0  0  0  0  0
   38.3887   16.4105   -8.7399 C   0  0  0  0  0  0  0  0  0  0  0  0
   39.6630   16.0764   -8.2681 C   0  0  0  0  0  0  0  0  0  0  0  0
   39.8737   16.1578   -6.9198 C   0  0  0  0  0  0  0  0  0  0  0  0
   38.8645   16.5523   -6.0898 C   0  0  0  0  0  0  0  0  0  0  0  0
   37.6269   16.8764   -6.5550 C   0  0  0  0  0  0  0  0  0  0  0  0
 38 39  1  0  0  0
 39 40  1  0  0  0
 39 37  1  0  0  0
 37 32  1  0  0  0
 32 28  1  0  0  0
 28 29  1  0  0  0
 29 30  2  0  0  0
 29 27  1  0  0  0
 27 41  1  0  0  0
 41 42  1  0  0  0
 42 43  2  0  0  0
 43 44  1  0  0  0
 44 45  2  0  0  0
 45 46  1  0  0  0
 46 47  2  0  0  0
 27  1  1  0  0  0
  1  2  1  0  0  0
  2  3  2  0  0  0
  2  5  1  0  0  0
  5  6  1  0  0  0
  6  7  1  0  0  0
  7  8  1  0  0  0
  8  9  1  0  0  0
  9 10  1  0  0  0
 10 11  2  0  0  0
 10 12  1  0  0  0
 12 13  1  0  0  0
 12 16  1  0  0  0
 16 17  1  0  0  0
 17 18  2  0  0  0
 18 19  1  0  0  0
 19 20  1  0  0  0
 20 21  2  0  0  0
 21 22  1  0  0  0
 22 23  2  0  0  0
 23 24  1  0  0  0
 24 25  2  0  0  0
 32 33  1  0  0  0
 33 34  1  0  0  0
 33 35  2  0  0  0
 47 42  1  0  0  0
  9  5  1  0  0  0
 25 17  1  0  0  0
 25 20  1  0  0  0
 28 31  1  0  0  0
  1  4  1  0  0  0
 13 14  1  0  0  0
 13 15  1  0  0  0
 19 26  1  0  0  0
 34 36  1  0  0  0
M  END
> <minimizedAffinity>
-9.53567

> <CNNscore>
0.4973913133

> <CNNaffinity>
7.0832238197

> <CNN_VS>
3.5231339931

> <CNNaffinity_variance>
0.2354668081

$$$$
[H]OC(=O)[C@@]([H])(N([H])C(=O)[C@@]([H])(N([H])C(=O)[C@@]1([H])N(C(=O)[C@@]([H])(N([H])[H])C([H])([H])c2c([H])n([H])c3c([H])c([H])c([H])c([H])c23)C([H])([H])C([H])([H])C1([H])[H])C([H])([H])c1c([H])c([H])c([H])c([H])c1[H])C([H])([H])C([H])(C([H])([H])[H])C([H])([H])[H]


 47 50  0  0  0  0  0  0  0  0999 V2000
   38.4541   15.1538  -10.5888 N   0  0  0  0  0  0  0  0  0  0  0  0
   37.6157   16.2629  -10.5916 C   0  0  0  0  0  0  0  0  0  0  0  0
   38.2592   17.3973  -10.5510 O   0  0  0  0  0  0  0  0  0  0  0  0
   38.0611   14.1977  -10.5913 H   0  0  0  0  0  0  0  0  0  0  0  0
   36.1794   16.3984  -10.6214 C   0  0  0  0  0  0  0  0  0  0  0  0
   35.6160   15.9783   -9.2216 C   0  0  0  0  0  0  0  0  0  0  0  0
   34.1518   15.8292   -9.5112 C   0  0  0  0  0  0  0  0  0  0  0  0
   33.9967   15.8735  -11.0026 C   0  0  0  0  0  0  0  0  0  0  0  0
   35.3701   15.5980  -11.4696 N   0  0  0  0  0  0  0  0  0  0  0  0
   35.5756   14.7875  -12.5916 C   0  0  0  0  0  0  0  0  0  0  0  0
   36.7161   14.7395  -13.1055 O   0  0  0  0  0  0  0  0  0  0  0  0
   34.5194   13.9899  -13.2031 C   0  0  0  0  0  0  0  0  0  0  0  0
   34.4346   14.4496  -14.6330 N   0  0  0  0  0  0  0  0  0  0  0  0
   35.2651   14.0522  -15.0825 H   0  0  0  0  0  0  0  0  0  0  0  0
   34.3331   15.4720  -14.6707 H   0  0  0  0  0  0  0  0  0  0  0  0
   34.8176   12.5230  -13.3631 C   0  0  0  0  0  0  0  0  0  0  0  0
   34.9552   11.9725  -14.6839 C   0  0  0  0  0  0  0  0  0  0  0  0
   33.8756   11.5437  -15.4647 C   0  0  0  0  0  0  0  0  0  0  0  0
   34.3473   11.0842  -16.6365 N   0  0  0  0  0  0  0  0  0  0  0  0
   35.6852   11.1903  -16.6632 C   0  0  0  0  0  0  0  0  0  0  0  0
   36.5924   10.8506  -17.6389 C   0  0  0  0  0  0  0  0  0  0  0  0
   37.9552   11.0537  -17.4391 C   0  0  0  0  0  0  0  0  0  0  0  0
   38.3460   11.6073  -16.2264 C   0  0  0  0  0  0  0  0  0  0  0  0
   37.4090   11.9424  -15.2554 C   0  0  0  0  0  0  0  0  0  0  0  0
   36.0644   11.7374  -15.4623 C   0  0  0  0  0  0  0  0  0  0  0  0
   33.7231   10.7101  -17.3836 H   0  0  0  0  0  0  0  0  0  0  0  0
   39.9079   15.2214  -10.5474 C   0  0  0  0  0  0  0  0  0  0  0  0
   39.6360   15.6631   -8.1038 N   0  0  0  0  0  0  0  0  0  0  0  0
   40.4315   15.8009   -9.2930 C   0  0  0  0  0  0  0  0  0  0  0  0
   41.5222   16.4154   -9.1803 O   0  0  0  0  0  0  0  0  0  0  0  0
   38.7395   15.1691   -8.1231 H   0  0  0  0  0  0  0  0  0  0  0  0
   40.0852   16.2306   -6.8095 C   0  0  0  0  0  0  0  0  0  0  0  0
   39.4179   15.3875   -5.7989 C   0  0  0  0  0  0  0  0  0  0  0  0
   38.4779   14.4447   -6.2243 O   0  0  0  0  0  0  0  0  0  0  0  0
   39.6380   15.4663   -4.5699 O   0  0  0  0  0  0  0  0  0  0  0  0
   38.1471   13.7001   -5.6106 H   0  0  0  0  0  0  0  0  0  0  0  0
   39.5342   17.6311   -6.7685 C   0  0  0  0  0  0  0  0  0  0  0  0
   37.2797   18.5737   -7.4130 C   0  0  0  0  0  0  0  0  0  0  0  0
   38.1237   17.8458   -6.4235 C   0  0  0  0  0  0  0  0  0  0  0  0
   38.1163   18.7044   -5.1364 C   0  0  0  0  0  0  0  0  0  0  0  0
   40.4559   15.9784  -11.7258 C   0  0  0  0  0  0  0  0  0  0  0  0
   40.9544   15.1401  -12.8308 C   0  0  0  0  0  0  0  0  0  0  0  0
   40.1736   14.6920  -13.8678 C   0  0  0  0  0  0  0  0  0  0  0  0
   40.6672   13.8896  -14.9026 C   0  0  0  0  0  0  0  0  0  0  0  0
   41.9906   13.5500  -14.8559 C   0  0  0  0  0  0  0  0  0  0  0  0
   42.7765   13.9898  -13.8303 C   0  0  0  0  0  0  0  0  0  0  0  0
   42.2904   14.7706  -12.8266 C   0  0  0  0  0  0  0  0  0  0  0  0
 38 39  1  0  0  0
 39 40  1  0  0  0
 39 37  1  0  0  0
 37 32  1  0  0  0
 32 28  1  0  0  0
 28 29  1  0  0  0
 29 30  2  0  0  0
 29 27  1  0  0  0
 27 41  1  0  0  0
 41 42  1  0  0  0
 42 43  2  0  0  0
 43 44  1  0  0  0
 44 45  2  0  0  0
 45 46  1  0  0  0
 46 47  2  0  0  0
 27  1  1  0  0  0
  1  2  1  0  0  0
  2  3  2  0  0  0
  2  5  1  0  0  0
  5  6  1  0  0  0
  6  7  1  0  0  0
  7  8  1  0  0  0
  8  9  1  0  0  0
  9 10  1  0  0  0
 10 11  2  0  0  0
 10 12  1  0  0  0
 12 13  1  0  0  0
 12 16  1  0  0  0
 16 17  1  0  0  0
 17 18  2  0  0  0
 18 19  1  0  0  0
 19 20  1  0  0  0
 20 21  2  0  0  0
 21 22  1  0  0  0
 22 23  2  0  0  0
 23 24  1  0  0  0
 24 25  2  0  0  0
 32 33  1  0  0  0
 33 34  1  0  0  0
 33 35  2  0  0  0
 47 42  1  0  0  0
  9  5  1  0  0  0
 25 17  1  0  0  0
 25 20  1  0  0  0
 28 31  1  0  0  0
  1  4  1  0  0  0
 13 14  1  0  0  0
 13 15  1  0  0  0
 19 26  1  0  0  0
 34 36  1  0  0  0
M  END
> <minimizedAffinity>
-8.13980

> <CNNscore>
0.3063931763

> <CNNaffinity>
7.1230306625

> <CNN_VS>
2.1824479103

> <CNNaffinity_variance>
0.1099708080

$$$$
[H]OC(=O)[C@@]([H])(N([H])C(=O)[C@@]([H])(N([H])C(=O)[C@@]1([H])N(C(=O)[C@@]([H])(N([H])[H])C([H])([H])c2c([H])n([H])c3c([H])c([H])c([H])c([H])c23)C([H])([H])C([H])([H])C1([H])[H])C([H])([H])c1c([H])c([H])c([H])c([H])c1[H])C([H])([H])C([H])(C([H])([H])[H])C([H])([H])[H]


 47 50  0  0  0  0  0  0  0  0999 V2000
   35.2593   16.0405  -10.4794 N   0  0  0  0  0  0  0  0  0  0  0  0
   35.6722   14.9485  -11.2344 C   0  0  0  0  0  0  0  0  0  0  0  0
   36.2249   14.0062  -10.5209 O   0  0  0  0  0  0  0  0  0  0  0  0
   34.8311   16.8634  -10.9356 H   0  0  0  0  0  0  0  0  0  0  0  0
   35.6150   14.6637  -12.6478 C   0  0  0  0  0  0  0  0  0  0  0  0
   35.0732   13.2060  -12.8350 C   0  0  0  0  0  0  0  0  0  0  0  0
   35.4011   12.9381  -14.2740 C   0  0  0  0  0  0  0  0  0  0  0  0
   36.3074   14.0444  -14.7268 C   0  0  0  0  0  0  0  0  0  0  0  0
   36.7870   14.6016  -13.4463 N   0  0  0  0  0  0  0  0  0  0  0  0
   38.1183   15.0140  -13.3204 C   0  0  0  0  0  0  0  0  0  0  0  0
   38.4553   15.6801  -12.3156 O   0  0  0  0  0  0  0  0  0  0  0  0
   39.1444   14.7087  -14.3101 C   0  0  0  0  0  0  0  0  0  0  0  0
   40.4113   15.3338  -13.7929 N   0  0  0  0  0  0  0  0  0  0  0  0
   40.7007   14.7293  -13.0181 H   0  0  0  0  0  0  0  0  0  0  0  0
   40.2520   16.3251  -13.5714 H   0  0  0  0  0  0  0  0  0  0  0  0
   39.5338   13.2589  -14.4220 C   0  0  0  0  0  0  0  0  0  0  0  0
   39.9119   12.7283  -15.7034 C   0  0  0  0  0  0  0  0  0  0  0  0
   41.1901   12.8669  -16.2567 C   0  0  0  0  0  0  0  0  0  0  0  0
   41.2079   12.2614  -17.4567 N   0  0  0  0  0  0  0  0  0  0  0  0
   40.0026   11.7317  -17.7186 C   0  0  0  0  0  0  0  0  0  0  0  0
   39.5499   11.0291  -18.8103 C   0  0  0  0  0  0  0  0  0  0  0  0
   38.2356   10.5726  -18.8622 C   0  0  0  0  0  0  0  0  0  0  0  0
   37.4188   10.8569  -17.7752 C   0  0  0  0  0  0  0  0  0  0  0  0
   37.9004   11.5694  -16.6826 C   0  0  0  0  0  0  0  0  0  0  0  0
   39.2008   12.0166  -16.6410 C   0  0  0  0  0  0  0  0  0  0  0  0
   42.0596   12.2349  -18.0581 H   0  0  0  0  0  0  0  0  0  0  0  0
   35.4134   16.1482   -9.0356 C   0  0  0  0  0  0  0  0  0  0  0  0
   36.5941   17.4935   -7.2931 N   0  0  0  0  0  0  0  0  0  0  0  0
   36.5749   16.9668   -8.6304 C   0  0  0  0  0  0  0  0  0  0  0  0
   37.5535   17.2483   -9.3673 O   0  0  0  0  0  0  0  0  0  0  0  0
   35.8319   17.2982   -6.6382 H   0  0  0  0  0  0  0  0  0  0  0  0
   37.7169   18.3365   -6.8159 C   0  0  0  0  0  0  0  0  0  0  0  0
   38.3850   17.5004   -5.8001 C   0  0  0  0  0  0  0  0  0  0  0  0
   38.3502   17.9091   -4.4640 O   0  0  0  0  0  0  0  0  0  0  0  0
   38.9924   16.4383   -6.0611 O   0  0  0  0  0  0  0  0  0  0  0  0
   38.6019   17.2794   -3.7021 H   0  0  0  0  0  0  0  0  0  0  0  0
   37.0763   19.5350   -6.1678 C   0  0  0  0  0  0  0  0  0  0  0  0
   35.5627   21.0948   -7.4572 C   0  0  0  0  0  0  0  0  0  0  0  0
   36.9216   20.7776   -6.9337 C   0  0  0  0  0  0  0  0  0  0  0  0
   37.8399   20.6431   -8.1716 C   0  0  0  0  0  0  0  0  0  0  0  0
   35.4958   14.7924   -8.3899 C   0  0  0  0  0  0  0  0  0  0  0  0
   34.7014   14.6369   -7.1581 C   0  0  0  0  0  0  0  0  0  0  0  0
   35.2203   14.2218   -5.9564 C   0  0  0  0  0  0  0  0  0  0  0  0
   34.4447   14.0733   -4.8012 C   0  0  0  0  0  0  0  0  0  0  0  0
   33.1119   14.3609   -4.8997 C   0  0  0  0  0  0  0  0  0  0  0  0
   32.5848   14.7747   -6.0888 C   0  0  0  0  0  0  0  0  0  0  0  0
   33.3448   14.9174   -7.2092 C   0  0  0  0  0  0  0  0  0  0  0  0
 38 39  1  0  0  0
 39 40  1  0  0  0
 39 37  1  0  0  0
 37 32  1  0  0  0
 32 28  1  0  0  0
 28 29  1  0  0  0
 29 30  2  0  0  0
 29 27  1  0  0  0
 27 41  1  0  0  0
 41 42  1  0  0  0
 42 43  2  0  0  0
 43 44  1  0  0  0
 44 45  2  0  0  0
 45 46  1  0  0  0
 46 47  2  0  0  0
 27  1  1  0  0  0
  1  2  1  0  0  0
  2  3  2  0  0  0
  2  5  1  0  0  0
  5  6  1  0  0  0
  6  7  1  0  0  0
  7  8  1  0  0  0
  8  9  1  0  0  0
  9 10  1  0  0  0
 10 11  2  0  0  0
 10 12  1  0  0  0
 12 13  1  0  0  0
 12 16  1  0  0  0
 16 17  1  0  0  0
 17 18  2  0  0  0
 18 19  1  0  0  0
 19 20  1  0  0  0
 20 21  2  0  0  0
 21 22  1  0  0  0
 22 23  2  0  0  0
 23 24  1  0  0  0
 24 25  2  0  0  0
 32 33  1  0  0  0
 33 34  1  0  0  0
 33 35  2  0  0  0
 47 42  1  0  0  0
  9  5  1  0  0  0
 25 17  1  0  0  0
 25 20  1  0  0  0
 28 31  1  0  0  0
  1  4  1  0  0  0
 13 14  1  0  0  0
 13 15  1  0  0  0
 19 26  1  0  0  0
 34 36  1  0  0  0
M  END
> <minimizedAffinity>
-8.98339

> <CNNscore>
0.3011406660

> <CNNaffinity>
6.8115830421

> <CNN_VS>
2.0512447357

> <CNNaffinity_variance>
0.0502711162

$$$$
[H]OC(=O)[C@@]([H])(N([H])C(=O)[C@@]([H])(N([H])C(=O)[C@@]1([H])N(C(=O)[C@@]([H])(N([H])[H])C([H])([H])c2c([H])n([H])c3c([H])c([H])c([H])c([H])c23)C([H])([H])C([H])([H])C1([H])[H])C([H])([H])c1c([H])c([H])c([H])c([H])c1[H])C([H])([H])C([H])(C([H])([H])[H])C([H])([H])[H]


 47 50  0  0  0  0  0  0  0  0999 V2000
   35.6216   16.1461  -10.1506 N   0  0  0  0  0  0  0  0  0  0  0  0
   36.1715   15.1519  -10.9518 C   0  0  0  0  0  0  0  0  0  0  0  0
   37.0029   14.3748  -10.3137 O   0  0  0  0  0  0  0  0  0  0  0  0
   34.9687   16.8415  -10.5491 H   0  0  0  0  0  0  0  0  0  0  0  0
   36.0068   14.8230  -12.3472 C   0  0  0  0  0  0  0  0  0  0  0  0
   35.4276   13.3710  -12.4458 C   0  0  0  0  0  0  0  0  0  0  0  0
   35.6452   13.0504  -13.8949 C   0  0  0  0  0  0  0  0  0  0  0  0
   36.5354   14.1235  -14.4487 C   0  0  0  0  0  0  0  0  0  0  0  0
   37.1164   14.7121  -13.2256 N   0  0  0  0  0  0  0  0  0  0  0  0
   38.4602   15.1019  -13.2099 C   0  0  0  0  0  0  0  0  0  0  0  0
   38.8809   15.7933  -12.2549 O   0  0  0  0  0  0  0  0  0  0  0  0
   39.4062   14.7448  -14.2602 C   0  0  0  0  0  0  0  0  0  0  0  0
   40.7428   15.2595  -13.8001 N   0  0  0  0  0  0  0  0  0  0  0  0
   41.0256   14.6159  -13.0549 H   0  0  0  0  0  0  0  0  0  0  0  0
   40.6719   16.2542  -13.5497 H   0  0  0  0  0  0  0  0  0  0  0  0
   39.6769   13.2729  -14.4232 C   0  0  0  0  0  0  0  0  0  0  0  0
   39.9794   12.7530  -15.7287 C   0  0  0  0  0  0  0  0  0  0  0  0
   41.2173   12.9122  -16.3623 C   0  0  0  0  0  0  0  0  0  0  0  0
   41.1665   12.3119  -17.5639 N   0  0  0  0  0  0  0  0  0  0  0  0
   39.9545   11.7660  -17.7505 C   0  0  0  0  0  0  0  0  0  0  0  0
   39.4425   11.0614  -18.8144 C   0  0  0  0  0  0  0  0  0  0  0  0
   38.1342   10.5863  -18.7842 C   0  0  0  0  0  0  0  0  0  0  0  0
   37.3849   10.8544  -17.6456 C   0  0  0  0  0  0  0  0  0  0  0  0
   37.9256   11.5694  -16.5827 C   0  0  0  0  0  0  0  0  0  0  0  0
   39.2196   12.0350  -16.6223 C   0  0  0  0  0  0  0  0  0  0  0  0
   41.9781   12.3001  -18.2189 H   0  0  0  0  0  0  0  0  0  0  0  0
   35.9231   16.3247   -8.7374 C   0  0  0  0  0  0  0  0  0  0  0  0
   37.1326   14.6751   -7.3034 N   0  0  0  0  0  0  0  0  0  0  0  0
   35.9208   15.0595   -7.9739 C   0  0  0  0  0  0  0  0  0  0  0  0
   34.9393   14.2816   -7.8665 O   0  0  0  0  0  0  0  0  0  0  0  0
   37.9682   15.2651   -7.3445 H   0  0  0  0  0  0  0  0  0  0  0  0
   37.2148   13.4126   -6.5298 C   0  0  0  0  0  0  0  0  0  0  0  0
   36.6535   13.7643   -5.2113 C   0  0  0  0  0  0  0  0  0  0  0  0
   35.8484   12.8309   -4.5525 O   0  0  0  0  0  0  0  0  0  0  0  0
   36.8499   14.8596   -4.6397 O   0  0  0  0  0  0  0  0  0  0  0  0
   35.6116   12.9265   -3.5650 H   0  0  0  0  0  0  0  0  0  0  0  0
   38.6841   13.1073   -6.4082 C   0  0  0  0  0  0  0  0  0  0  0  0
   40.7657   13.7589   -7.6844 C   0  0  0  0  0  0  0  0  0  0  0  0
   39.6701   14.1401   -6.7488 C   0  0  0  0  0  0  0  0  0  0  0  0
   40.3567   14.5409   -5.4215 C   0  0  0  0  0  0  0  0  0  0  0  0
   34.9836   17.3084   -8.0958 C   0  0  0  0  0  0  0  0  0  0  0  0
   35.5245   18.0149   -6.9208 C   0  0  0  0  0  0  0  0  0  0  0  0
   36.6433   18.8106   -6.9504 C   0  0  0  0  0  0  0  0  0  0  0  0
   37.1436   19.4655   -5.8194 C   0  0  0  0  0  0  0  0  0  0  0  0
   36.4696   19.2888   -4.6432 C   0  0  0  0  0  0  0  0  0  0  0  0
   35.3561   18.5005   -4.6017 C   0  0  0  0  0  0  0  0  0  0  0  0
   34.8742   17.8662   -5.7056 C   0  0  0  0  0  0  0  0  0  0  0  0
 38 39  1  0  0  0
 39 40  1  0  0  0
 39 37  1  0  0  0
 37 32  1  0  0  0
 32 28  1  0  0  0
 28 29  1  0  0  0
 29 30  2  0  0  0
 29 27  1  0  0  0
 27 41  1  0  0  0
 41 42  1  0  0  0
 42 43  2  0  0  0
 43 44  1  0  0  0
 44 45  2  0  0  0
 45 46  1  0  0  0
 46 47  2  0  0  0
 27  1  1  0  0  0
  1  2  1  0  0  0
  2  3  2  0  0  0
  2  5  1  0  0  0
  5  6  1  0  0  0
  6  7  1  0  0  0
  7  8  1  0  0  0
  8  9  1  0  0  0
  9 10  1  0  0  0
 10 11  2  0  0  0
 10 12  1  0  0  0
 12 13  1  0  0  0
 12 16  1  0  0  0
 16 17  1  0  0  0
 17 18  2  0  0  0
 18 19  1  0  0  0
 19 20  1  0  0  0
 20 21  2  0  0  0
 21 22  1  0  0  0
 22 23  2  0  0  0
 23 24  1  0  0  0
 24 25  2  0  0  0
 32 33  1  0  0  0
 33 34  1  0  0  0
 33 35  2  0  0  0
 47 42  1  0  0  0
  9  5  1  0  0  0
 25 17  1  0  0  0
 25 20  1  0  0  0
 28 31  1  0  0  0
  1  4  1  0  0  0
 13 14  1  0  0  0
 13 15  1  0  0  0
 19 26  1  0  0  0
 34 36  1  0  0  0
M  END
> <minimizedAffinity>
-8.35336

> <CNNscore>
0.2969304621

> <CNNaffinity>
6.7160096169

> <CNN_VS>
1.9941878319

> <CNNaffinity_variance>
0.1198451370

$$$$
[H]OC(=O)[C@@]([H])(N([H])C(=O)[C@@]([H])(N([H])C(=O)[C@@]1([H])N(C(=O)[C@@]([H])(N([H])[H])C([H])([H])c2c([H])n([H])c3c([H])c([H])c([H])c([H])c23)C([H])([H])C([H])([H])C1([H])[H])C([H])([H])c1c([H])c([H])c([H])c([H])c1[H])C([H])([H])C([H])(C([H])([H])[H])C([H])([H])[H]


 47 50  0  0  0  0  0  0  0  0999 V2000
   35.0627   15.9040  -10.3084 N   0  0  0  0  0  0  0  0  0  0  0  0
   35.5604   14.9111  -11.1447 C   0  0  0  0  0  0  0  0  0  0  0  0
   36.2101   13.9762  -10.5073 O   0  0  0  0  0  0  0  0  0  0  0  0
   34.5527   16.7138  -10.6992 H   0  0  0  0  0  0  0  0  0  0  0  0
   35.5042   14.7229  -12.5742 C   0  0  0  0  0  0  0  0  0  0  0  0
   34.9141   13.3005  -12.8607 C   0  0  0  0  0  0  0  0  0  0  0  0
   35.2434   13.1173  -14.3126 C   0  0  0  0  0  0  0  0  0  0  0  0
   36.1906   14.2190  -14.6861 C   0  0  0  0  0  0  0  0  0  0  0  0
   36.6793   14.6731  -13.3689 N   0  0  0  0  0  0  0  0  0  0  0  0
   38.0230   15.0297  -13.2089 C   0  0  0  0  0  0  0  0  0  0  0  0
   38.3751   15.6157  -12.1603 O   0  0  0  0  0  0  0  0  0  0  0  0
   39.0454   14.7552  -14.2113 C   0  0  0  0  0  0  0  0  0  0  0  0
   40.3042   15.4012  -13.7001 N   0  0  0  0  0  0  0  0  0  0  0  0
   40.6135   14.7953  -12.9340 H   0  0  0  0  0  0  0  0  0  0  0  0
   40.1269   16.3868  -13.4672 H   0  0  0  0  0  0  0  0  0  0  0  0
   39.4634   13.3149  -14.3413 C   0  0  0  0  0  0  0  0  0  0  0  0
   39.8400   12.8047  -15.6313 C   0  0  0  0  0  0  0  0  0  0  0  0
   41.1035   12.9919  -16.2037 C   0  0  0  0  0  0  0  0  0  0  0  0
   41.1240   12.3935  -17.4072 N   0  0  0  0  0  0  0  0  0  0  0  0
   39.9345   11.8222  -17.6533 C   0  0  0  0  0  0  0  0  0  0  0  0
   39.4901   11.1094  -18.7417 C   0  0  0  0  0  0  0  0  0  0  0  0
   38.1923   10.6063  -18.7757 C   0  0  0  0  0  0  0  0  0  0  0  0
   37.3831   10.8556  -17.6746 C   0  0  0  0  0  0  0  0  0  0  0  0
   37.8560   11.5794  -16.5856 C   0  0  0  0  0  0  0  0  0  0  0  0
   39.1401   12.0727  -16.5617 C   0  0  0  0  0  0  0  0  0  0  0  0
   41.9665   12.4007  -18.0220 H   0  0  0  0  0  0  0  0  0  0  0  0
   35.2323   15.9233   -8.8624 C   0  0  0  0  0  0  0  0  0  0  0  0
   32.7720   15.4945   -8.8023 N   0  0  0  0  0  0  0  0  0  0  0  0
   33.9531   15.9530   -8.1234 C   0  0  0  0  0  0  0  0  0  0  0  0
   33.8101   16.3556   -6.9412 O   0  0  0  0  0  0  0  0  0  0  0  0
   32.8177   15.1478   -9.7644 H   0  0  0  0  0  0  0  0  0  0  0  0
   31.4483   15.5075   -8.1340 C   0  0  0  0  0  0  0  0  0  0  0  0
   30.5870   14.7141   -9.0318 C   0  0  0  0  0  0  0  0  0  0  0  0
   30.6509   13.3195   -8.9658 O   0  0  0  0  0  0  0  0  0  0  0  0
   29.7969   15.2151   -9.8622 O   0  0  0  0  0  0  0  0  0  0  0  0
   29.9416   12.7274   -9.3980 H   0  0  0  0  0  0  0  0  0  0  0  0
   31.0116   16.9483   -8.1288 C   0  0  0  0  0  0  0  0  0  0  0  0
   29.2540   16.7979   -6.3192 C   0  0  0  0  0  0  0  0  0  0  0  0
   30.4125   17.5202   -6.9169 C   0  0  0  0  0  0  0  0  0  0  0  0
   29.8900   18.9225   -7.3098 C   0  0  0  0  0  0  0  0  0  0  0  0
   36.0989   17.0728   -8.4269 C   0  0  0  0  0  0  0  0  0  0  0  0
   37.4510   16.7001   -7.9738 C   0  0  0  0  0  0  0  0  0  0  0  0
   38.5488   16.6438   -8.7969 C   0  0  0  0  0  0  0  0  0  0  0  0
   39.8223   16.2791   -8.3458 C   0  0  0  0  0  0  0  0  0  0  0  0
   39.9531   15.9692   -7.0208 C   0  0  0  0  0  0  0  0  0  0  0  0
   38.8692   16.0220   -6.1930 C   0  0  0  0  0  0  0  0  0  0  0  0
   37.6328   16.3779   -6.6379 C   0  0  0  0  0  0  0  0  0  0  0  0
 38 39  1  0  0  0
 39 40  1  0  0  0
 39 37  1  0  0  0
 37 32  1  0  0  0
 32 28  1  0  0  0
 28 29  1  0  0  0
 29 30  2  0  0  0
 29 27  1  0  0  0
 27 41  1  0  0  0
 41 42  1  0  0  0
 42 43  2  0  0  0
 43 44  1  0  0  0
 44 45  2  0  0  0
 45 46  1  0  0  0
 46 47  2  0  0  0
 27  1  1  0  0  0
  1  2  1  0  0  0
  2  3  2  0  0  0
  2  5  1  0  0  0
  5  6  1  0  0  0
  6  7  1  0  0  0
  7  8  1  0  0  0
  8  9  1  0  0  0
  9 10  1  0  0  0
 10 11  2  0  0  0
 10 12  1  0  0  0
 12 13  1  0  0  0
 12 16  1  0  0  0
 16 17  1  0  0  0
 17 18  2  0  0  0
 18 19  1  0  0  0
 19 20  1  0  0  0
 20 21  2  0  0  0
 21 22  1  0  0  0
 22 23  2  0  0  0
 23 24  1  0  0  0
 24 25  2  0  0  0
 32 33  1  0  0  0
 33 34  1  0  0  0
 33 35  2  0  0  0
 47 42  1  0  0  0
  9  5  1  0  0  0
 25 17  1  0  0  0
 25 20  1  0  0  0
 28 31  1  0  0  0
  1  4  1  0  0  0
 13 14  1  0  0  0
 13 15  1  0  0  0
 19 26  1  0  0  0
 34 36  1  0  0  0
M  END
> <minimizedAffinity>
-9.35553

> <CNNscore>
0.2954393029

> <CNNaffinity>
6.8852167130

> <CNN_VS>
2.0341637135

> <CNNaffinity_variance>
0.2446072549

$$$$
[H]OC(=O)[C@@]([H])(N([H])C(=O)[C@@]([H])(N([H])C(=O)[C@@]1([H])N(C(=O)[C@@]([H])(N([H])[H])C([H])([H])c2c([H])n([H])c3c([H])c([H])c([H])c([H])c23)C([H])([H])C([H])([H])C1([H])[H])C([H])([H])c1c([H])c([H])c([H])c([H])c1[H])C([H])([H])C([H])(C([H])([H])[H])C([H])([H])[H]


 47 50  0  0  0  0  0  0  0  0999 V2000
   35.9156   16.3209  -10.0079 N   0  0  0  0  0  0  0  0  0  0  0  0
   35.7679   15.2427  -10.8731 C   0  0  0  0  0  0  0  0  0  0  0  0
   35.9402   14.0869  -10.2926 O   0  0  0  0  0  0  0  0  0  0  0  0
   35.8295   17.2903  -10.3564 H   0  0  0  0  0  0  0  0  0  0  0  0
   35.4715   15.1582  -12.2827 C   0  0  0  0  0  0  0  0  0  0  0  0
   34.2820   14.1578  -12.4768 C   0  0  0  0  0  0  0  0  0  0  0  0
   34.3279   13.9079  -13.9551 C   0  0  0  0  0  0  0  0  0  0  0  0
   35.6169   14.4903  -14.4548 C   0  0  0  0  0  0  0  0  0  0  0  0
   36.4030   14.6259  -13.2123 N   0  0  0  0  0  0  0  0  0  0  0  0
   37.7734   14.3432  -13.2200 C   0  0  0  0  0  0  0  0  0  0  0  0
   38.4662   14.6686  -12.2294 O   0  0  0  0  0  0  0  0  0  0  0  0
   38.4456   13.6860  -14.3343 C   0  0  0  0  0  0  0  0  0  0  0  0
   39.9090   13.6824  -13.9855 N   0  0  0  0  0  0  0  0  0  0  0  0
   39.9992   12.9700  -13.2548 H   0  0  0  0  0  0  0  0  0  0  0  0
   40.2179   14.6330  -13.7449 H   0  0  0  0  0  0  0  0  0  0  0  0
   38.1588   12.2170  -14.4960 C   0  0  0  0  0  0  0  0  0  0  0  0
   37.7865   11.7104  -15.7887 C   0  0  0  0  0  0  0  0  0  0  0  0
   36.4916   11.2932  -16.1176 C   0  0  0  0  0  0  0  0  0  0  0  0
   36.4848   10.8770  -17.3958 N   0  0  0  0  0  0  0  0  0  0  0  0
   37.7133   11.0005  -17.9225 C   0  0  0  0  0  0  0  0  0  0  0  0
   38.1840   10.7033  -19.1797 C   0  0  0  0  0  0  0  0  0  0  0  0
   39.5212   10.9169  -19.5030 C   0  0  0  0  0  0  0  0  0  0  0  0
   40.3419   11.4365  -18.5100 C   0  0  0  0  0  0  0  0  0  0  0  0
   39.8418   11.7290  -17.2459 C   0  0  0  0  0  0  0  0  0  0  0  0
   38.5187   11.5139  -16.9361 C   0  0  0  0  0  0  0  0  0  0  0  0
   35.6242   10.5190  -17.8637 H   0  0  0  0  0  0  0  0  0  0  0  0
   36.2288   16.2021   -8.5909 C   0  0  0  0  0  0  0  0  0  0  0  0
   34.5482   15.1323   -7.0838 N   0  0  0  0  0  0  0  0  0  0  0  0
   35.0434   16.3238   -7.7172 C   0  0  0  0  0  0  0  0  0  0  0  0
   34.4230   17.3920   -7.4848 O   0  0  0  0  0  0  0  0  0  0  0  0
   35.0093   14.2293   -7.2250 H   0  0  0  0  0  0  0  0  0  0  0  0
   33.3544   15.1694   -6.2050 C   0  0  0  0  0  0  0  0  0  0  0  0
   33.7444   14.3552   -5.0378 C   0  0  0  0  0  0  0  0  0  0  0  0
   33.2998   14.7407   -3.7701 O   0  0  0  0  0  0  0  0  0  0  0  0
   34.4605   13.3319   -5.1096 O   0  0  0  0  0  0  0  0  0  0  0  0
   33.3543   14.1140   -2.9673 H   0  0  0  0  0  0  0  0  0  0  0  0
   32.2604   14.4833   -6.9792 C   0  0  0  0  0  0  0  0  0  0  0  0
   31.5815   15.7959   -9.0291 C   0  0  0  0  0  0  0  0  0  0  0  0
   31.2452   15.2886   -7.6688 C   0  0  0  0  0  0  0  0  0  0  0  0
   31.0097   16.5389   -6.7884 C   0  0  0  0  0  0  0  0  0  0  0  0
   37.2733   17.2008   -8.1743 C   0  0  0  0  0  0  0  0  0  0  0  0
   38.6666   16.7340   -8.2904 C   0  0  0  0  0  0  0  0  0  0  0  0
   39.4386   16.3468   -7.2228 C   0  0  0  0  0  0  0  0  0  0  0  0
   40.7629   15.9147   -7.3563 C   0  0  0  0  0  0  0  0  0  0  0  0
   41.2890   15.8860   -8.6177 C   0  0  0  0  0  0  0  0  0  0  0  0
   40.5310   16.2682   -9.6866 C   0  0  0  0  0  0  0  0  0  0  0  0
   39.2430   16.6874   -9.5502 C   0  0  0  0  0  0  0  0  0  0  0  0
 38 39  1  0  0  0
 39 40  1  0  0  0
 39 37  1  0  0  0
 37 32  1  0  0  0
 32 28  1  0  0  0
 28 29  1  0  0  0
 29 30  2  0  0  0
 29 27  1  0  0  0
 27 41  1  0  0  0
 41 42  1  0  0  0
 42 43  2  0  0  0
 43 44  1  0  0  0
 44 45  2  0  0  0
 45 46  1  0  0  0
 46 47  2  0  0  0
 27  1  1  0  0  0
  1  2  1  0  0  0
  2  3  2  0  0  0
  2  5  1  0  0  0
  5  6  1  0  0  0
  6  7  1  0  0  0
  7  8  1  0  0  0
  8  9  1  0  0  0
  9 10  1  0  0  0
 10 11  2  0  0  0
 10 12  1  0  0  0
 12 13  1  0  0  0
 12 16  1  0  0  0
 16 17  1  0  0  0
 17 18  2  0  0  0
 18 19  1  0  0  0
 19 20  1  0  0  0
 20 21  2  0  0  0
 21 22  1  0  0  0
 22 23  2  0  0  0
 23 24  1  0  0  0
 24 25  2  0  0  0
 32 33  1  0  0  0
 33 34  1  0  0  0
 33 35  2  0  0  0
 47 42  1  0  0  0
  9  5  1  0  0  0
 25 17  1  0  0  0
 25 20  1  0  0  0
 28 31  1  0  0  0
  1  4  1  0  0  0
 13 14  1  0  0  0
 13 15  1  0  0  0
 19 26  1  0  0  0
 34 36  1  0  0  0
M  END
> <minimizedAffinity>
-8.78982

> <CNNscore>
0.2644289136

> <CNNaffinity>
6.8209633827

> <CNN_VS>
1.8036599159

> <CNNaffinity_variance>
0.3173568845

$$$$
[H]OC(=O)[C@@]([H])(N([H])C(=O)[C@@]([H])(N([H])C(=O)[C@@]1([H])N(C(=O)[C@@]([H])(N([H])[H])C([H])([H])c2c([H])n([H])c3c([H])c([H])c([H])c([H])c23)C([H])([H])C([H])([H])C1([H])[H])C([H])([H])c1c([H])c([H])c([H])c([H])c1[H])C([H])([H])C([H])(C([H])([H])[H])C([H])([H])[H]


 47 50  0  0  0  0  0  0  0  0999 V2000
   42.2063   14.6004  -11.7362 N   0  0  0  0  0  0  0  0  0  0  0  0
   41.4878   15.7813  -11.8848 C   0  0  0  0  0  0  0  0  0  0  0  0
   42.0417   16.6225  -12.7142 O   0  0  0  0  0  0  0  0  0  0  0  0
   41.8824   13.8662  -11.0845 H   0  0  0  0  0  0  0  0  0  0  0  0
   40.2595   16.2551  -11.2941 C   0  0  0  0  0  0  0  0  0  0  0  0
   40.2611   15.8671   -9.7765 C   0  0  0  0  0  0  0  0  0  0  0  0
   38.8270   16.0935   -9.3993 C   0  0  0  0  0  0  0  0  0  0  0  0
   38.0678   16.2952  -10.6774 C   0  0  0  0  0  0  0  0  0  0  0  0
   38.9950   15.7415  -11.6843 N   0  0  0  0  0  0  0  0  0  0  0  0
   38.4940   15.0001  -12.7602 C   0  0  0  0  0  0  0  0  0  0  0  0
   39.2552   14.7256  -13.7154 O   0  0  0  0  0  0  0  0  0  0  0  0
   37.1164   14.5283  -12.8304 C   0  0  0  0  0  0  0  0  0  0  0  0
   36.5911   14.9940  -14.1610 N   0  0  0  0  0  0  0  0  0  0  0  0
   37.0430   14.3813  -14.8466 H   0  0  0  0  0  0  0  0  0  0  0  0
   36.7481   16.0042  -14.2696 H   0  0  0  0  0  0  0  0  0  0  0  0
   36.9407   13.0365  -12.9294 C   0  0  0  0  0  0  0  0  0  0  0  0
   36.4834   12.4618  -14.1652 C   0  0  0  0  0  0  0  0  0  0  0  0
   35.1331   12.2887  -14.4904 C   0  0  0  0  0  0  0  0  0  0  0  0
   35.0521   11.7266  -15.7086 N   0  0  0  0  0  0  0  0  0  0  0  0
   36.2845   11.5217  -16.1997 C   0  0  0  0  0  0  0  0  0  0  0  0
   36.6951   10.9769  -17.3934 C   0  0  0  0  0  0  0  0  0  0  0  0
   38.0507   10.8620  -17.6892 C   0  0  0  0  0  0  0  0  0  0  0  0
   38.9521   11.3173  -16.7354 C   0  0  0  0  0  0  0  0  0  0  0  0
   38.5117   11.8645  -15.5354 C   0  0  0  0  0  0  0  0  0  0  0  0
   37.1698   11.9734  -15.2522 C   0  0  0  0  0  0  0  0  0  0  0  0
   34.1403   11.5021  -16.1625 H   0  0  0  0  0  0  0  0  0  0  0  0
   43.4538   14.3039  -12.4260 C   0  0  0  0  0  0  0  0  0  0  0  0
   44.7874   16.2358  -11.5718 N   0  0  0  0  0  0  0  0  0  0  0  0
   44.6482   14.8129  -11.7204 C   0  0  0  0  0  0  0  0  0  0  0  0
   45.5639   14.0980  -11.2404 O   0  0  0  0  0  0  0  0  0  0  0  0
   44.0755   16.8761  -11.9340 H   0  0  0  0  0  0  0  0  0  0  0  0
   45.9649   16.8250  -10.8897 C   0  0  0  0  0  0  0  0  0  0  0  0
   45.4770   17.1250   -9.5298 C   0  0  0  0  0  0  0  0  0  0  0  0
   45.2707   18.4593   -9.1686 O   0  0  0  0  0  0  0  0  0  0  0  0
   45.2376   16.2518   -8.6666 O   0  0  0  0  0  0  0  0  0  0  0  0
   44.7418   18.7153   -8.3348 H   0  0  0  0  0  0  0  0  0  0  0  0
   46.2656   18.1006  -11.6307 C   0  0  0  0  0  0  0  0  0  0  0  0
   48.2207   19.3956  -12.5725 C   0  0  0  0  0  0  0  0  0  0  0  0
   47.4025   18.1500  -12.5579 C   0  0  0  0  0  0  0  0  0  0  0  0
   46.8106   18.0064  -13.9802 C   0  0  0  0  0  0  0  0  0  0  0  0
   43.4369   14.8223  -13.8378 C   0  0  0  0  0  0  0  0  0  0  0  0
   43.6427   13.8019  -14.8813 C   0  0  0  0  0  0  0  0  0  0  0  0
   42.6232   13.1735  -15.5532 C   0  0  0  0  0  0  0  0  0  0  0  0
   42.8426   12.2011  -16.5352 C   0  0  0  0  0  0  0  0  0  0  0  0
   44.1404   11.8795  -16.8203 C   0  0  0  0  0  0  0  0  0  0  0  0
   45.1620   12.4977  -16.1592 C   0  0  0  0  0  0  0  0  0  0  0  0
   44.9421   13.4433  -15.2049 C   0  0  0  0  0  0  0  0  0  0  0  0
 38 39  1  0  0  0
 39 40  1  0  0  0
 39 37  1  0  0  0
 37 32  1  0  0  0
 32 28  1  0  0  0
 28 29  1  0  0  0
 29 30  2  0  0  0
 29 27  1  0  0  0
 27 41  1  0  0  0
 41 42  1  0  0  0
 42 43  2  0  0  0
 43 44  1  0  0  0
 44 45  2  0  0  0
 45 46  1  0  0  0
 46 47  2  0  0  0
 27  1  1  0  0  0
  1  2  1  0  0  0
  2  3  2  0  0  0
  2  5  1  0  0  0
  5  6  1  0  0  0
  6  7  1  0  0  0
  7  8  1  0  0  0
  8  9  1  0  0  0
  9 10  1  0  0  0
 10 11  2  0  0  0
 10 12  1  0  0  0
 12 13  1  0  0  0
 12 16  1  0  0  0
 16 17  1  0  0  0
 17 18  2  0  0  0
 18 19  1  0  0  0
 19 20  1  0  0  0
 20 21  2  0  0  0
 21 22  1  0  0  0
 22 23  2  0  0  0
 23 24  1  0  0  0
 24 25  2  0  0  0
 32 33  1  0  0  0
 33 34  1  0  0  0
 33 35  2  0  0  0
 47 42  1  0  0  0
  9  5  1  0  0  0
 25 17  1  0  0  0
 25 20  1  0  0  0
 28 31  1  0  0  0
  1  4  1  0  0  0
 13 14  1  0  0  0
 13 15  1  0  0  0
 19 26  1  0  0  0
 34 36  1  0  0  0
M  END
> <minimizedAffinity>
-8.81824

> <CNNscore>
0.2613254488

> <CNNaffinity>
6.8554658890

> <CNN_VS>
1.7915077209

> <CNNaffinity_variance>
0.1600833684

$$$$
[H]OC(=O)[C@@]([H])(N([H])C(=O)[C@@]([H])(N([H])C(=O)[C@@]1([H])N(C(=O)[C@@]([H])(N([H])[H])C([H])([H])c2c([H])n([H])c3c([H])c([H])c([H])c([H])c23)C([H])([H])C([H])([H])C1([H])[H])C([H])([H])c1c([H])c([H])c([H])c([H])c1[H])C([H])([H])C([H])(C([H])([H])[H])C([H])([H])[H]


 47 50  0  0  0  0  0  0  0  0999 V2000
   35.1559   15.9509   -9.9758 N   0  0  0  0  0  0  0  0  0  0  0  0
   35.7508   15.0342  -10.8353 C   0  0  0  0  0  0  0  0  0  0  0  0
   36.5658   14.2133  -10.2317 O   0  0  0  0  0  0  0  0  0  0  0  0
   34.5106   16.6715  -10.3404 H   0  0  0  0  0  0  0  0  0  0  0  0
   35.6469   14.8242  -12.2591 C   0  0  0  0  0  0  0  0  0  0  0  0
   35.0746   13.3869  -12.5044 C   0  0  0  0  0  0  0  0  0  0  0  0
   35.3551   13.1890  -13.9646 C   0  0  0  0  0  0  0  0  0  0  0  0
   36.2667   14.3029  -14.3873 C   0  0  0  0  0  0  0  0  0  0  0  0
   36.7935   14.7853  -13.0951 N   0  0  0  0  0  0  0  0  0  0  0  0
   38.1348   15.1695  -12.9887 C   0  0  0  0  0  0  0  0  0  0  0  0
   38.5129   15.7772  -11.9616 O   0  0  0  0  0  0  0  0  0  0  0  0
   39.1257   14.8999  -14.0236 C   0  0  0  0  0  0  0  0  0  0  0  0
   40.3946   15.5605  -13.5577 N   0  0  0  0  0  0  0  0  0  0  0  0
   40.7353   14.9613  -12.7998 H   0  0  0  0  0  0  0  0  0  0  0  0
   40.2156   16.5454  -13.3235 H   0  0  0  0  0  0  0  0  0  0  0  0
   39.5531   13.4630  -14.1609 C   0  0  0  0  0  0  0  0  0  0  0  0
   39.9299   12.9611  -15.4541 C   0  0  0  0  0  0  0  0  0  0  0  0
   41.1788   13.1884  -16.0436 C   0  0  0  0  0  0  0  0  0  0  0  0
   41.2038   12.5867  -17.2453 N   0  0  0  0  0  0  0  0  0  0  0  0
   40.0310   11.9750  -17.4740 C   0  0  0  0  0  0  0  0  0  0  0  0
   39.5967   11.2438  -18.5543 C   0  0  0  0  0  0  0  0  0  0  0  0
   38.3161   10.6975  -18.5697 C   0  0  0  0  0  0  0  0  0  0  0  0
   37.5133   10.9235  -17.4589 C   0  0  0  0  0  0  0  0  0  0  0  0
   37.9758   11.6667  -16.3785 C   0  0  0  0  0  0  0  0  0  0  0  0
   39.2429   12.2027  -16.3730 C   0  0  0  0  0  0  0  0  0  0  0  0
   42.0376   12.6198  -17.8711 H   0  0  0  0  0  0  0  0  0  0  0  0
   35.3977   16.0109   -8.5413 C   0  0  0  0  0  0  0  0  0  0  0  0
   33.3919   15.0712   -7.3863 N   0  0  0  0  0  0  0  0  0  0  0  0
   34.7606   14.9071   -7.7936 C   0  0  0  0  0  0  0  0  0  0  0  0
   35.3237   13.8291   -7.4760 O   0  0  0  0  0  0  0  0  0  0  0  0
   32.8714   15.9221   -7.6168 H   0  0  0  0  0  0  0  0  0  0  0  0
   32.6871   14.0156   -6.6195 C   0  0  0  0  0  0  0  0  0  0  0  0
   31.3039   14.0658   -7.1310 C   0  0  0  0  0  0  0  0  0  0  0  0
   30.3523   14.8069   -6.4248 O   0  0  0  0  0  0  0  0  0  0  0  0
   30.9216   13.4764   -8.1661 O   0  0  0  0  0  0  0  0  0  0  0  0
   29.4504   15.0524   -6.8331 H   0  0  0  0  0  0  0  0  0  0  0  0
   32.7298   14.4625   -5.1824 C   0  0  0  0  0  0  0  0  0  0  0  0
   34.6971   15.2428   -3.8014 C   0  0  0  0  0  0  0  0  0  0  0  0
   33.6262   15.5564   -4.7893 C   0  0  0  0  0  0  0  0  0  0  0  0
   32.7338   16.6347   -4.1299 C   0  0  0  0  0  0  0  0  0  0  0  0
   34.9651   17.3317   -7.9666 C   0  0  0  0  0  0  0  0  0  0  0  0
   35.9857   18.3944   -8.0037 C   0  0  0  0  0  0  0  0  0  0  0  0
   36.0075   19.4689   -7.1488 C   0  0  0  0  0  0  0  0  0  0  0  0
   36.9825   20.4709   -7.2081 C   0  0  0  0  0  0  0  0  0  0  0  0
   37.9464   20.3518   -8.1702 C   0  0  0  0  0  0  0  0  0  0  0  0
   37.9351   19.2879   -9.0253 C   0  0  0  0  0  0  0  0  0  0  0  0
   36.9839   18.3161   -8.9623 C   0  0  0  0  0  0  0  0  0  0  0  0
 38 39  1  0  0  0
 39 40  1  0  0  0
 39 37  1  0  0  0
 37 32  1  0  0  0
 32 28  1  0  0  0
 28 29  1  0  0  0
 29 30  2  0  0  0
 29 27  1  0  0  0
 27 41  1  0  0  0
 41 42  1  0  0  0
 42 43  2  0  0  0
 43 44  1  0  0  0
 44 45  2  0  0  0
 45 46  1  0  0  0
 46 47  2  0  0  0
 27  1  1  0  0  0
  1  2  1  0  0  0
  2  3  2  0  0  0
  2  5  1  0  0  0
  5  6  1  0  0  0
  6  7  1  0  0  0
  7  8  1  0  0  0
  8  9  1  0  0  0
  9 10  1  0  0  0
 10 11  2  0  0  0
 10 12  1  0  0  0
 12 13  1  0  0  0
 12 16  1  0  0  0
 16 17  1  0  0  0
 17 18  2  0  0  0
 18 19  1  0  0  0
 19 20  1  0  0  0
 20 21  2  0  0  0
 21 22  1  0  0  0
 22 23  2  0  0  0
 23 24  1  0  0  0
 24 25  2  0  0  0
 32 33  1  0  0  0
 33 34  1  0  0  0
 33 35  2  0  0  0
 47 42  1  0  0  0
  9  5  1  0  0  0
 25 17  1  0  0  0
 25 20  1  0  0  0
 28 31  1  0  0  0
  1  4  1  0  0  0
 13 14  1  0  0  0
 13 15  1  0  0  0
 19 26  1  0  0  0
 34 36  1  0  0  0
M  END
> <minimizedAffinity>
-9.23288

> <CNNscore>
0.2558277547

> <CNNaffinity>
6.6270127296

> <CNN_VS>
1.6953737736

> <CNNaffinity_variance>
0.1522612572

$$$$
[H]OC(=O)[C@@]([H])(N([H])C(=O)[C@@]([H])(N([H])C(=O)[C@@]1([H])N(C(=O)[C@@]([H])(N([H])[H])C([H])([H])c2c([H])n([H])c3c([H])c([H])c([H])c([H])c23)C([H])([H])C([H])([H])C1([H])[H])C([H])([H])c1c([H])c([H])c([H])c([H])c1[H])C([H])([H])C([H])(C([H])([H])[H])C([H])([H])[H]


 47 50  0  0  0  0  0  0  0  0999 V2000
   35.4919   16.0958  -10.1406 N   0  0  0  0  0  0  0  0  0  0  0  0
   35.7058   15.0264  -11.0029 C   0  0  0  0  0  0  0  0  0  0  0  0
   36.0267   13.9219  -10.3867 O   0  0  0  0  0  0  0  0  0  0  0  0
   35.2582   17.0319  -10.5118 H   0  0  0  0  0  0  0  0  0  0  0  0
   35.6501   14.9073  -12.4398 C   0  0  0  0  0  0  0  0  0  0  0  0
   34.9997   13.5272  -12.7947 C   0  0  0  0  0  0  0  0  0  0  0  0
   35.3295   13.3971  -14.2522 C   0  0  0  0  0  0  0  0  0  0  0  0
   36.3267   14.4720  -14.5701 C   0  0  0  0  0  0  0  0  0  0  0  0
   36.8268   14.8424  -13.2312 N   0  0  0  0  0  0  0  0  0  0  0  0
   38.1839   15.1313  -13.0492 C   0  0  0  0  0  0  0  0  0  0  0  0
   38.5550   15.6519  -11.9730 O   0  0  0  0  0  0  0  0  0  0  0  0
   39.1994   14.8586  -14.0591 C   0  0  0  0  0  0  0  0  0  0  0  0
   40.4615   15.5044  -13.5558 N   0  0  0  0  0  0  0  0  0  0  0  0
   40.7763   14.8975  -12.7928 H   0  0  0  0  0  0  0  0  0  0  0  0
   40.2854   16.4895  -13.3203 H   0  0  0  0  0  0  0  0  0  0  0  0
   39.6169   13.4186  -14.1940 C   0  0  0  0  0  0  0  0  0  0  0  0
   39.9869   12.9109  -15.4869 C   0  0  0  0  0  0  0  0  0  0  0  0
   41.2424   13.1121  -16.0719 C   0  0  0  0  0  0  0  0  0  0  0  0
   41.2582   12.5122  -17.2747 N   0  0  0  0  0  0  0  0  0  0  0  0
   40.0731   11.9266  -17.5084 C   0  0  0  0  0  0  0  0  0  0  0  0
   39.6265   11.2070  -18.5915 C   0  0  0  0  0  0  0  0  0  0  0  0
   38.3344   10.6888  -18.6121 C   0  0  0  0  0  0  0  0  0  0  0  0
   37.5331   10.9302  -17.5034 C   0  0  0  0  0  0  0  0  0  0  0  0
   38.0081   11.6611  -16.4201 C   0  0  0  0  0  0  0  0  0  0  0  0
   39.2865   12.1694  -16.4095 C   0  0  0  0  0  0  0  0  0  0  0  0
   42.0945   12.5282  -17.8977 H   0  0  0  0  0  0  0  0  0  0  0  0
   35.6054   16.0196   -8.6911 C   0  0  0  0  0  0  0  0  0  0  0  0
   34.3393   17.3688   -7.0127 N   0  0  0  0  0  0  0  0  0  0  0  0
   35.3666   17.3124   -8.0164 C   0  0  0  0  0  0  0  0  0  0  0  0
   35.9893   18.3781   -8.2544 O   0  0  0  0  0  0  0  0  0  0  0  0
   33.7974   16.5364   -6.7651 H   0  0  0  0  0  0  0  0  0  0  0  0
   34.0292   18.6327   -6.3017 C   0  0  0  0  0  0  0  0  0  0  0  0
   34.5773   18.4246   -4.9476 C   0  0  0  0  0  0  0  0  0  0  0  0
   35.3376   19.4431   -4.3661 O   0  0  0  0  0  0  0  0  0  0  0  0
   34.4077   17.3806   -4.2797 O   0  0  0  0  0  0  0  0  0  0  0  0
   35.5590   19.4476   -3.3704 H   0  0  0  0  0  0  0  0  0  0  0  0
   32.5264   18.7105   -6.2513 C   0  0  0  0  0  0  0  0  0  0  0  0
   30.6335   17.8005   -7.6566 C   0  0  0  0  0  0  0  0  0  0  0  0
   31.7258   17.5547   -6.6730 C   0  0  0  0  0  0  0  0  0  0  0  0
   31.0419   17.0100   -5.3965 C   0  0  0  0  0  0  0  0  0  0  0  0
   36.9400   15.4661   -8.2735 C   0  0  0  0  0  0  0  0  0  0  0  0
   37.0205   15.0180   -6.8717 C   0  0  0  0  0  0  0  0  0  0  0  0
   36.1682   14.1005   -6.3081 C   0  0  0  0  0  0  0  0  0  0  0  0
   36.2585   13.6960   -4.9716 C   0  0  0  0  0  0  0  0  0  0  0  0
   37.2492   14.2547   -4.2130 C   0  0  0  0  0  0  0  0  0  0  0  0
   38.1025   15.1675   -4.7623 C   0  0  0  0  0  0  0  0  0  0  0  0
   38.0096   15.5567   -6.0635 C   0  0  0  0  0  0  0  0  0  0  0  0
 38 39  1  0  0  0
 39 40  1  0  0  0
 39 37  1  0  0  0
 37 32  1  0  0  0
 32 28  1  0  0  0
 28 29  1  0  0  0
 29 30  2  0  0  0
 29 27  1  0  0  0
 27 41  1  0  0  0
 41 42  1  0  0  0
 42 43  2  0  0  0
 43 44  1  0  0  0
 44 45  2  0  0  0
 45 46  1  0  0  0
 46 47  2  0  0  0
 27  1  1  0  0  0
  1  2  1  0  0  0
  2  3  2  0  0  0
  2  5  1  0  0  0
  5  6  1  0  0  0
  6  7  1  0  0  0
  7  8  1  0  0  0
  8  9  1  0  0  0
  9 10  1  0  0  0
 10 11  2  0  0  0
 10 12  1  0  0  0
 12 13  1  0  0  0
 12 16  1  0  0  0
 16 17  1  0  0  0
 17 18  2  0  0  0
 18 19  1  0  0  0
 19 20  1  0  0  0
 20 21  2  0  0  0
 21 22  1  0  0  0
 22 23  2  0  0  0
 23 24  1  0  0  0
 24 25  2  0  0  0
 32 33  1  0  0  0
 33 34  1  0  0  0
 33 35  2  0  0  0
 47 42  1  0  0  0
  9  5  1  0  0  0
 25 17  1  0  0  0
 25 20  1  0  0  0
 28 31  1  0  0  0
  1  4  1  0  0  0
 13 14  1  0  0  0
 13 15  1  0  0  0
 19 26  1  0  0  0
 34 36  1  0  0  0
M  END
> <minimizedAffinity>
-8.42432

> <CNNscore>
0.2379956692

> <CNNaffinity>
6.5894064903

> <CNN_VS>
1.5682501793

> <CNNaffinity_variance>
0.1618545353

$$$$
[H]c1c([H])c([H])c(-c2nsc(N3C([H])([H])C([H])([H])[C@]([H])(N([H])C(=O)c4c([H])c(OC([H])([H])[H])c(OC([H])([H])[H])c(OC([H])([H])[H])c4[H])C3([H])[H])n2)c([H])c1[H]


 32 35  0  0  0  0  0  0  0  0999 V2000
   38.8269   14.8742  -13.1258 C   0  0  0  0  0  0  0  0  0  0  0  0
   39.8298   15.4887  -13.5654 O   0  0  0  0  0  0  0  0  0  0  0  0
   38.2704   15.1181  -11.8438 N   0  0  0  0  0  0  0  0  0  0  0  0
   37.4426   14.5960  -11.5197 H   0  0  0  0  0  0  0  0  0  0  0  0
   38.4584   12.1924  -15.6679 C   0  0  0  0  0  0  0  0  0  0  0  0
   39.0264   13.1648  -14.8672 C   0  0  0  0  0  0  0  0  0  0  0  0
   38.2158   13.8700  -13.9809 C   0  0  0  0  0  0  0  0  0  0  0  0
   36.8738   13.5967  -13.9108 C   0  0  0  0  0  0  0  0  0  0  0  0
   36.2703   12.6179  -14.7081 C   0  0  0  0  0  0  0  0  0  0  0  0
   37.1092   11.9419  -15.5734 C   0  0  0  0  0  0  0  0  0  0  0  0
   40.0613   12.1826  -17.4463 C   0  0  0  0  0  0  0  0  0  0  0  0
   39.2110   11.4638  -16.5635 O   0  0  0  0  0  0  0  0  0  0  0  0
   34.9202   12.3272  -14.6492 O   0  0  0  0  0  0  0  0  0  0  0  0
   34.0507   13.3510  -14.1888 C   0  0  0  0  0  0  0  0  0  0  0  0
   36.5681   10.9626  -16.3872 O   0  0  0  0  0  0  0  0  0  0  0  0
   35.9950   11.3627  -17.6168 C   0  0  0  0  0  0  0  0  0  0  0  0
   38.8627   16.1185  -10.9593 C   0  0  0  0  0  0  0  0  0  0  0  0
   37.7478   16.9632  -10.3413 C   0  0  0  0  0  0  0  0  0  0  0  0
   37.8807   16.8392   -8.8558 C   0  0  0  0  0  0  0  0  0  0  0  0
   39.0823   16.0789   -8.6047 N   0  0  0  0  0  0  0  0  0  0  0  0
   39.6143   15.5228   -9.8139 C   0  0  0  0  0  0  0  0  0  0  0  0
   39.6334   15.9382   -7.2855 C   0  0  0  0  0  0  0  0  0  0  0  0
   40.6000   16.6311   -6.7025 N   0  0  0  0  0  0  0  0  0  0  0  0
   40.9320   16.3557   -5.4722 C   0  0  0  0  0  0  0  0  0  0  0  0
   40.2641   15.3724   -4.8618 N   0  0  0  0  0  0  0  0  0  0  0  0
   39.1810   14.8517   -6.0304 S   0  0  0  0  0  0  0  0  0  0  0  0
   42.0114   17.0885   -4.7636 C   0  0  0  0  0  0  0  0  0  0  0  0
   42.0397   18.4580   -4.8338 C   0  0  0  0  0  0  0  0  0  0  0  0
   43.0587   19.1468   -4.1560 C   0  0  0  0  0  0  0  0  0  0  0  0
   44.0109   18.4777   -3.4350 C   0  0  0  0  0  0  0  0  0  0  0  0
   43.9843   17.0840   -3.3610 C   0  0  0  0  0  0  0  0  0  0  0  0
   42.9672   16.4272   -4.0399 C   0  0  0  0  0  0  0  0  0  0  0  0
 11 12  1  0  0  0
 12  5  1  0  0  0
  5  6  2  0  0  0
  6  7  1  0  0  0
  7  8  2  0  0  0
  8  9  1  0  0  0
  9 13  1  0  0  0
 13 14  1  0  0  0
  9 10  2  0  0  0
 10 15  1  0  0  0
 15 16  1  0  0  0
  7  1  1  0  0  0
  1  2  2  0  0  0
  1  3  1  0  0  0
  3 17  1  0  0  0
 17 18  1  0  0  0
 18 19  1  0  0  0
 19 20  1  0  0  0
 20 21  1  0  0  0
 20 22  1  0  0  0
 22 23  2  0  0  0
 23 24  1  0  0  0
 24 25  2  0  0  0
 25 26  1  0  0  0
 24 27  1  0  0  0
 27 28  2  0  0  0
 28 29  1  0  0  0
 29 30  2  0  0  0
 30 31  1  0  0  0
 31 32  2  0  0  0
 10  5  1  0  0  0
 21 17  1  0  0  0
 26 22  1  0  0  0
 32 27  1  0  0  0
  3  4  1  0  0  0
M  END
> <minimizedAffinity>
-6.55729

> <CNNscore>
0.2727470100

> <CNNaffinity>
5.5063624382

> <CNN_VS>
1.5018439293

> <CNNaffinity_variance>
0.2397788465

$$$$
[H]c1c([H])c([H])c(-c2nsc(N3C([H])([H])C([H])([H])[C@]([H])(N([H])C(=O)c4c([H])c(OC([H])([H])[H])c(OC([H])([H])[H])c(OC([H])([H])[H])c4[H])C3([H])[H])n2)c([H])c1[H]


 32 35  0  0  0  0  0  0  0  0999 V2000
   37.8598   14.1942  -14.0370 C   0  0  0  0  0  0  0  0  0  0  0  0
   38.9053   14.8886  -13.9994 O   0  0  0  0  0  0  0  0  0  0  0  0
   36.7730   14.3827  -13.1447 N   0  0  0  0  0  0  0  0  0  0  0  0
   35.9284   13.7951  -13.2101 H   0  0  0  0  0  0  0  0  0  0  0  0
   36.4141   11.7371  -16.4166 C   0  0  0  0  0  0  0  0  0  0  0  0
   36.5097   12.7099  -15.4400 C   0  0  0  0  0  0  0  0  0  0  0  0
   37.7705   13.1534  -15.0479 C   0  0  0  0  0  0  0  0  0  0  0  0
   38.8956   12.6263  -15.6280 C   0  0  0  0  0  0  0  0  0  0  0  0
   38.8307   11.6409  -16.6193 C   0  0  0  0  0  0  0  0  0  0  0  0
   37.5617   11.2288  -16.9792 C   0  0  0  0  0  0  0  0  0  0  0  0
   34.1002   11.3481  -15.9408 C   0  0  0  0  0  0  0  0  0  0  0  0
   35.1939   11.2596  -16.8436 O   0  0  0  0  0  0  0  0  0  0  0  0
   39.9537   11.1000  -17.2169 O   0  0  0  0  0  0  0  0  0  0  0  0
   40.8200   11.9895  -17.9059 C   0  0  0  0  0  0  0  0  0  0  0  0
   37.4355   10.2559  -17.9548 O   0  0  0  0  0  0  0  0  0  0  0  0
   37.7026   10.6206  -19.2950 C   0  0  0  0  0  0  0  0  0  0  0  0
   36.8327   15.4181  -12.1158 C   0  0  0  0  0  0  0  0  0  0  0  0
   35.4206   15.6880  -11.5948 C   0  0  0  0  0  0  0  0  0  0  0  0
   35.4479   15.4444  -10.1184 C   0  0  0  0  0  0  0  0  0  0  0  0
   36.8219   15.1792   -9.7628 N   0  0  0  0  0  0  0  0  0  0  0  0
   37.6445   15.0218  -10.9261 C   0  0  0  0  0  0  0  0  0  0  0  0
   37.2538   15.1013   -8.3949 C   0  0  0  0  0  0  0  0  0  0  0  0
   38.2441   15.7404   -7.7908 N   0  0  0  0  0  0  0  0  0  0  0  0
   38.4507   15.5437   -6.5186 C   0  0  0  0  0  0  0  0  0  0  0  0
   37.6351   14.6929   -5.8889 N   0  0  0  0  0  0  0  0  0  0  0  0
   36.5921   14.1839   -7.0984 S   0  0  0  0  0  0  0  0  0  0  0  0
   39.5477   16.2221   -5.7834 C   0  0  0  0  0  0  0  0  0  0  0  0
   39.5451   17.5913   -5.7040 C   0  0  0  0  0  0  0  0  0  0  0  0
   40.5813   18.2279   -5.0015 C   0  0  0  0  0  0  0  0  0  0  0  0
   41.5801   17.5086   -4.4023 C   0  0  0  0  0  0  0  0  0  0  0  0
   41.5852   16.1148   -4.4808 C   0  0  0  0  0  0  0  0  0  0  0  0
   40.5502   15.5103   -5.1809 C   0  0  0  0  0  0  0  0  0  0  0  0
 11 12  1  0  0  0
 12  5  1  0  0  0
  5  6  2  0  0  0
  6  7  1  0  0  0
  7  8  2  0  0  0
  8  9  1  0  0  0
  9 13  1  0  0  0
 13 14  1  0  0  0
  9 10  2  0  0  0
 10 15  1  0  0  0
 15 16  1  0  0  0
  7  1  1  0  0  0
  1  2  2  0  0  0
  1  3  1  0  0  0
  3 17  1  0  0  0
 17 18  1  0  0  0
 18 19  1  0  0  0
 19 20  1  0  0  0
 20 21  1  0  0  0
 20 22  1  0  0  0
 22 23  2  0  0  0
 23 24  1  0  0  0
 24 25  2  0  0  0
 25 26  1  0  0  0
 24 27  1  0  0  0
 27 28  2  0  0  0
 28 29  1  0  0  0
 29 30  2  0  0  0
 30 31  1  0  0  0
 31 32  2  0  0  0
 10  5  1  0  0  0
 21 17  1  0  0  0
 26 22  1  0  0  0
 32 27  1  0  0  0
  3  4  1  0  0  0
M  END
> <minimizedAffinity>
-7.25054

> <CNNscore>
0.2636675239

> <CNNaffinity>
5.8657150269

> <CNN_VS>
1.5465985537

> <CNNaffinity_variance>
0.2614237964

$$$$
[H]c1c([H])c([H])c(-c2nsc(N3C([H])([H])C([H])([H])[C@]([H])(N([H])C(=O)c4c([H])c(OC([H])([H])[H])c(OC([H])([H])[H])c(OC([H])([H])[H])c4[H])C3([H])[H])n2)c([H])c1[H]


 32 35  0  0  0  0  0  0  0  0999 V2000
   38.9899   14.8540  -13.0200 C   0  0  0  0  0  0  0  0  0  0  0  0
   39.9439   15.5018  -13.5170 O   0  0  0  0  0  0  0  0  0  0  0  0
   38.5184   15.0624  -11.6982 N   0  0  0  0  0  0  0  0  0  0  0  0
   37.7286   14.5135  -11.3269 H   0  0  0  0  0  0  0  0  0  0  0  0
   36.3942   12.5706  -14.3758 C   0  0  0  0  0  0  0  0  0  0  0  0
   37.0221   13.5090  -13.5794 C   0  0  0  0  0  0  0  0  0  0  0  0
   38.3459   13.8482  -13.8486 C   0  0  0  0  0  0  0  0  0  0  0  0
   39.0092   13.2539  -14.8913 C   0  0  0  0  0  0  0  0  0  0  0  0
   38.4001   12.3010  -15.7153 C   0  0  0  0  0  0  0  0  0  0  0  0
   37.0871   11.9929  -15.4142 C   0  0  0  0  0  0  0  0  0  0  0  0
   34.0857   13.1972  -14.2754 C   0  0  0  0  0  0  0  0  0  0  0  0
   35.0865   12.1955  -14.1562 O   0  0  0  0  0  0  0  0  0  0  0  0
   39.0521   11.6936  -16.7720 O   0  0  0  0  0  0  0  0  0  0  0  0
   40.2597   12.2885  -17.2238 C   0  0  0  0  0  0  0  0  0  0  0  0
   36.4330   11.0567  -16.1951 O   0  0  0  0  0  0  0  0  0  0  0  0
   35.7658   11.5102  -17.3569 C   0  0  0  0  0  0  0  0  0  0  0  0
   39.1458   16.0635  -10.8390 C   0  0  0  0  0  0  0  0  0  0  0  0
   38.0775   16.6997   -9.9489 C   0  0  0  0  0  0  0  0  0  0  0  0
   38.5060   16.4819   -8.5317 C   0  0  0  0  0  0  0  0  0  0  0  0
   39.8151   15.8746   -8.5785 N   0  0  0  0  0  0  0  0  0  0  0  0
   40.1682   15.4896   -9.9133 C   0  0  0  0  0  0  0  0  0  0  0  0
   40.6214   15.7097   -7.4009 C   0  0  0  0  0  0  0  0  0  0  0  0
   41.2004   14.6165   -6.9278 N   0  0  0  0  0  0  0  0  0  0  0  0
   41.9218   14.6923   -5.8445 C   0  0  0  0  0  0  0  0  0  0  0  0
   42.0359   15.8914   -5.2659 N   0  0  0  0  0  0  0  0  0  0  0  0
   41.1250   16.8913   -6.2561 S   0  0  0  0  0  0  0  0  0  0  0  0
   42.5908   13.5041   -5.2575 C   0  0  0  0  0  0  0  0  0  0  0  0
   42.0104   12.2713   -5.4144 C   0  0  0  0  0  0  0  0  0  0  0  0
   42.6509   11.1496   -4.8632 C   0  0  0  0  0  0  0  0  0  0  0  0
   43.8318   11.2692   -4.1811 C   0  0  0  0  0  0  0  0  0  0  0  0
   44.4254   12.5224   -4.0204 C   0  0  0  0  0  0  0  0  0  0  0  0
   43.7723   13.6148   -4.5744 C   0  0  0  0  0  0  0  0  0  0  0  0
 11 12  1  0  0  0
 12  5  1  0  0  0
  5  6  2  0  0  0
  6  7  1  0  0  0
  7  8  2  0  0  0
  8  9  1  0  0  0
  9 13  1  0  0  0
 13 14  1  0  0  0
  9 10  2  0  0  0
 10 15  1  0  0  0
 15 16  1  0  0  0
  7  1  1  0  0  0
  1  2  2  0  0  0
  1  3  1  0  0  0
  3 17  1  0  0  0
 17 18  1  0  0  0
 18 19  1  0  0  0
 19 20  1  0  0  0
 20 21  1  0  0  0
 20 22  1  0  0  0
 22 23  2  0  0  0
 23 24  1  0  0  0
 24 25  2  0  0  0
 25 26  1  0  0  0
 24 27  1  0  0  0
 27 28  2  0  0  0
 28 29  1  0  0  0
 29 30  2  0  0  0
 30 31  1  0  0  0
 31 32  2  0  0  0
 10  5  1  0  0  0
 21 17  1  0  0  0
 26 22  1  0  0  0
 32 27  1  0  0  0
  3  4  1  0  0  0
M  END
> <minimizedAffinity>
-6.96042

> <CNNscore>
0.2501449585

> <CNNaffinity>
5.6646242142

> <CNN_VS>
1.4169771671

> <CNNaffinity_variance>
0.3408851326

$$$$
[H]c1c([H])c([H])c(-c2nsc(N3C([H])([H])C([H])([H])[C@]([H])(N([H])C(=O)c4c([H])c(OC([H])([H])[H])c(OC([H])([H])[H])c(OC([H])([H])[H])c4[H])C3([H])[H])n2)c([H])c1[H]


 32 35  0  0  0  0  0  0  0  0999 V2000
   37.8792   14.1066  -14.0866 C   0  0  0  0  0  0  0  0  0  0  0  0
   38.9609   14.7389  -14.0042 O   0  0  0  0  0  0  0  0  0  0  0  0
   36.7879   14.3218  -13.2060 N   0  0  0  0  0  0  0  0  0  0  0  0
   35.9132   13.7857  -13.3086 H   0  0  0  0  0  0  0  0  0  0  0  0
   38.7986   11.6215  -16.6884 C   0  0  0  0  0  0  0  0  0  0  0  0
   38.9100   12.5840  -15.7033 C   0  0  0  0  0  0  0  0  0  0  0  0
   37.7512   13.1120  -15.1390 C   0  0  0  0  0  0  0  0  0  0  0  0
   36.5212   12.6770  -15.5614 C   0  0  0  0  0  0  0  0  0  0  0  0
   36.3766   11.7036  -16.5561 C   0  0  0  0  0  0  0  0  0  0  0  0
   37.5502   11.2061  -17.0897 C   0  0  0  0  0  0  0  0  0  0  0  0
   40.8723   11.9496  -17.8389 C   0  0  0  0  0  0  0  0  0  0  0  0
   39.9100   11.0643  -17.2828 O   0  0  0  0  0  0  0  0  0  0  0  0
   35.1455   11.2512  -16.9925 O   0  0  0  0  0  0  0  0  0  0  0  0
   34.0799   11.2485  -16.0538 C   0  0  0  0  0  0  0  0  0  0  0  0
   37.4693   10.2410  -18.0776 O   0  0  0  0  0  0  0  0  0  0  0  0
   37.7553   10.6266  -19.4081 C   0  0  0  0  0  0  0  0  0  0  0  0
   36.8856   15.3119  -12.1363 C   0  0  0  0  0  0  0  0  0  0  0  0
   35.4826   15.6276  -11.6167 C   0  0  0  0  0  0  0  0  0  0  0  0
   35.4834   15.3253  -10.1510 C   0  0  0  0  0  0  0  0  0  0  0  0
   36.8398   14.9816   -9.7948 N   0  0  0  0  0  0  0  0  0  0  0  0
   37.6659   14.8313  -10.9566 C   0  0  0  0  0  0  0  0  0  0  0  0
   37.2537   14.8297   -8.4276 C   0  0  0  0  0  0  0  0  0  0  0  0
   38.4430   15.0390   -7.8835 N   0  0  0  0  0  0  0  0  0  0  0  0
   38.5990   14.8665   -6.6007 C   0  0  0  0  0  0  0  0  0  0  0  0
   37.5291   14.4819   -5.8987 N   0  0  0  0  0  0  0  0  0  0  0  0
   36.3221   14.3687   -7.0564 S   0  0  0  0  0  0  0  0  0  0  0  0
   39.9067   15.0763   -5.9299 C   0  0  0  0  0  0  0  0  0  0  0  0
   40.9109   14.1648   -6.1350 C   0  0  0  0  0  0  0  0  0  0  0  0
   42.1482   14.3715   -5.5036 C   0  0  0  0  0  0  0  0  0  0  0  0
   42.3622   15.4572   -4.6975 C   0  0  0  0  0  0  0  0  0  0  0  0
   41.3425   16.3870   -4.4875 C   0  0  0  0  0  0  0  0  0  0  0  0
   40.1294   16.1596   -5.1226 C   0  0  0  0  0  0  0  0  0  0  0  0
 11 12  1  0  0  0
 12  5  1  0  0  0
  5  6  2  0  0  0
  6  7  1  0  0  0
  7  8  2  0  0  0
  8  9  1  0  0  0
  9 13  1  0  0  0
 13 14  1  0  0  0
  9 10  2  0  0  0
 10 15  1  0  0  0
 15 16  1  0  0  0
  7  1  1  0  0  0
  1  2  2  0  0  0
  1  3  1  0  0  0
  3 17  1  0  0  0
 17 18  1  0  0  0
 18 19  1  0  0  0
 19 20  1  0  0  0
 20 21  1  0  0  0
 20 22  1  0  0  0
 22 23  2  0  0  0
 23 24  1  0  0  0
 24 25  2  0  0  0
 25 26  1  0  0  0
 24 27  1  0  0  0
 27 28  2  0  0  0
 28 29  1  0  0  0
 29 30  2  0  0  0
 30 31  1  0  0  0
 31 32  2  0  0  0
 10  5  1  0  0  0
 21 17  1  0  0  0
 26 22  1  0  0  0
 32 27  1  0  0  0
  3  4  1  0  0  0
M  END
> <minimizedAffinity>
-7.34803

> <CNNscore>
0.2464393526

> <CNNaffinity>
5.8783860207

> <CNN_VS>
1.4486656189

> <CNNaffinity_variance>
0.1963816434

$$$$
[H]c1c([H])c([H])c(-c2nsc(N3C([H])([H])C([H])([H])[C@]([H])(N([H])C(=O)c4c([H])c(OC([H])([H])[H])c(OC([H])([H])[H])c(OC([H])([H])[H])c4[H])C3([H])[H])n2)c([H])c1[H]


 32 35  0  0  0  0  0  0  0  0999 V2000
   45.1643   14.0188  -12.8613 C   0  0  0  0  0  0  0  0  0  0  0  0
   44.7660   15.2095  -12.8435 O   0  0  0  0  0  0  0  0  0  0  0  0
   44.9082   13.1330  -13.9394 N   0  0  0  0  0  0  0  0  0  0  0  0
   45.2564   12.1628  -13.9196 H   0  0  0  0  0  0  0  0  0  0  0  0
   46.6389   13.8464   -9.4574 C   0  0  0  0  0  0  0  0  0  0  0  0
   45.9383   14.3057  -10.5562 C   0  0  0  0  0  0  0  0  0  0  0  0
   45.9241   13.5387  -11.7187 C   0  0  0  0  0  0  0  0  0  0  0  0
   46.5989   12.3458  -11.7633 C   0  0  0  0  0  0  0  0  0  0  0  0
   47.3165   11.8544  -10.6671 C   0  0  0  0  0  0  0  0  0  0  0  0
   47.3053   12.6456   -9.5341 C   0  0  0  0  0  0  0  0  0  0  0  0
   47.4921   15.7348   -8.2583 C   0  0  0  0  0  0  0  0  0  0  0  0
   46.6888   14.5630   -8.2813 O   0  0  0  0  0  0  0  0  0  0  0  0
   48.0003   10.6534  -10.6929 O   0  0  0  0  0  0  0  0  0  0  0  0
   47.2315    9.4662  -10.8190 C   0  0  0  0  0  0  0  0  0  0  0  0
   47.9982   12.2106   -8.4184 O   0  0  0  0  0  0  0  0  0  0  0  0
   47.3208   11.3754   -7.4996 C   0  0  0  0  0  0  0  0  0  0  0  0
   44.1454   13.5838  -15.1009 C   0  0  0  0  0  0  0  0  0  0  0  0
   44.6703   12.8753  -16.3503 C   0  0  0  0  0  0  0  0  0  0  0  0
   43.5102   12.1534  -16.9607 C   0  0  0  0  0  0  0  0  0  0  0  0
   42.3401   12.5210  -16.1987 N   0  0  0  0  0  0  0  0  0  0  0  0
   42.6912   13.2523  -15.0169 C   0  0  0  0  0  0  0  0  0  0  0  0
   41.0128   12.1750  -16.6257 C   0  0  0  0  0  0  0  0  0  0  0  0
   39.8696   12.2613  -15.9624 N   0  0  0  0  0  0  0  0  0  0  0  0
   38.7596   11.9168  -16.5531 C   0  0  0  0  0  0  0  0  0  0  0  0
   38.8438   11.4895  -17.8164 N   0  0  0  0  0  0  0  0  0  0  0  0
   40.4840   11.5791  -18.1507 S   0  0  0  0  0  0  0  0  0  0  0  0
   37.4461   11.9821  -15.8641 C   0  0  0  0  0  0  0  0  0  0  0  0
   37.4101   12.3256  -14.5368 C   0  0  0  0  0  0  0  0  0  0  0  0
   36.1645   12.3927  -13.8914 C   0  0  0  0  0  0  0  0  0  0  0  0
   35.0015   12.1239  -14.5616 C   0  0  0  0  0  0  0  0  0  0  0  0
   35.0349   11.7746  -15.9127 C   0  0  0  0  0  0  0  0  0  0  0  0
   36.2782   11.7153  -16.5270 C   0  0  0  0  0  0  0  0  0  0  0  0
 11 12  1  0  0  0
 12  5  1  0  0  0
  5  6  2  0  0  0
  6  7  1  0  0  0
  7  8  2  0  0  0
  8  9  1  0  0  0
  9 13  1  0  0  0
 13 14  1  0  0  0
  9 10  2  0  0  0
 10 15  1  0  0  0
 15 16  1  0  0  0
  7  1  1  0  0  0
  1  2  2  0  0  0
  1  3  1  0  0  0
  3 17  1  0  0  0
 17 18  1  0  0  0
 18 19  1  0  0  0
 19 20  1  0  0  0
 20 21  1  0  0  0
 20 22  1  0  0  0
 22 23  2  0  0  0
 23 24  1  0  0  0
 24 25  2  0  0  0
 25 26  1  0  0  0
 24 27  1  0  0  0
 27 28  2  0  0  0
 28 29  1  0  0  0
 29 30  2  0  0  0
 30 31  1  0  0  0
 31 32  2  0  0  0
 10  5  1  0  0  0
 21 17  1  0  0  0
 26 22  1  0  0  0
 32 27  1  0  0  0
  3  4  1  0  0  0
M  END
> <minimizedAffinity>
-6.70739

> <CNNscore>
0.2320061922

> <CNNaffinity>
5.9068083763

> <CNN_VS>
1.3704161644

> <CNNaffinity_variance>
0.1362470090

$$$$
[H]c1c([H])c([H])c(-c2nsc(N3C([H])([H])C([H])([H])[C@]([H])(N([H])C(=O)c4c([H])c(OC([H])([H])[H])c(OC([H])([H])[H])c(OC([H])([H])[H])c4[H])C3([H])[H])n2)c([H])c1[H]


 32 35  0  0  0  0  0  0  0  0999 V2000
   43.0986   14.8560  -11.7502 C   0  0  0  0  0  0  0  0  0  0  0  0
   42.9095   16.0743  -11.9883 O   0  0  0  0  0  0  0  0  0  0  0  0
   42.8123   13.8307  -12.6880 N   0  0  0  0  0  0  0  0  0  0  0  0
   42.9858   12.8409  -12.4572 H   0  0  0  0  0  0  0  0  0  0  0  0
   44.0867   15.0891   -8.1782 C   0  0  0  0  0  0  0  0  0  0  0  0
   43.5967   15.4329   -9.4235 C   0  0  0  0  0  0  0  0  0  0  0  0
   43.6385   14.4928  -10.4503 C   0  0  0  0  0  0  0  0  0  0  0  0
   44.1607   13.2460  -10.2198 C   0  0  0  0  0  0  0  0  0  0  0  0
   44.6638   12.8686   -8.9698 C   0  0  0  0  0  0  0  0  0  0  0  0
   44.6038   13.8301   -7.9791 C   0  0  0  0  0  0  0  0  0  0  0  0
   42.8923   16.7457   -6.9288 C   0  0  0  0  0  0  0  0  0  0  0  0
   44.0719   15.9782   -7.1254 O   0  0  0  0  0  0  0  0  0  0  0  0
   45.1914   11.6159   -8.7183 O   0  0  0  0  0  0  0  0  0  0  0  0
   46.0702   11.0697   -9.6908 C   0  0  0  0  0  0  0  0  0  0  0  0
   45.0870   13.5137   -6.7219 O   0  0  0  0  0  0  0  0  0  0  0  0
   46.4636   13.7171   -6.4689 C   0  0  0  0  0  0  0  0  0  0  0  0
   42.2663   14.1622  -14.0018 C   0  0  0  0  0  0  0  0  0  0  0  0
   43.1843   13.5922  -15.0837 C   0  0  0  0  0  0  0  0  0  0  0  0
   42.3476   12.6852  -15.9305 C   0  0  0  0  0  0  0  0  0  0  0  0
   40.9871   12.8140  -15.4645 N   0  0  0  0  0  0  0  0  0  0  0  0
   40.9178   13.5683  -14.2476 C   0  0  0  0  0  0  0  0  0  0  0  0
   39.8795   12.2414  -16.1782 C   0  0  0  0  0  0  0  0  0  0  0  0
   38.6076   12.1520  -15.8200 N   0  0  0  0  0  0  0  0  0  0  0  0
   37.7485   11.6132  -16.6394 C   0  0  0  0  0  0  0  0  0  0  0  0
   38.2119   11.1756  -17.8138 N   0  0  0  0  0  0  0  0  0  0  0  0
   39.8490   11.5291  -17.7441 S   0  0  0  0  0  0  0  0  0  0  0  0
   36.3106   11.4753  -16.2963 C   0  0  0  0  0  0  0  0  0  0  0  0
   35.8122   12.1821  -15.2318 C   0  0  0  0  0  0  0  0  0  0  0  0
   34.4499   12.0535  -14.9156 C   0  0  0  0  0  0  0  0  0  0  0  0
   33.6239   11.2431  -15.6473 C   0  0  0  0  0  0  0  0  0  0  0  0
   34.1281   10.5231  -16.7318 C   0  0  0  0  0  0  0  0  0  0  0  0
   35.4775   10.6675  -17.0231 C   0  0  0  0  0  0  0  0  0  0  0  0
 11 12  1  0  0  0
 12  5  1  0  0  0
  5  6  2  0  0  0
  6  7  1  0  0  0
  7  8  2  0  0  0
  8  9  1  0  0  0
  9 13  1  0  0  0
 13 14  1  0  0  0
  9 10  2  0  0  0
 10 15  1  0  0  0
 15 16  1  0  0  0
  7  1  1  0  0  0
  1  2  2  0  0  0
  1  3  1  0  0  0
  3 17  1  0  0  0
 17 18  1  0  0  0
 18 19  1  0  0  0
 19 20  1  0  0  0
 20 21  1  0  0  0
 20 22  1  0  0  0
 22 23  2  0  0  0
 23 24  1  0  0  0
 24 25  2  0  0  0
 25 26  1  0  0  0
 24 27  1  0  0  0
 27 28  2  0  0  0
 28 29  1  0  0  0
 29 30  2  0  0  0
 30 31  1  0  0  0
 31 32  2  0  0  0
 10  5  1  0  0  0
 21 17  1  0  0  0
 26 22  1  0  0  0
 32 27  1  0  0  0
  3  4  1  0  0  0
M  END
> <minimizedAffinity>
-7.16585

> <CNNscore>
0.2310097963

> <CNNaffinity>
5.9022455215

> <CNN_VS>
1.3634765148

> <CNNaffinity_variance>
0.2272636592

$$$$
[H]c1c([H])c([H])c(-c2nsc(N3C([H])([H])C([H])([H])[C@]([H])(N([H])C(=O)c4c([H])c(OC([H])([H])[H])c(OC([H])([H])[H])c(OC([H])([H])[H])c4[H])C3([H])[H])n2)c([H])c1[H]


 32 35  0  0  0  0  0  0  0  0999 V2000
   38.8582   14.7727  -13.1212 C   0  0  0  0  0  0  0  0  0  0  0  0
   39.8664   15.3624  -13.5823 O   0  0  0  0  0  0  0  0  0  0  0  0
   38.3441   15.0194  -11.8221 N   0  0  0  0  0  0  0  0  0  0  0  0
   37.5104   14.5182  -11.4805 H   0  0  0  0  0  0  0  0  0  0  0  0
   38.3434   12.1238  -15.6724 C   0  0  0  0  0  0  0  0  0  0  0  0
   38.9613   13.0709  -14.8783 C   0  0  0  0  0  0  0  0  0  0  0  0
   38.1948   13.7957  -13.9689 C   0  0  0  0  0  0  0  0  0  0  0  0
   36.8465   13.5663  -13.8698 C   0  0  0  0  0  0  0  0  0  0  0  0
   36.1929   12.6140  -14.6596 C   0  0  0  0  0  0  0  0  0  0  0  0
   36.9891   11.9172  -15.5486 C   0  0  0  0  0  0  0  0  0  0  0  0
   39.9022   12.0748  -17.4888 C   0  0  0  0  0  0  0  0  0  0  0  0
   39.0508   11.3776  -16.5899 O   0  0  0  0  0  0  0  0  0  0  0  0
   34.8356   12.3674  -14.5718 O   0  0  0  0  0  0  0  0  0  0  0  0
   33.9750   13.4890  -14.4377 C   0  0  0  0  0  0  0  0  0  0  0  0
   36.3975   10.9625  -16.3563 O   0  0  0  0  0  0  0  0  0  0  0  0
   35.8109   11.3903  -17.5702 C   0  0  0  0  0  0  0  0  0  0  0  0
   38.9893   15.9929  -10.9446 C   0  0  0  0  0  0  0  0  0  0  0  0
   37.9265   16.6624  -10.0725 C   0  0  0  0  0  0  0  0  0  0  0  0
   38.3180   16.4221   -8.6482 C   0  0  0  0  0  0  0  0  0  0  0  0
   39.6052   15.7685   -8.6721 N   0  0  0  0  0  0  0  0  0  0  0  0
   39.9714   15.3779  -10.0018 C   0  0  0  0  0  0  0  0  0  0  0  0
   40.3809   15.5687   -7.4795 C   0  0  0  0  0  0  0  0  0  0  0  0
   40.9428   14.4605   -7.0209 N   0  0  0  0  0  0  0  0  0  0  0  0
   41.6371   14.5043   -5.9183 C   0  0  0  0  0  0  0  0  0  0  0  0
   41.7421   15.6872   -5.3058 N   0  0  0  0  0  0  0  0  0  0  0  0
   40.8610   16.7173   -6.2919 S   0  0  0  0  0  0  0  0  0  0  0  0
   42.2859   13.2976   -5.3462 C   0  0  0  0  0  0  0  0  0  0  0  0
   41.5929   12.1140   -5.3363 C   0  0  0  0  0  0  0  0  0  0  0  0
   42.2137   10.9739   -4.8003 C   0  0  0  0  0  0  0  0  0  0  0  0
   43.4849   11.0281   -4.2950 C   0  0  0  0  0  0  0  0  0  0  0  0
   44.1929   12.2311   -4.3043 C   0  0  0  0  0  0  0  0  0  0  0  0
   43.5570   13.3429   -4.8393 C   0  0  0  0  0  0  0  0  0  0  0  0
 11 12  1  0  0  0
 12  5  1  0  0  0
  5  6  2  0  0  0
  6  7  1  0  0  0
  7  8  2  0  0  0
  8  9  1  0  0  0
  9 13  1  0  0  0
 13 14  1  0  0  0
  9 10  2  0  0  0
 10 15  1  0  0  0
 15 16  1  0  0  0
  7  1  1  0  0  0
  1  2  2  0  0  0
  1  3  1  0  0  0
  3 17  1  0  0  0
 17 18  1  0  0  0
 18 19  1  0  0  0
 19 20  1  0  0  0
 20 21  1  0  0  0
 20 22  1  0  0  0
 22 23  2  0  0  0
 23 24  1  0  0  0
 24 25  2  0  0  0
 25 26  1  0  0  0
 24 27  1  0  0  0
 27 28  2  0  0  0
 28 29  1  0  0  0
 29 30  2  0  0  0
 30 31  1  0  0  0
 31 32  2  0  0  0
 10  5  1  0  0  0
 21 17  1  0  0  0
 26 22  1  0  0  0
 32 27  1  0  0  0
  3  4  1  0  0  0
M  END
> <minimizedAffinity>
-7.09742

> <CNNscore>
0.2306963354

> <CNNaffinity>
5.7190022469

> <CNN_VS>
1.3193528652

> <CNNaffinity_variance>
0.3519379199

$$$$
[H]c1c([H])c([H])c(-c2nsc(N3C([H])([H])C([H])([H])[C@]([H])(N([H])C(=O)c4c([H])c(OC([H])([H])[H])c(OC([H])([H])[H])c(OC([H])([H])[H])c4[H])C3([H])[H])n2)c([H])c1[H]


 32 35  0  0  0  0  0  0  0  0999 V2000
   43.0250   14.4799  -12.1323 C   0  0  0  0  0  0  0  0  0  0  0  0
   42.4524   15.5956  -12.1954 O   0  0  0  0  0  0  0  0  0  0  0  0
   43.0768   13.5739  -13.2229 N   0  0  0  0  0  0  0  0  0  0  0  0
   43.5611   12.6681  -13.1340 H   0  0  0  0  0  0  0  0  0  0  0  0
   44.9633   12.5471   -9.6228 C   0  0  0  0  0  0  0  0  0  0  0  0
   44.3350   12.8950  -10.8033 C   0  0  0  0  0  0  0  0  0  0  0  0
   43.6623   14.1122  -10.8786 C   0  0  0  0  0  0  0  0  0  0  0  0
   43.6288   14.9474   -9.7915 C   0  0  0  0  0  0  0  0  0  0  0  0
   44.2557   14.6230   -8.5834 C   0  0  0  0  0  0  0  0  0  0  0  0
   44.9115   13.4071   -8.5505 C   0  0  0  0  0  0  0  0  0  0  0  0
   46.9613   11.2882  -10.0160 C   0  0  0  0  0  0  0  0  0  0  0  0
   45.6430   11.3557   -9.4901 O   0  0  0  0  0  0  0  0  0  0  0  0
   44.2346   15.4532   -7.4783 O   0  0  0  0  0  0  0  0  0  0  0  0
   43.0808   15.4116   -6.6516 C   0  0  0  0  0  0  0  0  0  0  0  0
   45.5498   13.0326   -7.3816 O   0  0  0  0  0  0  0  0  0  0  0  0
   44.8677   12.1592   -6.5027 C   0  0  0  0  0  0  0  0  0  0  0  0
   42.4438   13.9121  -14.4953 C   0  0  0  0  0  0  0  0  0  0  0  0
   43.2661   13.3148  -15.6378 C   0  0  0  0  0  0  0  0  0  0  0  0
   42.3483   12.4241  -16.4149 C   0  0  0  0  0  0  0  0  0  0  0  0
   41.0291   12.5879  -15.8513 N   0  0  0  0  0  0  0  0  0  0  0  0
   41.0672   13.3497  -14.6376 C   0  0  0  0  0  0  0  0  0  0  0  0
   39.8588   12.0388  -16.4781 C   0  0  0  0  0  0  0  0  0  0  0  0
   38.6071   12.0199  -16.0458 N   0  0  0  0  0  0  0  0  0  0  0  0
   37.6800   11.4894  -16.7933 C   0  0  0  0  0  0  0  0  0  0  0  0
   38.0558   10.9873  -17.9732 N   0  0  0  0  0  0  0  0  0  0  0  0
   39.7077   11.2697  -18.0098 S   0  0  0  0  0  0  0  0  0  0  0  0
   36.2598   11.4289  -16.3648 C   0  0  0  0  0  0  0  0  0  0  0  0
   35.8665   12.1534  -15.2686 C   0  0  0  0  0  0  0  0  0  0  0  0
   34.5205   12.0982  -14.8716 C   0  0  0  0  0  0  0  0  0  0  0  0
   33.6081   11.3413  -15.5562 C   0  0  0  0  0  0  0  0  0  0  0  0
   34.0051   10.6034  -16.6726 C   0  0  0  0  0  0  0  0  0  0  0  0
   35.3407   10.6749  -17.0441 C   0  0  0  0  0  0  0  0  0  0  0  0
 11 12  1  0  0  0
 12  5  1  0  0  0
  5  6  2  0  0  0
  6  7  1  0  0  0
  7  8  2  0  0  0
  8  9  1  0  0  0
  9 13  1  0  0  0
 13 14  1  0  0  0
  9 10  2  0  0  0
 10 15  1  0  0  0
 15 16  1  0  0  0
  7  1  1  0  0  0
  1  2  2  0  0  0
  1  3  1  0  0  0
  3 17  1  0  0  0
 17 18  1  0  0  0
 18 19  1  0  0  0
 19 20  1  0  0  0
 20 21  1  0  0  0
 20 22  1  0  0  0
 22 23  2  0  0  0
 23 24  1  0  0  0
 24 25  2  0  0  0
 25 26  1  0  0  0
 24 27  1  0  0  0
 27 28  2  0  0  0
 28 29  1  0  0  0
 29 30  2  0  0  0
 30 31  1  0  0  0
 31 32  2  0  0  0
 10  5  1  0  0  0
 21 17  1  0  0  0
 26 22  1  0  0  0
 32 27  1  0  0  0
  3  4  1  0  0  0
M  END
> <minimizedAffinity>
-7.10927

> <CNNscore>
0.2277578712

> <CNNaffinity>
5.9268217087

> <CNN_VS>
1.3498803377

> <CNNaffinity_variance>
0.1097551361

$$$$
[H]c1c([H])c([H])c(-c2nsc(N3C([H])([H])C([H])([H])[C@]([H])(N([H])C(=O)c4c([H])c(OC([H])([H])[H])c(OC([H])([H])[H])c(OC([H])([H])[H])c4[H])C3([H])[H])n2)c([H])c1[H]


 32 35  0  0  0  0  0  0  0  0999 V2000
   33.7609   15.8718   -9.6624 C   0  0  0  0  0  0  0  0  0  0  0  0
   34.8470   16.3994   -9.3178 O   0  0  0  0  0  0  0  0  0  0  0  0
   33.5745   15.2313  -10.9145 N   0  0  0  0  0  0  0  0  0  0  0  0
   32.6684   14.8050  -11.1596 H   0  0  0  0  0  0  0  0  0  0  0  0
   31.7686   16.6815   -6.6350 C   0  0  0  0  0  0  0  0  0  0  0  0
   32.8248   16.6064   -7.5227 C   0  0  0  0  0  0  0  0  0  0  0  0
   32.6513   15.9246   -8.7248 C   0  0  0  0  0  0  0  0  0  0  0  0
   31.4459   15.3389   -9.0149 C   0  0  0  0  0  0  0  0  0  0  0  0
   30.3582   15.3984   -8.1366 C   0  0  0  0  0  0  0  0  0  0  0  0
   30.5721   16.0836   -6.9558 C   0  0  0  0  0  0  0  0  0  0  0  0
   32.5587   16.6732   -4.3750 C   0  0  0  0  0  0  0  0  0  0  0  0
   31.8826   17.3419   -5.4308 O   0  0  0  0  0  0  0  0  0  0  0  0
   29.1353   14.8164   -8.4132 O   0  0  0  0  0  0  0  0  0  0  0  0
   28.8387   14.5337   -9.7729 C   0  0  0  0  0  0  0  0  0  0  0  0
   29.5321   16.1753   -6.0480 O   0  0  0  0  0  0  0  0  0  0  0  0
   28.8620   17.4151   -5.9284 C   0  0  0  0  0  0  0  0  0  0  0  0
   34.6687   15.1637  -11.8801 C   0  0  0  0  0  0  0  0  0  0  0  0
   35.8255   14.3705  -11.2710 C   0  0  0  0  0  0  0  0  0  0  0  0
   36.1002   13.2244  -12.1933 C   0  0  0  0  0  0  0  0  0  0  0  0
   35.2511   13.4025  -13.3474 N   0  0  0  0  0  0  0  0  0  0  0  0
   34.2994   14.4546  -13.1420 C   0  0  0  0  0  0  0  0  0  0  0  0
   35.3939   12.5995  -14.5300 C   0  0  0  0  0  0  0  0  0  0  0  0
   36.4570   12.4231  -15.3001 N   0  0  0  0  0  0  0  0  0  0  0  0
   36.3796   11.6185  -16.3230 C   0  0  0  0  0  0  0  0  0  0  0  0
   35.2100   11.0085  -16.5368 N   0  0  0  0  0  0  0  0  0  0  0  0
   34.2392   11.5787  -15.2949 S   0  0  0  0  0  0  0  0  0  0  0  0
   37.5310   11.3826  -17.2301 C   0  0  0  0  0  0  0  0  0  0  0  0
   38.7887   11.7333  -16.8099 C   0  0  0  0  0  0  0  0  0  0  0  0
   39.8754   11.5017  -17.6689 C   0  0  0  0  0  0  0  0  0  0  0  0
   39.6977   10.9372  -18.9035 C   0  0  0  0  0  0  0  0  0  0  0  0
   38.4190   10.5786  -19.3335 C   0  0  0  0  0  0  0  0  0  0  0  0
   37.3623   10.8181  -18.4660 C   0  0  0  0  0  0  0  0  0  0  0  0
 11 12  1  0  0  0
 12  5  1  0  0  0
  5  6  2  0  0  0
  6  7  1  0  0  0
  7  8  2  0  0  0
  8  9  1  0  0  0
  9 13  1  0  0  0
 13 14  1  0  0  0
  9 10  2  0  0  0
 10 15  1  0  0  0
 15 16  1  0  0  0
  7  1  1  0  0  0
  1  2  2  0  0  0
  1  3  1  0  0  0
  3 17  1  0  0  0
 17 18  1  0  0  0
 18 19  1  0  0  0
 19 20  1  0  0  0
 20 21  1  0  0  0
 20 22  1  0  0  0
 22 23  2  0  0  0
 23 24  1  0  0  0
 24 25  2  0  0  0
 25 26  1  0  0  0
 24 27  1  0  0  0
 27 28  2  0  0  0
 28 29  1  0  0  0
 29 30  2  0  0  0
 30 31  1  0  0  0
 31 32  2  0  0  0
 10  5  1  0  0  0
 21 17  1  0  0  0
 26 22  1  0  0  0
 32 27  1  0  0  0
  3  4  1  0  0  0
M  END
> <minimizedAffinity>
-8.35879

> <CNNscore>
0.1681619287

> <CNNaffinity>
5.7270326614

> <CNN_VS>
0.9630688429

> <CNNaffinity_variance>
0.5696231723

$$$$
[H]Oc1c([H])c([H])c([H])c2c1c1c([H])c(Cl)c([H])c(Cl)c1n2[C@]1([H])O[C@]([H])(C([H])([H])O[H])[C@@]([H])(O[H])[C@@]1([H])O[H]


 29 32  0  0  0  0  0  0  0  0999 V2000
   38.0987   13.1780  -14.1610 N   0  0  0  0  0  0  0  0  0  0  0  0
   36.9361   12.6025  -14.6479 C   0  0  0  0  0  0  0  0  0  0  0  0
   35.6706   12.5181  -14.1227 C   0  0  0  0  0  0  0  0  0  0  0  0
   35.1701   13.1506  -12.5754 Cl  0  0  0  0  0  0  0  0  0  0  0  0
   34.6995   11.8515  -14.8889 C   0  0  0  0  0  0  0  0  0  0  0  0
   34.9824   11.3059  -16.1012 C   0  0  0  0  0  0  0  0  0  0  0  0
   33.7598   10.4862  -17.0394 Cl  0  0  0  0  0  0  0  0  0  0  0  0
   36.2659   11.4078  -16.5997 C   0  0  0  0  0  0  0  0  0  0  0  0
   37.2533   12.0576  -15.8762 C   0  0  0  0  0  0  0  0  0  0  0  0
   38.5836   12.2859  -16.1489 C   0  0  0  0  0  0  0  0  0  0  0  0
   39.4244   11.9757  -17.1915 C   0  0  0  0  0  0  0  0  0  0  0  0
   39.0020   11.2984  -18.2740 O   0  0  0  0  0  0  0  0  0  0  0  0
   40.7884   12.3607  -17.1698 C   0  0  0  0  0  0  0  0  0  0  0  0
   41.2832   13.0458  -16.1087 C   0  0  0  0  0  0  0  0  0  0  0  0
   40.4223   13.3596  -15.0467 C   0  0  0  0  0  0  0  0  0  0  0  0
   39.0998   12.9893  -15.0637 C   0  0  0  0  0  0  0  0  0  0  0  0
   38.3241   10.8708  -18.7342 H   0  0  0  0  0  0  0  0  0  0  0  0
   36.8830   15.3107  -11.6213 C   0  0  0  0  0  0  0  0  0  0  0  0
   36.8443   14.4583  -12.6647 O   0  0  0  0  0  0  0  0  0  0  0  0
   38.0807   13.8392  -12.8868 C   0  0  0  0  0  0  0  0  0  0  0  0
   38.9277   15.0718  -12.7051 C   0  0  0  0  0  0  0  0  0  0  0  0
   40.2339   14.8637  -12.3834 O   0  0  0  0  0  0  0  0  0  0  0  0
   38.3218   15.5885  -11.3287 C   0  0  0  0  0  0  0  0  0  0  0  0
   38.7359   14.7601  -10.3201 O   0  0  0  0  0  0  0  0  0  0  0  0
   40.5810   15.7460  -12.0410 H   0  0  0  0  0  0  0  0  0  0  0  0
   39.4931   15.0952   -9.7891 H   0  0  0  0  0  0  0  0  0  0  0  0
   36.5469   17.6865  -11.3048 O   0  0  0  0  0  0  0  0  0  0  0  0
   36.1169   16.5729  -11.9805 C   0  0  0  0  0  0  0  0  0  0  0  0
   35.9321   18.4334  -11.4422 H   0  0  0  0  0  0  0  0  0  0  0  0
 27 28  1  0  0  0
 28 18  1  0  0  0
 18 19  1  0  0  0
 19 20  1  0  0  0
 20 21  1  0  0  0
 21 22  1  0  0  0
 21 23  1  0  0  0
 23 24  1  0  0  0
 20  1  1  0  0  0
  1  2  1  0  0  0
  2  3  2  0  0  0
  3  4  1  0  0  0
  3  5  1  0  0  0
  5  6  2  0  0  0
  6  7  1  0  0  0
  6  8  1  0  0  0
  8  9  2  0  0  0
  9 10  1  0  0  0
 10 11  2  0  0  0
 11 12  1  0  0  0
 11 13  1  0  0  0
 13 14  2  0  0  0
 14 15  1  0  0  0
 15 16  2  0  0  0
 23 18  1  0  0  0
 16  1  1  0  0  0
  9  2  1  0  0  0
 16 10  1  0  0  0
 27 29  1  0  0  0
 22 25  1  0  0  0
 24 26  1  0  0  0
 12 17  1  0  0  0
M  END
> <minimizedAffinity>
-10.11207

> <CNNscore>
0.8667748570

> <CNNaffinity>
6.4041109085

> <CNN_VS>
5.5509223938

> <CNNaffinity_variance>
0.1364440620

$$$$
[H]Oc1c([H])c([H])c([H])c2c1c1c([H])c(Cl)c([H])c(Cl)c1n2[C@]1([H])O[C@]([H])(C([H])([H])O[H])[C@@]([H])(O[H])[C@@]1([H])O[H]


 29 32  0  0  0  0  0  0  0  0999 V2000
   38.3668   12.7591  -14.6843 N   0  0  0  0  0  0  0  0  0  0  0  0
   38.0622   12.0903  -15.8589 C   0  0  0  0  0  0  0  0  0  0  0  0
   36.8913   11.5401  -16.3180 C   0  0  0  0  0  0  0  0  0  0  0  0
   35.3714   11.5278  -15.4608 Cl  0  0  0  0  0  0  0  0  0  0  0  0
   36.9231   10.9197  -17.5785 C   0  0  0  0  0  0  0  0  0  0  0  0
   38.0563   10.8564  -18.3262 C   0  0  0  0  0  0  0  0  0  0  0  0
   38.0730   10.0853  -19.8921 Cl  0  0  0  0  0  0  0  0  0  0  0  0
   39.2171   11.4190  -17.8341 C   0  0  0  0  0  0  0  0  0  0  0  0
   39.2288   12.0409  -16.5956 C   0  0  0  0  0  0  0  0  0  0  0  0
   40.2390   12.6627  -15.8962 C   0  0  0  0  0  0  0  0  0  0  0  0
   41.5723   12.9022  -16.1306 C   0  0  0  0  0  0  0  0  0  0  0  0
   42.1829   12.5039  -17.2607 O   0  0  0  0  0  0  0  0  0  0  0  0
   42.3699   13.5870  -15.1797 C   0  0  0  0  0  0  0  0  0  0  0  0
   41.8200   14.0170  -14.0166 C   0  0  0  0  0  0  0  0  0  0  0  0
   40.4595   13.7699  -13.7811 C   0  0  0  0  0  0  0  0  0  0  0  0
   39.6825   13.1074  -14.6998 C   0  0  0  0  0  0  0  0  0  0  0  0
   42.1460   12.0828  -18.0826 H   0  0  0  0  0  0  0  0  0  0  0  0
   35.1606   13.6107  -13.4715 C   0  0  0  0  0  0  0  0  0  0  0  0
   36.0909   13.1348  -14.3227 O   0  0  0  0  0  0  0  0  0  0  0  0
   37.3384   12.9755  -13.7063 C   0  0  0  0  0  0  0  0  0  0  0  0
   37.3274   14.2794  -12.9518 C   0  0  0  0  0  0  0  0  0  0  0  0
   38.1381   14.3515  -11.8608 O   0  0  0  0  0  0  0  0  0  0  0  0
   35.8850   14.1718  -12.2911 C   0  0  0  0  0  0  0  0  0  0  0  0
   35.9173   13.2259  -11.3015 O   0  0  0  0  0  0  0  0  0  0  0  0
   37.8238   15.1499  -11.3317 H   0  0  0  0  0  0  0  0  0  0  0  0
   36.0006   13.5805  -10.3878 H   0  0  0  0  0  0  0  0  0  0  0  0
   33.2668   15.1174  -13.4391 O   0  0  0  0  0  0  0  0  0  0  0  0
   34.3247   14.6611  -14.1835 C   0  0  0  0  0  0  0  0  0  0  0  0
   32.6697   15.6646  -13.9857 H   0  0  0  0  0  0  0  0  0  0  0  0
 27 28  1  0  0  0
 28 18  1  0  0  0
 18 19  1  0  0  0
 19 20  1  0  0  0
 20 21  1  0  0  0
 21 22  1  0  0  0
 21 23  1  0  0  0
 23 24  1  0  0  0
 20  1  1  0  0  0
  1  2  1  0  0  0
  2  3  2  0  0  0
  3  4  1  0  0  0
  3  5  1  0  0  0
  5  6  2  0  0  0
  6  7  1  0  0  0
  6  8  1  0  0  0
  8  9  2  0  0  0
  9 10  1  0  0  0
 10 11  2  0  0  0
 11 12  1  0  0  0
 11 13  1  0  0  0
 13 14  2  0  0  0
 14 15  1  0  0  0
 15 16  2  0  0  0
 23 18  1  0  0  0
 16  1  1  0  0  0
  9  2  1  0  0  0
 16 10  1  0  0  0
 27 29  1  0  0  0
 22 25  1  0  0  0
 24 26  1  0  0  0
 12 17  1  0  0  0
M  END
> <minimizedAffinity>
-8.80713

> <CNNscore>
0.7849026322

> <CNNaffinity>
6.7561063766

> <CNN_VS>
5.3028855324

> <CNNaffinity_variance>
0.2224497050

$$$$
[H]Oc1c([H])c([H])c([H])c2c1c1c([H])c(Cl)c([H])c(Cl)c1n2[C@]1([H])O[C@]([H])(C([H])([H])O[H])[C@@]([H])(O[H])[C@@]1([H])O[H]


 29 32  0  0  0  0  0  0  0  0999 V2000
   37.3879   12.9524  -14.1812 N   0  0  0  0  0  0  0  0  0  0  0  0
   38.2559   12.5696  -15.1910 C   0  0  0  0  0  0  0  0  0  0  0  0
   39.6083   12.7463  -15.3472 C   0  0  0  0  0  0  0  0  0  0  0  0
   40.6581   13.5807  -14.2307 Cl  0  0  0  0  0  0  0  0  0  0  0  0
   40.1945   12.2250  -16.5131 C   0  0  0  0  0  0  0  0  0  0  0  0
   39.4693   11.5710  -17.4584 C   0  0  0  0  0  0  0  0  0  0  0  0
   40.2182   10.9267  -18.8974 Cl  0  0  0  0  0  0  0  0  0  0  0  0
   38.1108   11.4117  -17.2706 C   0  0  0  0  0  0  0  0  0  0  0  0
   37.4933   11.9102  -16.1343 C   0  0  0  0  0  0  0  0  0  0  0  0
   36.1791   11.8836  -15.7238 C   0  0  0  0  0  0  0  0  0  0  0  0
   35.0119   11.3813  -16.2485 C   0  0  0  0  0  0  0  0  0  0  0  0
   34.9774   10.7346  -17.4272 O   0  0  0  0  0  0  0  0  0  0  0  0
   33.7804   11.5254  -15.5615 C   0  0  0  0  0  0  0  0  0  0  0  0
   33.7407   12.1676  -14.3674 C   0  0  0  0  0  0  0  0  0  0  0  0
   34.9337   12.6793  -13.8360 C   0  0  0  0  0  0  0  0  0  0  0  0
   36.1294   12.5413  -14.4976 C   0  0  0  0  0  0  0  0  0  0  0  0
   35.4154   10.4131  -18.1749 H   0  0  0  0  0  0  0  0  0  0  0  0
   37.3551   14.3354  -10.9313 C   0  0  0  0  0  0  0  0  0  0  0  0
   37.0683   13.4748  -11.9281 O   0  0  0  0  0  0  0  0  0  0  0  0
   37.8973   13.6611  -13.0414 C   0  0  0  0  0  0  0  0  0  0  0  0
   37.8432   15.1667  -13.0486 C   0  0  0  0  0  0  0  0  0  0  0  0
   38.8652   15.8037  -13.6831 O   0  0  0  0  0  0  0  0  0  0  0  0
   38.1803   15.4345  -11.5178 C   0  0  0  0  0  0  0  0  0  0  0  0
   39.5035   15.1595  -11.2979 O   0  0  0  0  0  0  0  0  0  0  0  0
   38.8304   16.7628  -13.3749 H   0  0  0  0  0  0  0  0  0  0  0  0
   40.0948   15.9454  -11.2746 H   0  0  0  0  0  0  0  0  0  0  0  0
   35.7172   14.2348   -9.1522 O   0  0  0  0  0  0  0  0  0  0  0  0
   36.0584   14.8507  -10.3295 C   0  0  0  0  0  0  0  0  0  0  0  0
   34.8091   14.4774   -8.8855 H   0  0  0  0  0  0  0  0  0  0  0  0
 27 28  1  0  0  0
 28 18  1  0  0  0
 18 19  1  0  0  0
 19 20  1  0  0  0
 20 21  1  0  0  0
 21 22  1  0  0  0
 21 23  1  0  0  0
 23 24  1  0  0  0
 20  1  1  0  0  0
  1  2  1  0  0  0
  2  3  2  0  0  0
  3  4  1  0  0  0
  3  5  1  0  0  0
  5  6  2  0  0  0
  6  7  1  0  0  0
  6  8  1  0  0  0
  8  9  2  0  0  0
  9 10  1  0  0  0
 10 11  2  0  0  0
 11 12  1  0  0  0
 11 13  1  0  0  0
 13 14  2  0  0  0
 14 15  1  0  0  0
 15 16  2  0  0  0
 23 18  1  0  0  0
 16  1  1  0  0  0
  9  2  1  0  0  0
 16 10  1  0  0  0
 27 29  1  0  0  0
 22 25  1  0  0  0
 24 26  1  0  0  0
 12 17  1  0  0  0
M  END
> <minimizedAffinity>
-9.51083

> <CNNscore>
0.7690001130

> <CNNaffinity>
6.3362860680

> <CNN_VS>
4.8726048470

> <CNNaffinity_variance>
0.1434919089

$$$$
[H]Oc1c([H])c([H])c([H])c2c1c1c([H])c(Cl)c([H])c(Cl)c1n2[C@]1([H])O[C@]([H])(C([H])([H])O[H])[C@@]([H])(O[H])[C@@]1([H])O[H]


 29 32  0  0  0  0  0  0  0  0999 V2000
   37.8951   12.5728  -15.4045 N   0  0  0  0  0  0  0  0  0  0  0  0
   39.1590   13.0137  -15.0470 C   0  0  0  0  0  0  0  0  0  0  0  0
   39.6016   13.7355  -13.9664 C   0  0  0  0  0  0  0  0  0  0  0  0
   38.5999   14.3443  -12.6739 Cl  0  0  0  0  0  0  0  0  0  0  0  0
   40.9758   14.0224  -13.9041 C   0  0  0  0  0  0  0  0  0  0  0  0
   41.8459   13.6117  -14.8641 C   0  0  0  0  0  0  0  0  0  0  0  0
   43.5504   13.9745  -14.7648 Cl  0  0  0  0  0  0  0  0  0  0  0  0
   41.3672   12.8885  -15.9383 C   0  0  0  0  0  0  0  0  0  0  0  0
   40.0188   12.5837  -16.0379 C   0  0  0  0  0  0  0  0  0  0  0  0
   39.3078   11.8919  -16.9930 C   0  0  0  0  0  0  0  0  0  0  0  0
   39.6308   11.2610  -18.1710 C   0  0  0  0  0  0  0  0  0  0  0  0
   40.8919   11.2160  -18.6362 O   0  0  0  0  0  0  0  0  0  0  0  0
   38.6365   10.6236  -18.9550 C   0  0  0  0  0  0  0  0  0  0  0  0
   37.3429   10.6304  -18.5469 C   0  0  0  0  0  0  0  0  0  0  0  0
   37.0176   11.2760  -17.3448 C   0  0  0  0  0  0  0  0  0  0  0  0
   37.9776   11.8942  -16.5815 C   0  0  0  0  0  0  0  0  0  0  0  0
   41.7853   11.4338  -18.5440 H   0  0  0  0  0  0  0  0  0  0  0  0
   34.6728   12.1678  -14.0157 C   0  0  0  0  0  0  0  0  0  0  0  0
   35.8482   11.8166  -14.5740 O   0  0  0  0  0  0  0  0  0  0  0  0
   36.7769   12.8646  -14.5526 C   0  0  0  0  0  0  0  0  0  0  0  0
   35.8213   13.9524  -14.9688 C   0  0  0  0  0  0  0  0  0  0  0  0
   36.1783   15.2252  -14.6440 O   0  0  0  0  0  0  0  0  0  0  0  0
   34.6475   13.6598  -13.9368 C   0  0  0  0  0  0  0  0  0  0  0  0
   35.0485   14.0432  -12.6848 O   0  0  0  0  0  0  0  0  0  0  0  0
   35.3438   15.7824  -14.7405 H   0  0  0  0  0  0  0  0  0  0  0  0
   34.7115   14.9186  -12.3885 H   0  0  0  0  0  0  0  0  0  0  0  0
   33.9593   10.8834  -15.9390 O   0  0  0  0  0  0  0  0  0  0  0  0
   33.5358   11.6192  -14.8616 C   0  0  0  0  0  0  0  0  0  0  0  0
   33.2132   10.6873  -16.5386 H   0  0  0  0  0  0  0  0  0  0  0  0
 27 28  1  0  0  0
 28 18  1  0  0  0
 18 19  1  0  0  0
 19 20  1  0  0  0
 20 21  1  0  0  0
 21 22  1  0  0  0
 21 23  1  0  0  0
 23 24  1  0  0  0
 20  1  1  0  0  0
  1  2  1  0  0  0
  2  3  2  0  0  0
  3  4  1  0  0  0
  3  5  1  0  0  0
  5  6  2  0  0  0
  6  7  1  0  0  0
  6  8  1  0  0  0
  8  9  2  0  0  0
  9 10  1  0  0  0
 10 11  2  0  0  0
 11 12  1  0  0  0
 11 13  1  0  0  0
 13 14  2  0  0  0
 14 15  1  0  0  0
 15 16  2  0  0  0
 23 18  1  0  0  0
 16  1  1  0  0  0
  9  2  1  0  0  0
 16 10  1  0  0  0
 27 29  1  0  0  0
 22 25  1  0  0  0
 24 26  1  0  0  0
 12 17  1  0  0  0
M  END
> <minimizedAffinity>
-9.42135

> <CNNscore>
0.7263193727

> <CNNaffinity>
6.6021704674

> <CNN_VS>
4.7952842712

> <CNNaffinity_variance>
0.1473782957

$$$$
[H]Oc1c([H])c([H])c([H])c2c1c1c([H])c(Cl)c([H])c(Cl)c1n2[C@]1([H])O[C@]([H])(C([H])([H])O[H])[C@@]([H])(O[H])[C@@]1([H])O[H]


 29 32  0  0  0  0  0  0  0  0999 V2000
   39.3175   12.6002  -15.3062 N   0  0  0  0  0  0  0  0  0  0  0  0
   40.6727   12.6514  -15.5897 C   0  0  0  0  0  0  0  0  0  0  0  0
   41.7334   13.1648  -14.8855 C   0  0  0  0  0  0  0  0  0  0  0  0
   41.6321   13.9630  -13.3371 Cl  0  0  0  0  0  0  0  0  0  0  0  0
   43.0071   13.0523  -15.4683 C   0  0  0  0  0  0  0  0  0  0  0  0
   43.2007   12.4641  -16.6782 C   0  0  0  0  0  0  0  0  0  0  0  0
   44.7923   12.3303  -17.3822 Cl  0  0  0  0  0  0  0  0  0  0  0  0
   42.1119   11.9591  -17.3606 C   0  0  0  0  0  0  0  0  0  0  0  0
   40.8385   12.0489  -16.8209 C   0  0  0  0  0  0  0  0  0  0  0  0
   39.6147   11.6330  -17.2959 C   0  0  0  0  0  0  0  0  0  0  0  0
   39.1851   10.9976  -18.4369 C   0  0  0  0  0  0  0  0  0  0  0  0
   40.0341   10.6254  -19.4113 O   0  0  0  0  0  0  0  0  0  0  0  0
   37.8129   10.7043  -18.6374 C   0  0  0  0  0  0  0  0  0  0  0  0
   36.9001   11.0518  -17.6960 C   0  0  0  0  0  0  0  0  0  0  0  0
   37.3425   11.7008  -16.5338 C   0  0  0  0  0  0  0  0  0  0  0  0
   38.6712   11.9862  -16.3348 C   0  0  0  0  0  0  0  0  0  0  0  0
   40.8940   10.5797  -19.7469 H   0  0  0  0  0  0  0  0  0  0  0  0
   37.1070   13.0284  -12.5847 C   0  0  0  0  0  0  0  0  0  0  0  0
   37.7602   12.3945  -13.5787 O   0  0  0  0  0  0  0  0  0  0  0  0
   38.8319   13.1494  -14.0718 C   0  0  0  0  0  0  0  0  0  0  0  0
   38.1109   14.4718  -14.1082 C   0  0  0  0  0  0  0  0  0  0  0  0
   38.8933   15.5855  -14.0943 O   0  0  0  0  0  0  0  0  0  0  0  0
   37.5088   14.4667  -12.6365 C   0  0  0  0  0  0  0  0  0  0  0  0
   38.5220   14.6754  -11.7393 O   0  0  0  0  0  0  0  0  0  0  0  0
   38.2840   16.3517  -13.8538 H   0  0  0  0  0  0  0  0  0  0  0  0
   38.5980   15.5965  -11.4025 H   0  0  0  0  0  0  0  0  0  0  0  0
   34.8549   13.7861  -12.1248 O   0  0  0  0  0  0  0  0  0  0  0  0
   35.6107   12.8439  -12.7748 C   0  0  0  0  0  0  0  0  0  0  0  0
   33.9091   13.5410  -12.1393 H   0  0  0  0  0  0  0  0  0  0  0  0
 27 28  1  0  0  0
 28 18  1  0  0  0
 18 19  1  0  0  0
 19 20  1  0  0  0
 20 21  1  0  0  0
 21 22  1  0  0  0
 21 23  1  0  0  0
 23 24  1  0  0  0
 20  1  1  0  0  0
  1  2  1  0  0  0
  2  3  2  0  0  0
  3  4  1  0  0  0
  3  5  1  0  0  0
  5  6  2  0  0  0
  6  7  1  0  0  0
  6  8  1  0  0  0
  8  9  2  0  0  0
  9 10  1  0  0  0
 10 11  2  0  0  0
 11 12  1  0  0  0
 11 13  1  0  0  0
 13 14  2  0  0  0
 14 15  1  0  0  0
 15 16  2  0  0  0
 23 18  1  0  0  0
 16  1  1  0  0  0
  9  2  1  0  0  0
 16 10  1  0  0  0
 27 29  1  0  0  0
 22 25  1  0  0  0
 24 26  1  0  0  0
 12 17  1  0  0  0
M  END
> <minimizedAffinity>
-9.30615

> <CNNscore>
0.6972557306

> <CNNaffinity>
6.2747507095

> <CNN_VS>
4.3751058578

> <CNNaffinity_variance>
0.0488441214

$$$$
[H]Oc1c([H])c([H])c([H])c2c1c1c([H])c(Cl)c([H])c(Cl)c1n2[C@]1([H])O[C@]([H])(C([H])([H])O[H])[C@@]([H])(O[H])[C@@]1([H])O[H]


 29 32  0  0  0  0  0  0  0  0999 V2000
   37.6507   14.2612  -13.1866 N   0  0  0  0  0  0  0  0  0  0  0  0
   36.5027   13.6176  -13.6199 C   0  0  0  0  0  0  0  0  0  0  0  0
   35.2093   13.6518  -13.1612 C   0  0  0  0  0  0  0  0  0  0  0  0
   34.6416   14.5765  -11.7946 Cl  0  0  0  0  0  0  0  0  0  0  0  0
   34.2653   12.8627  -13.8399 C   0  0  0  0  0  0  0  0  0  0  0  0
   34.5997   12.0906  -14.9072 C   0  0  0  0  0  0  0  0  0  0  0  0
   33.4103   11.1213  -15.7393 Cl  0  0  0  0  0  0  0  0  0  0  0  0
   35.9101   12.0783  -15.3420 C   0  0  0  0  0  0  0  0  0  0  0  0
   36.8723   12.8426  -14.7011 C   0  0  0  0  0  0  0  0  0  0  0  0
   38.2203   12.9973  -14.9361 C   0  0  0  0  0  0  0  0  0  0  0  0
   39.1082   12.4817  -15.8505 C   0  0  0  0  0  0  0  0  0  0  0  0
   38.7286   11.6143  -16.8056 O   0  0  0  0  0  0  0  0  0  0  0  0
   40.4777   12.8464  -15.8250 C   0  0  0  0  0  0  0  0  0  0  0  0
   40.9309   13.7164  -14.8882 C   0  0  0  0  0  0  0  0  0  0  0  0
   40.0220   14.2395  -13.9567 C   0  0  0  0  0  0  0  0  0  0  0  0
   38.6939   13.8897  -13.9779 C   0  0  0  0  0  0  0  0  0  0  0  0
   38.0665   11.1148  -17.2134 H   0  0  0  0  0  0  0  0  0  0  0  0
   37.1872   15.2245   -9.8201 C   0  0  0  0  0  0  0  0  0  0  0  0
   37.5307   14.4413  -10.8618 O   0  0  0  0  0  0  0  0  0  0  0  0
   37.5800   15.1553  -12.0656 C   0  0  0  0  0  0  0  0  0  0  0  0
   36.3131   15.9423  -11.8531 C   0  0  0  0  0  0  0  0  0  0  0  0
   36.1960   17.0990  -12.5610 O   0  0  0  0  0  0  0  0  0  0  0  0
   36.5965   16.4767  -10.3825 C   0  0  0  0  0  0  0  0  0  0  0  0
   37.5694   17.4387  -10.4373 O   0  0  0  0  0  0  0  0  0  0  0  0
   35.4552   17.6220  -12.1208 H   0  0  0  0  0  0  0  0  0  0  0  0
   37.2418   18.3657  -10.4082 H   0  0  0  0  0  0  0  0  0  0  0  0
   36.7596   14.0148   -7.7680 O   0  0  0  0  0  0  0  0  0  0  0  0
   36.2053   14.4746   -8.9354 C   0  0  0  0  0  0  0  0  0  0  0  0
   36.1460   13.4083   -7.3091 H   0  0  0  0  0  0  0  0  0  0  0  0
 27 28  1  0  0  0
 28 18  1  0  0  0
 18 19  1  0  0  0
 19 20  1  0  0  0
 20 21  1  0  0  0
 21 22  1  0  0  0
 21 23  1  0  0  0
 23 24  1  0  0  0
 20  1  1  0  0  0
  1  2  1  0  0  0
  2  3  2  0  0  0
  3  4  1  0  0  0
  3  5  1  0  0  0
  5  6  2  0  0  0
  6  7  1  0  0  0
  6  8  1  0  0  0
  8  9  2  0  0  0
  9 10  1  0  0  0
 10 11  2  0  0  0
 11 12  1  0  0  0
 11 13  1  0  0  0
 13 14  2  0  0  0
 14 15  1  0  0  0
 15 16  2  0  0  0
 23 18  1  0  0  0
 16  1  1  0  0  0
  9  2  1  0  0  0
 16 10  1  0  0  0
 27 29  1  0  0  0
 22 25  1  0  0  0
 24 26  1  0  0  0
 12 17  1  0  0  0
M  END
> <minimizedAffinity>
-8.76680

> <CNNscore>
0.6336100101

> <CNNaffinity>
5.9658999443

> <CNN_VS>
3.7800538540

> <CNNaffinity_variance>
0.1255198717

$$$$
[H]Oc1c([H])c([H])c([H])c2c1c1c([H])c(Cl)c([H])c(Cl)c1n2[C@]1([H])O[C@]([H])(C([H])([H])O[H])[C@@]([H])(O[H])[C@@]1([H])O[H]


 29 32  0  0  0  0  0  0  0  0999 V2000
   38.1353   12.9398  -14.7971 N   0  0  0  0  0  0  0  0  0  0  0  0
   39.5008   13.1740  -14.7865 C   0  0  0  0  0  0  0  0  0  0  0  0
   40.2960   13.8961  -13.9316 C   0  0  0  0  0  0  0  0  0  0  0  0
   39.7400   14.7881  -12.5388 Cl  0  0  0  0  0  0  0  0  0  0  0  0
   41.6726   13.9334  -14.2110 C   0  0  0  0  0  0  0  0  0  0  0  0
   42.2129   13.2887  -15.2786 C   0  0  0  0  0  0  0  0  0  0  0  0
   43.9267   13.3438  -15.6048 Cl  0  0  0  0  0  0  0  0  0  0  0  0
   41.3844   12.5724  -16.1193 C   0  0  0  0  0  0  0  0  0  0  0  0
   40.0209   12.5094  -15.8793 C   0  0  0  0  0  0  0  0  0  0  0  0
   39.0032   11.8766  -16.5576 C   0  0  0  0  0  0  0  0  0  0  0  0
   38.9326   11.0961  -17.6871 C   0  0  0  0  0  0  0  0  0  0  0  0
   40.0230   10.7823  -18.4092 O   0  0  0  0  0  0  0  0  0  0  0  0
   37.6930   10.5829  -18.1444 C   0  0  0  0  0  0  0  0  0  0  0  0
   36.5518   10.8601  -17.4655 C   0  0  0  0  0  0  0  0  0  0  0  0
   36.6281   11.6575  -16.3140 C   0  0  0  0  0  0  0  0  0  0  0  0
   37.8271   12.1562  -15.8666 C   0  0  0  0  0  0  0  0  0  0  0  0
   40.9353   10.8418  -18.5449 H   0  0  0  0  0  0  0  0  0  0  0  0
   35.3044   13.2662  -12.7102 C   0  0  0  0  0  0  0  0  0  0  0  0
   36.2398   12.6551  -13.4638 O   0  0  0  0  0  0  0  0  0  0  0  0
   37.3129   13.5034  -13.7642 C   0  0  0  0  0  0  0  0  0  0  0  0
   36.4867   14.7210  -14.0879 C   0  0  0  0  0  0  0  0  0  0  0  0
   37.1213   15.9218  -13.9969 O   0  0  0  0  0  0  0  0  0  0  0  0
   35.5532   14.7369  -12.8007 C   0  0  0  0  0  0  0  0  0  0  0  0
   36.2940   15.1275  -11.7173 O   0  0  0  0  0  0  0  0  0  0  0  0
   36.3950   16.6204  -13.9754 H   0  0  0  0  0  0  0  0  0  0  0  0
   36.1898   16.0708  -11.4587 H   0  0  0  0  0  0  0  0  0  0  0  0
   33.2244   13.9414  -13.7473 O   0  0  0  0  0  0  0  0  0  0  0  0
   33.9253   12.8856  -13.2223 C   0  0  0  0  0  0  0  0  0  0  0  0
   32.2952   13.6904  -13.9153 H   0  0  0  0  0  0  0  0  0  0  0  0
 27 28  1  0  0  0
 28 18  1  0  0  0
 18 19  1  0  0  0
 19 20  1  0  0  0
 20 21  1  0  0  0
 21 22  1  0  0  0
 21 23  1  0  0  0
 23 24  1  0  0  0
 20  1  1  0  0  0
  1  2  1  0  0  0
  2  3  2  0  0  0
  3  4  1  0  0  0
  3  5  1  0  0  0
  5  6  2  0  0  0
  6  7  1  0  0  0
  6  8  1  0  0  0
  8  9  2  0  0  0
  9 10  1  0  0  0
 10 11  2  0  0  0
 11 12  1  0  0  0
 11 13  1  0  0  0
 13 14  2  0  0  0
 14 15  1  0  0  0
 15 16  2  0  0  0
 23 18  1  0  0  0
 16  1  1  0  0  0
  9  2  1  0  0  0
 16 10  1  0  0  0
 27 29  1  0  0  0
 22 25  1  0  0  0
 24 26  1  0  0  0
 12 17  1  0  0  0
M  END
> <minimizedAffinity>
-8.72171

> <CNNscore>
0.5976927876

> <CNNaffinity>
6.4002699852

> <CNN_VS>
3.8253951073

> <CNNaffinity_variance>
0.2949370146

$$$$
[H]Oc1c([H])c([H])c([H])c2c1c1c([H])c(Cl)c([H])c(Cl)c1n2[C@]1([H])O[C@]([H])(C([H])([H])O[H])[C@@]([H])(O[H])[C@@]1([H])O[H]


 29 32  0  0  0  0  0  0  0  0999 V2000
   36.8844   13.1289  -14.7012 N   0  0  0  0  0  0  0  0  0  0  0  0
   35.7658   12.5091  -15.2344 C   0  0  0  0  0  0  0  0  0  0  0  0
   34.4393   12.5632  -14.8851 C   0  0  0  0  0  0  0  0  0  0  0  0
   33.7753   13.4883  -13.5629 Cl  0  0  0  0  0  0  0  0  0  0  0  0
   33.5419   11.7959  -15.6470 C   0  0  0  0  0  0  0  0  0  0  0  0
   33.9512   11.0255  -16.6892 C   0  0  0  0  0  0  0  0  0  0  0  0
   32.8189   10.0836  -17.6260 Cl  0  0  0  0  0  0  0  0  0  0  0  0
   35.2929   10.9928  -17.0130 C   0  0  0  0  0  0  0  0  0  0  0  0
   36.2112   11.7352  -16.2875 C   0  0  0  0  0  0  0  0  0  0  0  0
   37.5766   11.8674  -16.4078 C   0  0  0  0  0  0  0  0  0  0  0  0
   38.5288   11.3424  -17.2491 C   0  0  0  0  0  0  0  0  0  0  0  0
   38.2156   10.4887  -18.2400 O   0  0  0  0  0  0  0  0  0  0  0  0
   39.8975   11.6823  -17.1062 C   0  0  0  0  0  0  0  0  0  0  0  0
   40.2857   12.5375  -16.1274 C   0  0  0  0  0  0  0  0  0  0  0  0
   39.3111   13.0702  -15.2707 C   0  0  0  0  0  0  0  0  0  0  0  0
   37.9837   12.7444  -15.4058 C   0  0  0  0  0  0  0  0  0  0  0  0
   37.5814   10.0040  -18.7059 H   0  0  0  0  0  0  0  0  0  0  0  0
   37.8424   15.5807  -12.3460 C   0  0  0  0  0  0  0  0  0  0  0  0
   37.8002   14.9243  -13.5224 O   0  0  0  0  0  0  0  0  0  0  0  0
   36.7357   14.0162  -13.5825 C   0  0  0  0  0  0  0  0  0  0  0  0
   36.9059   13.4565  -12.1941 C   0  0  0  0  0  0  0  0  0  0  0  0
   35.8114   12.8617  -11.6455 O   0  0  0  0  0  0  0  0  0  0  0  0
   36.9865   14.8224  -11.3840 C   0  0  0  0  0  0  0  0  0  0  0  0
   35.7433   15.3956  -11.3514 O   0  0  0  0  0  0  0  0  0  0  0  0
   35.9986   12.7897  -10.6576 H   0  0  0  0  0  0  0  0  0  0  0  0
   35.2413   15.2564  -10.5170 H   0  0  0  0  0  0  0  0  0  0  0  0
   40.1333   16.2012  -12.8197 O   0  0  0  0  0  0  0  0  0  0  0  0
   39.2854   15.6741  -11.8791 C   0  0  0  0  0  0  0  0  0  0  0  0
   41.0646   16.0962  -12.5435 H   0  0  0  0  0  0  0  0  0  0  0  0
 27 28  1  0  0  0
 28 18  1  0  0  0
 18 19  1  0  0  0
 19 20  1  0  0  0
 20 21  1  0  0  0
 21 22  1  0  0  0
 21 23  1  0  0  0
 23 24  1  0  0  0
 20  1  1  0  0  0
  1  2  1  0  0  0
  2  3  2  0  0  0
  3  4  1  0  0  0
  3  5  1  0  0  0
  5  6  2  0  0  0
  6  7  1  0  0  0
  6  8  1  0  0  0
  8  9  2  0  0  0
  9 10  1  0  0  0
 10 11  2  0  0  0
 11 12  1  0  0  0
 11 13  1  0  0  0
 13 14  2  0  0  0
 14 15  1  0  0  0
 15 16  2  0  0  0
 23 18  1  0  0  0
 16  1  1  0  0  0
  9  2  1  0  0  0
 16 10  1  0  0  0
 27 29  1  0  0  0
 22 25  1  0  0  0
 24 26  1  0  0  0
 12 17  1  0  0  0
M  END
> <minimizedAffinity>
-9.76115

> <CNNscore>
0.5881560445

> <CNNaffinity>
6.2007613182

> <CNN_VS>
3.6470153332

> <CNNaffinity_variance>
0.0766190812

$$$$
[H]Oc1c([H])c([H])c([H])c2c1c1c([H])c(Cl)c([H])c(Cl)c1n2[C@]1([H])O[C@]([H])(C([H])([H])O[H])[C@@]([H])(O[H])[C@@]1([H])O[H]


 29 32  0  0  0  0  0  0  0  0999 V2000
   38.6795   13.0327  -15.2084 N   0  0  0  0  0  0  0  0  0  0  0  0
   37.6520   12.3387  -15.8266 C   0  0  0  0  0  0  0  0  0  0  0  0
   37.6569   11.4135  -16.8409 C   0  0  0  0  0  0  0  0  0  0  0  0
   39.0722   10.8446  -17.6882 Cl  0  0  0  0  0  0  0  0  0  0  0  0
   36.4151   10.8923  -17.2418 C   0  0  0  0  0  0  0  0  0  0  0  0
   35.2472   11.2762  -16.6623 C   0  0  0  0  0  0  0  0  0  0  0  0
   33.7154   10.6124  -17.1722 Cl  0  0  0  0  0  0  0  0  0  0  0  0
   35.2778   12.2097  -15.6456 C   0  0  0  0  0  0  0  0  0  0  0  0
   36.4816   12.7484  -15.2196 C   0  0  0  0  0  0  0  0  0  0  0  0
   36.7716   13.6782  -14.2461 C   0  0  0  0  0  0  0  0  0  0  0  0
   36.0240   14.4099  -13.3540 C   0  0  0  0  0  0  0  0  0  0  0  0
   34.6849   14.3051  -13.2877 O   0  0  0  0  0  0  0  0  0  0  0  0
   36.6400   15.3170  -12.4556 C   0  0  0  0  0  0  0  0  0  0  0  0
   37.9873   15.4743  -12.4676 C   0  0  0  0  0  0  0  0  0  0  0  0
   38.7463   14.7264  -13.3799 C   0  0  0  0  0  0  0  0  0  0  0  0
   38.1539   13.8458  -14.2517 C   0  0  0  0  0  0  0  0  0  0  0  0
   33.8972   13.9295  -13.5921 H   0  0  0  0  0  0  0  0  0  0  0  0
   42.1974   12.9254  -14.9099 C   0  0  0  0  0  0  0  0  0  0  0  0
   40.9063   12.8528  -14.5298 O   0  0  0  0  0  0  0  0  0  0  0  0
   40.0350   12.8094  -15.6253 C   0  0  0  0  0  0  0  0  0  0  0  0
   40.7222   13.8768  -16.4366 C   0  0  0  0  0  0  0  0  0  0  0  0
   40.4901   13.8579  -17.7777 O   0  0  0  0  0  0  0  0  0  0  0  0
   42.2143   13.3347  -16.3470 C   0  0  0  0  0  0  0  0  0  0  0  0
   42.3290   12.2135  -17.1247 O   0  0  0  0  0  0  0  0  0  0  0  0
   41.2051   14.4347  -18.1928 H   0  0  0  0  0  0  0  0  0  0  0  0
   42.7334   12.3590  -18.0095 H   0  0  0  0  0  0  0  0  0  0  0  0
   42.4365   13.9701  -12.7398 O   0  0  0  0  0  0  0  0  0  0  0  0
   42.9231   13.9220  -14.0214 C   0  0  0  0  0  0  0  0  0  0  0  0
   42.8179   14.7267  -12.2532 H   0  0  0  0  0  0  0  0  0  0  0  0
 27 28  1  0  0  0
 28 18  1  0  0  0
 18 19  1  0  0  0
 19 20  1  0  0  0
 20 21  1  0  0  0
 21 22  1  0  0  0
 21 23  1  0  0  0
 23 24  1  0  0  0
 20  1  1  0  0  0
  1  2  1  0  0  0
  2  3  2  0  0  0
  3  4  1  0  0  0
  3  5  1  0  0  0
  5  6  2  0  0  0
  6  7  1  0  0  0
  6  8  1  0  0  0
  8  9  2  0  0  0
  9 10  1  0  0  0
 10 11  2  0  0  0
 11 12  1  0  0  0
 11 13  1  0  0  0
 13 14  2  0  0  0
 14 15  1  0  0  0
 15 16  2  0  0  0
 23 18  1  0  0  0
 16  1  1  0  0  0
  9  2  1  0  0  0
 16 10  1  0  0  0
 27 29  1  0  0  0
 22 25  1  0  0  0
 24 26  1  0  0  0
 12 17  1  0  0  0
M  END
> <minimizedAffinity>
-9.30098

> <CNNscore>
0.5213719010

> <CNNaffinity>
5.8970403671

> <CNN_VS>
3.0745511055

> <CNNaffinity_variance>
0.1624743789

$$$$
[H]N=C(N([H])[H])N([H])C([H])([H])C([H])([H])C([H])([H])[C@@]([H])(C(=O)O[H])N([H])C(=O)[C@]([H])(N([H])C(=O)[C@@]([H])(N([H])C(=O)[C@@]([H])(N([H])C(=O)[C@@]([H])(N([H])C(=O)[C@]([H])(N([H])C(=O)[C@@]([H])(N([H])C(=O)C([H])(C([H])([H])O[H])C([H])([H])O[H])C([H])([H])O[H])C([H])([H])O[H])C([H])([H])O[H])C([H])([H])O[H])C([H])([H])O[H])C([H])([H])O[H]


 75 74  0  0  0  0  0  0  0  0999 V2000
   36.4850   15.9100  -11.7540 C   0  0  0  0  0  0  0  0  0  0  0  0
   36.1225   16.9726   -9.5207 N   0  0  0  0  0  0  0  0  0  0  0  0
   36.8610   16.1161  -10.3401 C   0  0  0  0  0  0  0  0  0  0  0  0
   37.8541   15.5160   -9.8756 O   0  0  0  0  0  0  0  0  0  0  0  0
   35.2761   17.4569   -9.9455 H   0  0  0  0  0  0  0  0  0  0  0  0
   36.3737   17.2808   -8.1627 C   0  0  0  0  0  0  0  0  0  0  0  0
   34.2161   16.1103   -7.5286 N   0  0  0  0  0  0  0  0  0  0  0  0
   35.3894   16.7894   -7.1750 C   0  0  0  0  0  0  0  0  0  0  0  0
   35.6273   16.9953   -5.9672 O   0  0  0  0  0  0  0  0  0  0  0  0
   34.0062   15.9325   -8.5249 H   0  0  0  0  0  0  0  0  0  0  0  0
   33.2728   15.6406   -6.5410 C   0  0  0  0  0  0  0  0  0  0  0  0
   30.7059   15.8513   -6.6140 N   0  0  0  0  0  0  0  0  0  0  0  0
   31.9523   15.5385   -7.1979 C   0  0  0  0  0  0  0  0  0  0  0  0
   31.9235   15.1260   -8.4089 O   0  0  0  0  0  0  0  0  0  0  0  0
   30.5622   16.2110   -5.6471 H   0  0  0  0  0  0  0  0  0  0  0  0
   29.4663   15.6922   -7.3794 C   0  0  0  0  0  0  0  0  0  0  0  0
   28.3770   16.4698   -6.7665 C   0  0  0  0  0  0  0  0  0  0  0  0
   28.0550   16.2100   -5.4392 O   0  0  0  0  0  0  0  0  0  0  0  0
   27.7142   17.3481   -7.3434 O   0  0  0  0  0  0  0  0  0  0  0  0
   28.6831   16.5310   -4.6995 H   0  0  0  0  0  0  0  0  0  0  0  0
   29.0608   14.2019   -7.3530 C   0  0  0  0  0  0  0  0  0  0  0  0
   28.1200   13.8861   -8.4459 C   0  0  0  0  0  0  0  0  0  0  0  0
   28.3837   14.5887   -9.7320 C   0  0  0  0  0  0  0  0  0  0  0  0
   29.6243   14.2594  -10.3417 N   0  0  0  0  0  0  0  0  0  0  0  0
   30.2733   13.6179   -9.7705 H   0  0  0  0  0  0  0  0  0  0  0  0
   31.3655   15.3263  -11.6317 N   0  0  0  0  0  0  0  0  0  0  0  0
   30.1151   14.6695  -11.6040 C   0  0  0  0  0  0  0  0  0  0  0  0
   29.4749   14.4545  -12.7223 N   0  0  0  0  0  0  0  0  0  0  0  0
   31.4479   16.2769  -12.0264 H   0  0  0  0  0  0  0  0  0  0  0  0
   32.1981   14.8460  -11.2523 H   0  0  0  0  0  0  0  0  0  0  0  0
   28.5551   13.9698  -12.6834 H   0  0  0  0  0  0  0  0  0  0  0  0
   33.6734   14.2479   -6.0638 C   0  0  0  0  0  0  0  0  0  0  0  0
   32.5552   13.6475   -5.5204 O   0  0  0  0  0  0  0  0  0  0  0  0
   32.4366   13.7960   -4.5442 H   0  0  0  0  0  0  0  0  0  0  0  0
   36.4712   18.7920   -8.0110 C   0  0  0  0  0  0  0  0  0  0  0  0
   35.1842   19.2768   -7.7054 O   0  0  0  0  0  0  0  0  0  0  0  0
   34.7385   19.6901   -8.4800 H   0  0  0  0  0  0  0  0  0  0  0  0
   37.6896   15.8054  -12.5711 N   0  0  0  0  0  0  0  0  0  0  0  0
   38.2264   14.5669  -13.0005 C   0  0  0  0  0  0  0  0  0  0  0  0
   37.6793   13.4820  -12.7114 O   0  0  0  0  0  0  0  0  0  0  0  0
   38.1658   16.6831  -12.8449 H   0  0  0  0  0  0  0  0  0  0  0  0
   39.4788   14.5326  -13.8193 C   0  0  0  0  0  0  0  0  0  0  0  0
   40.6127   14.5671  -12.9519 N   0  0  0  0  0  0  0  0  0  0  0  0
   41.2261   15.7184  -12.4095 C   0  0  0  0  0  0  0  0  0  0  0  0
   40.7401   16.8439  -12.6764 O   0  0  0  0  0  0  0  0  0  0  0  0
   41.0252   13.6358  -12.6804 H   0  0  0  0  0  0  0  0  0  0  0  0
   42.4107   15.6550  -11.5441 C   0  0  0  0  0  0  0  0  0  0  0  0
   43.2084   14.4470  -11.7874 N   0  0  0  0  0  0  0  0  0  0  0  0
   44.5960   14.4515  -11.6549 C   0  0  0  0  0  0  0  0  0  0  0  0
   45.1818   15.5187  -11.2988 O   0  0  0  0  0  0  0  0  0  0  0  0
   42.6596   13.6097  -12.0565 H   0  0  0  0  0  0  0  0  0  0  0  0
   45.4111   13.2437  -11.9169 C   0  0  0  0  0  0  0  0  0  0  0  0
   46.6334   13.5405  -12.6215 N   0  0  0  0  0  0  0  0  0  0  0  0
   46.9461   13.0956  -13.9147 C   0  0  0  0  0  0  0  0  0  0  0  0
   46.1508   12.3841  -14.5704 O   0  0  0  0  0  0  0  0  0  0  0  0
   47.3338   14.1444  -12.0954 H   0  0  0  0  0  0  0  0  0  0  0  0
   48.2542   13.4635  -14.5517 C   0  0  0  0  0  0  0  0  0  0  0  0
   49.2696   12.4990  -13.9549 C   0  0  0  0  0  0  0  0  0  0  0  0
   48.5876   11.3872  -13.4932 O   0  0  0  0  0  0  0  0  0  0  0  0
   49.1965   10.6539  -13.2961 H   0  0  0  0  0  0  0  0  0  0  0  0
   48.2297   13.2575  -16.0420 C   0  0  0  0  0  0  0  0  0  0  0  0
   49.3118   12.4458  -16.3725 O   0  0  0  0  0  0  0  0  0  0  0  0
   49.0853   11.8038  -17.1152 H   0  0  0  0  0  0  0  0  0  0  0  0
   45.5913   12.4012  -10.6918 C   0  0  0  0  0  0  0  0  0  0  0  0
   46.7314   11.6003  -10.8524 O   0  0  0  0  0  0  0  0  0  0  0  0
   46.7000   11.2951  -11.8070 H   0  0  0  0  0  0  0  0  0  0  0  0
   41.9055   15.6014  -10.0851 C   0  0  0  0  0  0  0  0  0  0  0  0
   42.0958   14.3394   -9.5648 O   0  0  0  0  0  0  0  0  0  0  0  0
   41.4501   13.6746   -9.9619 H   0  0  0  0  0  0  0  0  0  0  0  0
   39.4379   13.3535  -14.7236 C   0  0  0  0  0  0  0  0  0  0  0  0
   40.2911   13.5813  -15.8196 O   0  0  0  0  0  0  0  0  0  0  0  0
   39.7554   14.0153  -16.5130 H   0  0  0  0  0  0  0  0  0  0  0  0
   35.5613   14.7387  -11.9786 C   0  0  0  0  0  0  0  0  0  0  0  0
   35.5082   13.9132  -10.8477 O   0  0  0  0  0  0  0  0  0  0  0  0
   35.2141   13.0062  -11.0635 H   0  0  0  0  0  0  0  0  0  0  0  0
 26 27  1  0  0  0
 27 28  2  0  0  0
 27 24  1  0  0  0
 24 23  1  0  0  0
 23 22  1  0  0  0
 22 21  1  0  0  0
 21 16  1  0  0  0
 16 12  1  0  0  0
 12 13  1  0  0  0
 13 14  2  0  0  0
 13 11  1  0  0  0
 11 32  1  0  0  0
 32 33  1  0  0  0
 11  7  1  0  0  0
  7  8  1  0  0  0
  8  9  2  0  0  0
  8  6  1  0  0  0
  6 35  1  0  0  0
 35 36  1  0  0  0
  6  2  1  0  0  0
  2  3  1  0  0  0
  3  4  2  0  0  0
  3  1  1  0  0  0
  1 73  1  0  0  0
 73 74  1  0  0  0
  1 38  1  0  0  0
 38 39  1  0  0  0
 39 40  2  0  0  0
 39 42  1  0  0  0
 42 70  1  0  0  0
 70 71  1  0  0  0
 42 43  1  0  0  0
 43 44  1  0  0  0
 44 45  2  0  0  0
 44 47  1  0  0  0
 47 67  1  0  0  0
 67 68  1  0  0  0
 47 48  1  0  0  0
 48 49  1  0  0  0
 49 50  2  0  0  0
 49 52  1  0  0  0
 52 64  1  0  0  0
 64 65  1  0  0  0
 52 53  1  0  0  0
 53 54  1  0  0  0
 54 55  2  0  0  0
 54 57  1  0  0  0
 57 61  1  0  0  0
 61 62  1  0  0  0
 57 58  1  0  0  0
 58 59  1  0  0  0
 16 17  1  0  0  0
 17 18  1  0  0  0
 17 19  2  0  0  0
 26 29  1  0  0  0
 26 30  1  0  0  0
 28 31  1  0  0  0
 24 25  1  0  0  0
 12 15  1  0  0  0
 33 34  1  0  0  0
  7 10  1  0  0  0
 36 37  1  0  0  0
  2  5  1  0  0  0
 74 75  1  0  0  0
 38 41  1  0  0  0
 71 72  1  0  0  0
 43 46  1  0  0  0
 68 69  1  0  0  0
 48 51  1  0  0  0
 65 66  1  0  0  0
 53 56  1  0  0  0
 62 63  1  0  0  0
 59 60  1  0  0  0
 18 20  1  0  0  0
M  END
> <minimizedAffinity>
-7.17807

> <CNNscore>
0.2179201394

> <CNNaffinity>
5.1142816544

> <CNN_VS>
1.1145049334

> <CNNaffinity_variance>
1.0799489021

$$$$
[H]N=C(N([H])[H])N([H])C([H])([H])C([H])([H])C([H])([H])[C@@]([H])(C(=O)O[H])N([H])C(=O)[C@]([H])(N([H])C(=O)[C@@]([H])(N([H])C(=O)[C@@]([H])(N([H])C(=O)[C@@]([H])(N([H])C(=O)[C@]([H])(N([H])C(=O)[C@@]([H])(N([H])C(=O)C([H])(C([H])([H])O[H])C([H])([H])O[H])C([H])([H])O[H])C([H])([H])O[H])C([H])([H])O[H])C([H])([H])O[H])C([H])([H])O[H])C([H])([H])O[H]


 75 74  0  0  0  0  0  0  0  0999 V2000
   31.7442   15.4487  -10.9704 C   0  0  0  0  0  0  0  0  0  0  0  0
   31.7664   14.6019   -8.6186 N   0  0  0  0  0  0  0  0  0  0  0  0
   31.3343   15.5445   -9.5541 C   0  0  0  0  0  0  0  0  0  0  0  0
   30.5899   16.4813   -9.1929 O   0  0  0  0  0  0  0  0  0  0  0  0
   32.4093   13.8255   -8.9583 H   0  0  0  0  0  0  0  0  0  0  0  0
   31.4415   14.5553   -7.2422 C   0  0  0  0  0  0  0  0  0  0  0  0
   33.8310   14.3138   -6.4301 N   0  0  0  0  0  0  0  0  0  0  0  0
   32.4684   14.0022   -6.3336 C   0  0  0  0  0  0  0  0  0  0  0  0
   32.0898   13.2196   -5.4383 O   0  0  0  0  0  0  0  0  0  0  0  0
   34.1589   14.9606   -7.1665 H   0  0  0  0  0  0  0  0  0  0  0  0
   34.8118   13.7587   -5.5270 C   0  0  0  0  0  0  0  0  0  0  0  0
   37.3693   14.0718   -5.5325 N   0  0  0  0  0  0  0  0  0  0  0  0
   36.1329   13.8664   -6.1818 C   0  0  0  0  0  0  0  0  0  0  0  0
   36.1717   13.7687   -7.4571 O   0  0  0  0  0  0  0  0  0  0  0  0
   37.5074   14.1570   -4.5036 H   0  0  0  0  0  0  0  0  0  0  0  0
   38.6083   14.1715   -6.3088 C   0  0  0  0  0  0  0  0  0  0  0  0
   39.4292   12.9628   -6.1295 C   0  0  0  0  0  0  0  0  0  0  0  0
   39.6394   12.1456   -7.2344 O   0  0  0  0  0  0  0  0  0  0  0  0
   39.9549   12.6085   -5.0610 O   0  0  0  0  0  0  0  0  0  0  0  0
   40.2772   12.4538   -7.9711 H   0  0  0  0  0  0  0  0  0  0  0  0
   39.4185   15.3790   -5.7876 C   0  0  0  0  0  0  0  0  0  0  0  0
   38.9278   15.8199   -4.4669 C   0  0  0  0  0  0  0  0  0  0  0  0
   39.5287   17.0834   -3.9571 C   0  0  0  0  0  0  0  0  0  0  0  0
   39.6303   18.1211   -4.9225 N   0  0  0  0  0  0  0  0  0  0  0  0
   40.6159   18.3024   -5.3158 H   0  0  0  0  0  0  0  0  0  0  0  0
   38.6671   19.3014   -6.7969 N   0  0  0  0  0  0  0  0  0  0  0  0
   38.6001   18.9473   -5.4309 C   0  0  0  0  0  0  0  0  0  0  0  0
   37.6028   19.3733   -4.7026 N   0  0  0  0  0  0  0  0  0  0  0  0
   38.7009   20.2943   -7.0783 H   0  0  0  0  0  0  0  0  0  0  0  0
   38.6823   18.5564   -7.5128 H   0  0  0  0  0  0  0  0  0  0  0  0
   37.5695   19.1033   -3.6984 H   0  0  0  0  0  0  0  0  0  0  0  0
   34.8527   14.5776   -4.2404 C   0  0  0  0  0  0  0  0  0  0  0  0
   35.3334   15.8338   -4.5521 O   0  0  0  0  0  0  0  0  0  0  0  0
   36.3206   15.9307   -4.4807 H   0  0  0  0  0  0  0  0  0  0  0  0
   30.1716   13.7355   -7.0640 C   0  0  0  0  0  0  0  0  0  0  0  0
   30.3542   12.5097   -7.7338 O   0  0  0  0  0  0  0  0  0  0  0  0
   29.8892   12.4759   -8.6010 H   0  0  0  0  0  0  0  0  0  0  0  0
   33.1952   15.3165  -11.0526 N   0  0  0  0  0  0  0  0  0  0  0  0
   33.8552   14.7209  -12.1554 C   0  0  0  0  0  0  0  0  0  0  0  0
   33.2209   14.2851  -13.1392 O   0  0  0  0  0  0  0  0  0  0  0  0
   33.7592   15.6786  -10.2634 H   0  0  0  0  0  0  0  0  0  0  0  0
   35.3468   14.5986  -12.1637 C   0  0  0  0  0  0  0  0  0  0  0  0
   35.8783   15.2069  -10.9861 N   0  0  0  0  0  0  0  0  0  0  0  0
   36.3832   16.5213  -10.8690 C   0  0  0  0  0  0  0  0  0  0  0  0
   36.3587   17.2694  -11.8760 O   0  0  0  0  0  0  0  0  0  0  0  0
   35.8822   14.6165  -10.1129 H   0  0  0  0  0  0  0  0  0  0  0  0
   36.9363   17.0517   -9.6164 C   0  0  0  0  0  0  0  0  0  0  0  0
   35.9614   17.8698   -8.8849 N   0  0  0  0  0  0  0  0  0  0  0  0
   35.8147   17.7657   -7.5026 C   0  0  0  0  0  0  0  0  0  0  0  0
   36.5523   16.9588   -6.8593 O   0  0  0  0  0  0  0  0  0  0  0  0
   35.4080   18.5186   -9.4742 H   0  0  0  0  0  0  0  0  0  0  0  0
   34.8211   18.5720   -6.7582 C   0  0  0  0  0  0  0  0  0  0  0  0
   34.7961   19.9505   -7.1797 N   0  0  0  0  0  0  0  0  0  0  0  0
   34.7981   21.0569   -6.3171 C   0  0  0  0  0  0  0  0  0  0  0  0
   34.8250   20.9146   -5.0731 O   0  0  0  0  0  0  0  0  0  0  0  0
   34.7739   20.1107   -8.2314 H   0  0  0  0  0  0  0  0  0  0  0  0
   34.7670   22.4527   -6.8678 C   0  0  0  0  0  0  0  0  0  0  0  0
   36.1503   23.0209   -6.5827 C   0  0  0  0  0  0  0  0  0  0  0  0
   37.0122   21.9625   -6.3563 O   0  0  0  0  0  0  0  0  0  0  0  0
   37.9415   22.2509   -6.3781 H   0  0  0  0  0  0  0  0  0  0  0  0
   34.5521   22.4633   -8.3569 C   0  0  0  0  0  0  0  0  0  0  0  0
   35.7359   22.0405   -8.9560 O   0  0  0  0  0  0  0  0  0  0  0  0
   35.5619   21.4740   -9.7707 H   0  0  0  0  0  0  0  0  0  0  0  0
   33.4760   17.9151   -6.7088 C   0  0  0  0  0  0  0  0  0  0  0  0
   33.2503   17.2455   -7.9203 O   0  0  0  0  0  0  0  0  0  0  0  0
   33.6054   17.8626   -8.6262 H   0  0  0  0  0  0  0  0  0  0  0  0
   38.1268   17.9609   -9.9943 C   0  0  0  0  0  0  0  0  0  0  0  0
   39.0911   17.2285  -10.6524 O   0  0  0  0  0  0  0  0  0  0  0  0
   39.5799   16.6109  -10.0228 H   0  0  0  0  0  0  0  0  0  0  0  0
   35.7179   13.1692  -12.3328 C   0  0  0  0  0  0  0  0  0  0  0  0
   37.0506   13.0867  -12.7777 O   0  0  0  0  0  0  0  0  0  0  0  0
   37.0266   13.1000  -13.7551 H   0  0  0  0  0  0  0  0  0  0  0  0
   31.0451   14.3549  -11.7386 C   0  0  0  0  0  0  0  0  0  0  0  0
   30.0335   14.8781  -12.5548 O   0  0  0  0  0  0  0  0  0  0  0  0
   29.3610   14.2080  -12.7882 H   0  0  0  0  0  0  0  0  0  0  0  0
 26 27  1  0  0  0
 27 28  2  0  0  0
 27 24  1  0  0  0
 24 23  1  0  0  0
 23 22  1  0  0  0
 22 21  1  0  0  0
 21 16  1  0  0  0
 16 12  1  0  0  0
 12 13  1  0  0  0
 13 14  2  0  0  0
 13 11  1  0  0  0
 11 32  1  0  0  0
 32 33  1  0  0  0
 11  7  1  0  0  0
  7  8  1  0  0  0
  8  9  2  0  0  0
  8  6  1  0  0  0
  6 35  1  0  0  0
 35 36  1  0  0  0
  6  2  1  0  0  0
  2  3  1  0  0  0
  3  4  2  0  0  0
  3  1  1  0  0  0
  1 73  1  0  0  0
 73 74  1  0  0  0
  1 38  1  0  0  0
 38 39  1  0  0  0
 39 40  2  0  0  0
 39 42  1  0  0  0
 42 70  1  0  0  0
 70 71  1  0  0  0
 42 43  1  0  0  0
 43 44  1  0  0  0
 44 45  2  0  0  0
 44 47  1  0  0  0
 47 67  1  0  0  0
 67 68  1  0  0  0
 47 48  1  0  0  0
 48 49  1  0  0  0
 49 50  2  0  0  0
 49 52  1  0  0  0
 52 64  1  0  0  0
 64 65  1  0  0  0
 52 53  1  0  0  0
 53 54  1  0  0  0
 54 55  2  0  0  0
 54 57  1  0  0  0
 57 61  1  0  0  0
 61 62  1  0  0  0
 57 58  1  0  0  0
 58 59  1  0  0  0
 16 17  1  0  0  0
 17 18  1  0  0  0
 17 19  2  0  0  0
 26 29  1  0  0  0
 26 30  1  0  0  0
 28 31  1  0  0  0
 24 25  1  0  0  0
 12 15  1  0  0  0
 33 34  1  0  0  0
  7 10  1  0  0  0
 36 37  1  0  0  0
  2  5  1  0  0  0
 74 75  1  0  0  0
 38 41  1  0  0  0
 71 72  1  0  0  0
 43 46  1  0  0  0
 68 69  1  0  0  0
 48 51  1  0  0  0
 65 66  1  0  0  0
 53 56  1  0  0  0
 62 63  1  0  0  0
 59 60  1  0  0  0
 18 20  1  0  0  0
M  END
> <minimizedAffinity>
-6.98770

> <CNNscore>
0.1997182518

> <CNNaffinity>
5.3561878204

> <CNN_VS>
1.0697284937

> <CNNaffinity_variance>
1.8236382008

$$$$
[H]N=C(N([H])[H])N([H])C([H])([H])C([H])([H])C([H])([H])[C@@]([H])(C(=O)O[H])N([H])C(=O)[C@]([H])(N([H])C(=O)[C@@]([H])(N([H])C(=O)[C@@]([H])(N([H])C(=O)[C@@]([H])(N([H])C(=O)[C@]([H])(N([H])C(=O)[C@@]([H])(N([H])C(=O)C([H])(C([H])([H])O[H])C([H])([H])O[H])C([H])([H])O[H])C([H])([H])O[H])C([H])([H])O[H])C([H])([H])O[H])C([H])([H])O[H])C([H])([H])O[H]


 75 74  0  0  0  0  0  0  0  0999 V2000
   30.9451   14.8608  -10.4141 C   0  0  0  0  0  0  0  0  0  0  0  0
   33.3603   15.4335  -10.1189 N   0  0  0  0  0  0  0  0  0  0  0  0
   32.2420   15.3250  -10.9484 C   0  0  0  0  0  0  0  0  0  0  0  0
   32.3352   15.6250  -12.1581 O   0  0  0  0  0  0  0  0  0  0  0  0
   33.2482   15.1576   -9.0977 H   0  0  0  0  0  0  0  0  0  0  0  0
   34.6529   15.8786  -10.4836 C   0  0  0  0  0  0  0  0  0  0  0  0
   35.6608   14.6932  -12.4852 N   0  0  0  0  0  0  0  0  0  0  0  0
   35.5519   14.8803  -11.1009 C   0  0  0  0  0  0  0  0  0  0  0  0
   36.2448   14.1746  -10.3398 O   0  0  0  0  0  0  0  0  0  0  0  0
   35.0932   15.2706  -13.1276 H   0  0  0  0  0  0  0  0  0  0  0  0
   36.5490   13.7102  -13.0601 C   0  0  0  0  0  0  0  0  0  0  0  0
   35.8772   11.9799  -14.8471 N   0  0  0  0  0  0  0  0  0  0  0  0
   35.9800   13.3014  -14.3619 C   0  0  0  0  0  0  0  0  0  0  0  0
   35.5385   14.2237  -15.1312 O   0  0  0  0  0  0  0  0  0  0  0  0
   36.1762   11.1218  -14.3380 H   0  0  0  0  0  0  0  0  0  0  0  0
   35.2991   11.7165  -16.1677 C   0  0  0  0  0  0  0  0  0  0  0  0
   33.8926   11.3004  -16.0425 C   0  0  0  0  0  0  0  0  0  0  0  0
   33.1900   11.0120  -17.2070 O   0  0  0  0  0  0  0  0  0  0  0  0
   33.2746   11.1849  -14.9709 O   0  0  0  0  0  0  0  0  0  0  0  0
   33.3885   10.1445  -17.7097 H   0  0  0  0  0  0  0  0  0  0  0  0
   36.0817   10.5578  -16.8242 C   0  0  0  0  0  0  0  0  0  0  0  0
   36.9818   11.0553  -17.8833 C   0  0  0  0  0  0  0  0  0  0  0  0
   38.4345   10.8502  -17.6286 C   0  0  0  0  0  0  0  0  0  0  0  0
   39.0683   11.9141  -16.9319 N   0  0  0  0  0  0  0  0  0  0  0  0
   38.6240   12.1906  -15.9911 H   0  0  0  0  0  0  0  0  0  0  0  0
   40.7269   13.5832  -16.3868 N   0  0  0  0  0  0  0  0  0  0  0  0
   40.2086   12.6572  -17.3192 C   0  0  0  0  0  0  0  0  0  0  0  0
   40.7958   12.5107  -18.4770 N   0  0  0  0  0  0  0  0  0  0  0  0
   40.8064   14.5831  -16.6322 H   0  0  0  0  0  0  0  0  0  0  0  0
   41.0260   13.2503  -15.4554 H   0  0  0  0  0  0  0  0  0  0  0  0
   40.4004   11.8245  -19.1517 H   0  0  0  0  0  0  0  0  0  0  0  0
   37.9168   14.3357  -13.3165 C   0  0  0  0  0  0  0  0  0  0  0  0
   38.5055   13.6544  -14.3632 O   0  0  0  0  0  0  0  0  0  0  0  0
   39.0657   12.8788  -14.0917 H   0  0  0  0  0  0  0  0  0  0  0  0
   35.3494   16.4320   -9.2487 C   0  0  0  0  0  0  0  0  0  0  0  0
   34.9250   15.6732   -8.1401 O   0  0  0  0  0  0  0  0  0  0  0  0
   34.2516   16.1397   -7.5940 H   0  0  0  0  0  0  0  0  0  0  0  0
   30.5765   15.6661   -9.2543 N   0  0  0  0  0  0  0  0  0  0  0  0
   30.3431   15.1118   -7.9719 C   0  0  0  0  0  0  0  0  0  0  0  0
   30.4581   13.8865   -7.7586 O   0  0  0  0  0  0  0  0  0  0  0  0
   30.4847   16.6891   -9.3854 H   0  0  0  0  0  0  0  0  0  0  0  0
   29.9466   15.9952   -6.8306 C   0  0  0  0  0  0  0  0  0  0  0  0
   30.1937   17.3579   -7.1787 N   0  0  0  0  0  0  0  0  0  0  0  0
   30.6459   18.3811   -6.3158 C   0  0  0  0  0  0  0  0  0  0  0  0
   30.8876   18.0975   -5.1177 O   0  0  0  0  0  0  0  0  0  0  0  0
   30.0328   17.6222   -8.1864 H   0  0  0  0  0  0  0  0  0  0  0  0
   30.8463   19.7659   -6.7614 C   0  0  0  0  0  0  0  0  0  0  0  0
   31.5398   20.5758   -5.7525 N   0  0  0  0  0  0  0  0  0  0  0  0
   32.2225   21.7411   -6.0977 C   0  0  0  0  0  0  0  0  0  0  0  0
   32.2302   22.1203   -7.3080 O   0  0  0  0  0  0  0  0  0  0  0  0
   31.4745   20.2137   -4.7834 H   0  0  0  0  0  0  0  0  0  0  0  0
   32.9414   22.5542   -5.0908 C   0  0  0  0  0  0  0  0  0  0  0  0
   33.3449   21.7847   -3.9404 N   0  0  0  0  0  0  0  0  0  0  0  0
   32.8214   21.9337   -2.6474 C   0  0  0  0  0  0  0  0  0  0  0  0
   31.9308   22.7781   -2.3972 O   0  0  0  0  0  0  0  0  0  0  0  0
   34.1000   21.0557   -4.1152 H   0  0  0  0  0  0  0  0  0  0  0  0
   33.3199   21.0778   -1.5199 C   0  0  0  0  0  0  0  0  0  0  0  0
   33.0429   19.6464   -1.9580 C   0  0  0  0  0  0  0  0  0  0  0  0
   31.9296   19.6554   -2.7794 O   0  0  0  0  0  0  0  0  0  0  0  0
   31.8321   18.8113   -3.2541 H   0  0  0  0  0  0  0  0  0  0  0  0
   34.8029   21.2281   -1.3152 C   0  0  0  0  0  0  0  0  0  0  0  0
   35.0190   22.4504   -0.6840 O   0  0  0  0  0  0  0  0  0  0  0  0
   35.7711   22.3990   -0.0156 H   0  0  0  0  0  0  0  0  0  0  0  0
   34.0341   23.3785   -5.6988 C   0  0  0  0  0  0  0  0  0  0  0  0
   34.4464   24.3458   -4.7708 O   0  0  0  0  0  0  0  0  0  0  0  0
   33.5997   24.6704   -4.3429 H   0  0  0  0  0  0  0  0  0  0  0  0
   29.4458   20.3805   -6.9792 C   0  0  0  0  0  0  0  0  0  0  0  0
   28.5171   19.7313   -6.1947 O   0  0  0  0  0  0  0  0  0  0  0  0
   28.3205   18.8060   -6.5438 H   0  0  0  0  0  0  0  0  0  0  0  0
   28.5369   15.7066   -6.4575 C   0  0  0  0  0  0  0  0  0  0  0  0
   27.8554   15.2010   -7.5804 O   0  0  0  0  0  0  0  0  0  0  0  0
   27.4759   15.9682   -8.0532 H   0  0  0  0  0  0  0  0  0  0  0  0
   29.8373   14.8258  -11.4374 C   0  0  0  0  0  0  0  0  0  0  0  0
   30.1878   14.0275  -12.5342 O   0  0  0  0  0  0  0  0  0  0  0  0
   29.6723   14.2492  -13.3347 H   0  0  0  0  0  0  0  0  0  0  0  0
 26 27  1  0  0  0
 27 28  2  0  0  0
 27 24  1  0  0  0
 24 23  1  0  0  0
 23 22  1  0  0  0
 22 21  1  0  0  0
 21 16  1  0  0  0
 16 12  1  0  0  0
 12 13  1  0  0  0
 13 14  2  0  0  0
 13 11  1  0  0  0
 11 32  1  0  0  0
 32 33  1  0  0  0
 11  7  1  0  0  0
  7  8  1  0  0  0
  8  9  2  0  0  0
  8  6  1  0  0  0
  6 35  1  0  0  0
 35 36  1  0  0  0
  6  2  1  0  0  0
  2  3  1  0  0  0
  3  4  2  0  0  0
  3  1  1  0  0  0
  1 73  1  0  0  0
 73 74  1  0  0  0
  1 38  1  0  0  0
 38 39  1  0  0  0
 39 40  2  0  0  0
 39 42  1  0  0  0
 42 70  1  0  0  0
 70 71  1  0  0  0
 42 43  1  0  0  0
 43 44  1  0  0  0
 44 45  2  0  0  0
 44 47  1  0  0  0
 47 67  1  0  0  0
 67 68  1  0  0  0
 47 48  1  0  0  0
 48 49  1  0  0  0
 49 50  2  0  0  0
 49 52  1  0  0  0
 52 64  1  0  0  0
 64 65  1  0  0  0
 52 53  1  0  0  0
 53 54  1  0  0  0
 54 55  2  0  0  0
 54 57  1  0  0  0
 57 61  1  0  0  0
 61 62  1  0  0  0
 57 58  1  0  0  0
 58 59  1  0  0  0
 16 17  1  0  0  0
 17 18  1  0  0  0
 17 19  2  0  0  0
 26 29  1  0  0  0
 26 30  1  0  0  0
 28 31  1  0  0  0
 24 25  1  0  0  0
 12 15  1  0  0  0
 33 34  1  0  0  0
  7 10  1  0  0  0
 36 37  1  0  0  0
  2  5  1  0  0  0
 74 75  1  0  0  0
 38 41  1  0  0  0
 71 72  1  0  0  0
 43 46  1  0  0  0
 68 69  1  0  0  0
 48 51  1  0  0  0
 65 66  1  0  0  0
 53 56  1  0  0  0
 62 63  1  0  0  0
 59 60  1  0  0  0
 18 20  1  0  0  0
M  END
> <minimizedAffinity>
-7.78133

> <CNNscore>
0.1792062223

> <CNNaffinity>
5.6189241409

> <CNN_VS>
1.0069462061

> <CNNaffinity_variance>
0.5044027567

$$$$
[H]N=C(N([H])[H])N([H])C([H])([H])C([H])([H])C([H])([H])[C@@]([H])(C(=O)O[H])N([H])C(=O)[C@]([H])(N([H])C(=O)[C@@]([H])(N([H])C(=O)[C@@]([H])(N([H])C(=O)[C@@]([H])(N([H])C(=O)[C@]([H])(N([H])C(=O)[C@@]([H])(N([H])C(=O)C([H])(C([H])([H])O[H])C([H])([H])O[H])C([H])([H])O[H])C([H])([H])O[H])C([H])([H])O[H])C([H])([H])O[H])C([H])([H])O[H])C([H])([H])O[H]


 75 74  0  0  0  0  0  0  0  0999 V2000
   36.4995   15.8867  -11.7971 C   0  0  0  0  0  0  0  0  0  0  0  0
   36.1161   16.9356   -9.5607 N   0  0  0  0  0  0  0  0  0  0  0  0
   36.8772   16.1041  -10.3853 C   0  0  0  0  0  0  0  0  0  0  0  0
   37.8922   15.5366   -9.9274 O   0  0  0  0  0  0  0  0  0  0  0  0
   35.2517   17.3922   -9.9800 H   0  0  0  0  0  0  0  0  0  0  0  0
   36.3653   17.2509   -8.2041 C   0  0  0  0  0  0  0  0  0  0  0  0
   34.2011   16.0949   -7.5661 N   0  0  0  0  0  0  0  0  0  0  0  0
   35.3853   16.7557   -7.2140 C   0  0  0  0  0  0  0  0  0  0  0  0
   35.6372   16.9409   -6.0058 O   0  0  0  0  0  0  0  0  0  0  0  0
   33.9795   15.9344   -8.5628 H   0  0  0  0  0  0  0  0  0  0  0  0
   33.2623   15.6209   -6.5763 C   0  0  0  0  0  0  0  0  0  0  0  0
   30.6981   15.8628   -6.6480 N   0  0  0  0  0  0  0  0  0  0  0  0
   31.9389   15.5213   -7.2277 C   0  0  0  0  0  0  0  0  0  0  0  0
   31.9016   15.0828   -8.4293 O   0  0  0  0  0  0  0  0  0  0  0  0
   30.5615   16.2455   -5.6888 H   0  0  0  0  0  0  0  0  0  0  0  0
   29.4546   15.7028   -7.4068 C   0  0  0  0  0  0  0  0  0  0  0  0
   28.3699   16.4857   -6.7924 C   0  0  0  0  0  0  0  0  0  0  0  0
   28.0219   16.2003   -5.4770 O   0  0  0  0  0  0  0  0  0  0  0  0
   27.7325   17.3896   -7.3583 O   0  0  0  0  0  0  0  0  0  0  0  0
   28.6436   16.4919   -4.7200 H   0  0  0  0  0  0  0  0  0  0  0  0
   29.0460   14.2136   -7.3715 C   0  0  0  0  0  0  0  0  0  0  0  0
   28.0936   13.8964   -8.4540 C   0  0  0  0  0  0  0  0  0  0  0  0
   28.3504   14.5886   -9.7472 C   0  0  0  0  0  0  0  0  0  0  0  0
   29.5973   14.2709  -10.3500 N   0  0  0  0  0  0  0  0  0  0  0  0
   30.2475   13.6324   -9.7768 H   0  0  0  0  0  0  0  0  0  0  0  0
   31.3214   15.3868  -11.6214 N   0  0  0  0  0  0  0  0  0  0  0  0
   30.0930   14.6892  -11.6076 C   0  0  0  0  0  0  0  0  0  0  0  0
   29.4770   14.4461  -12.7337 N   0  0  0  0  0  0  0  0  0  0  0  0
   31.3783   16.3371  -12.0213 H   0  0  0  0  0  0  0  0  0  0  0  0
   32.1637   14.9367  -11.2267 H   0  0  0  0  0  0  0  0  0  0  0  0
   28.5732   13.9315  -12.7051 H   0  0  0  0  0  0  0  0  0  0  0  0
   33.6652   14.2263   -6.1068 C   0  0  0  0  0  0  0  0  0  0  0  0
   32.5535   13.6296   -5.5461 O   0  0  0  0  0  0  0  0  0  0  0  0
   32.4511   13.7776   -4.5680 H   0  0  0  0  0  0  0  0  0  0  0  0
   36.4510   18.7635   -8.0583 C   0  0  0  0  0  0  0  0  0  0  0  0
   35.1633   19.2378   -7.7395 O   0  0  0  0  0  0  0  0  0  0  0  0
   34.7051   19.6446   -8.5102 H   0  0  0  0  0  0  0  0  0  0  0  0
   37.7020   15.8179  -12.6210 N   0  0  0  0  0  0  0  0  0  0  0  0
   38.3245   14.5968  -12.9783 C   0  0  0  0  0  0  0  0  0  0  0  0
   37.8605   13.4956  -12.6148 O   0  0  0  0  0  0  0  0  0  0  0  0
   38.1107   16.7086  -12.9553 H   0  0  0  0  0  0  0  0  0  0  0  0
   39.5696   14.6012  -13.8090 C   0  0  0  0  0  0  0  0  0  0  0  0
   40.7085   14.7087  -12.9543 N   0  0  0  0  0  0  0  0  0  0  0  0
   41.2453   15.8960  -12.4081 C   0  0  0  0  0  0  0  0  0  0  0  0
   40.6776   16.9864  -12.6588 O   0  0  0  0  0  0  0  0  0  0  0  0
   41.1893   13.8067  -12.6962 H   0  0  0  0  0  0  0  0  0  0  0  0
   42.4418   15.9094  -11.5570 C   0  0  0  0  0  0  0  0  0  0  0  0
   43.4176   14.8893  -11.9597 N   0  0  0  0  0  0  0  0  0  0  0  0
   44.7736   15.1875  -12.0840 C   0  0  0  0  0  0  0  0  0  0  0  0
   45.1768   16.3622  -11.8262 O   0  0  0  0  0  0  0  0  0  0  0  0
   43.0174   13.9494  -12.1356 H   0  0  0  0  0  0  0  0  0  0  0  0
   45.7626   14.1709  -12.5084 C   0  0  0  0  0  0  0  0  0  0  0  0
   45.4302   12.8459  -12.0476 N   0  0  0  0  0  0  0  0  0  0  0  0
   46.1657   12.1128  -11.1044 C   0  0  0  0  0  0  0  0  0  0  0  0
   47.2009   12.5808  -10.5771 O   0  0  0  0  0  0  0  0  0  0  0  0
   44.5550   12.4158  -12.4734 H   0  0  0  0  0  0  0  0  0  0  0  0
   45.7277   10.7356  -10.6996 C   0  0  0  0  0  0  0  0  0  0  0  0
   46.1564    9.8313  -11.8468 C   0  0  0  0  0  0  0  0  0  0  0  0
   47.1862   10.4572  -12.5267 O   0  0  0  0  0  0  0  0  0  0  0  0
   47.6373    9.8424  -13.1314 H   0  0  0  0  0  0  0  0  0  0  0  0
   46.4237   10.2708   -9.4492 C   0  0  0  0  0  0  0  0  0  0  0  0
   47.0310    9.0506   -9.7344 O   0  0  0  0  0  0  0  0  0  0  0  0
   47.9193    8.9564   -9.2686 H   0  0  0  0  0  0  0  0  0  0  0  0
   46.0773   14.2574  -13.9702 C   0  0  0  0  0  0  0  0  0  0  0  0
   46.5716   13.0189  -14.4047 O   0  0  0  0  0  0  0  0  0  0  0  0
   47.1733   12.7076  -13.6657 H   0  0  0  0  0  0  0  0  0  0  0  0
   41.9808   15.5803  -10.1196 C   0  0  0  0  0  0  0  0  0  0  0  0
   42.4600   14.3450   -9.7403 O   0  0  0  0  0  0  0  0  0  0  0  0
   41.9774   13.5991  -10.2171 H   0  0  0  0  0  0  0  0  0  0  0  0
   39.5753   13.4006  -14.6853 C   0  0  0  0  0  0  0  0  0  0  0  0
   40.3860   13.6513  -15.8082 O   0  0  0  0  0  0  0  0  0  0  0  0
   39.8087   14.0369  -16.4967 H   0  0  0  0  0  0  0  0  0  0  0  0
   35.6098   14.6884  -12.0164 C   0  0  0  0  0  0  0  0  0  0  0  0
   35.5650   13.8769  -10.8751 O   0  0  0  0  0  0  0  0  0  0  0  0
   35.2976   12.9596  -11.0819 H   0  0  0  0  0  0  0  0  0  0  0  0
 26 27  1  0  0  0
 27 28  2  0  0  0
 27 24  1  0  0  0
 24 23  1  0  0  0
 23 22  1  0  0  0
 22 21  1  0  0  0
 21 16  1  0  0  0
 16 12  1  0  0  0
 12 13  1  0  0  0
 13 14  2  0  0  0
 13 11  1  0  0  0
 11 32  1  0  0  0
 32 33  1  0  0  0
 11  7  1  0  0  0
  7  8  1  0  0  0
  8  9  2  0  0  0
  8  6  1  0  0  0
  6 35  1  0  0  0
 35 36  1  0  0  0
  6  2  1  0  0  0
  2  3  1  0  0  0
  3  4  2  0  0  0
  3  1  1  0  0  0
  1 73  1  0  0  0
 73 74  1  0  0  0
  1 38  1  0  0  0
 38 39  1  0  0  0
 39 40  2  0  0  0
 39 42  1  0  0  0
 42 70  1  0  0  0
 70 71  1  0  0  0
 42 43  1  0  0  0
 43 44  1  0  0  0
 44 45  2  0  0  0
 44 47  1  0  0  0
 47 67  1  0  0  0
 67 68  1  0  0  0
 47 48  1  0  0  0
 48 49  1  0  0  0
 49 50  2  0  0  0
 49 52  1  0  0  0
 52 64  1  0  0  0
 64 65  1  0  0  0
 52 53  1  0  0  0
 53 54  1  0  0  0
 54 55  2  0  0  0
 54 57  1  0  0  0
 57 61  1  0  0  0
 61 62  1  0  0  0
 57 58  1  0  0  0
 58 59  1  0  0  0
 16 17  1  0  0  0
 17 18  1  0  0  0
 17 19  2  0  0  0
 26 29  1  0  0  0
 26 30  1  0  0  0
 28 31  1  0  0  0
 24 25  1  0  0  0
 12 15  1  0  0  0
 33 34  1  0  0  0
  7 10  1  0  0  0
 36 37  1  0  0  0
  2  5  1  0  0  0
 74 75  1  0  0  0
 38 41  1  0  0  0
 71 72  1  0  0  0
 43 46  1  0  0  0
 68 69  1  0  0  0
 48 51  1  0  0  0
 65 66  1  0  0  0
 53 56  1  0  0  0
 62 63  1  0  0  0
 59 60  1  0  0  0
 18 20  1  0  0  0
M  END
> <minimizedAffinity>
-7.25616

> <CNNscore>
0.1695561558

> <CNNaffinity>
5.0033597946

> <CNN_VS>
0.8483504653

> <CNNaffinity_variance>
1.2163355350

$$$$
[H]N=C(N([H])[H])N([H])C([H])([H])C([H])([H])C([H])([H])[C@@]([H])(C(=O)O[H])N([H])C(=O)[C@]([H])(N([H])C(=O)[C@@]([H])(N([H])C(=O)[C@@]([H])(N([H])C(=O)[C@@]([H])(N([H])C(=O)[C@]([H])(N([H])C(=O)[C@@]([H])(N([H])C(=O)C([H])(C([H])([H])O[H])C([H])([H])O[H])C([H])([H])O[H])C([H])([H])O[H])C([H])([H])O[H])C([H])([H])O[H])C([H])([H])O[H])C([H])([H])O[H]


 75 74  0  0  0  0  0  0  0  0999 V2000
   32.2437   20.8396   -6.8493 C   0  0  0  0  0  0  0  0  0  0  0  0
   34.5863   20.5742   -7.6801 N   0  0  0  0  0  0  0  0  0  0  0  0
   33.6717   20.5336   -6.6254 C   0  0  0  0  0  0  0  0  0  0  0  0
   34.0620   20.2333   -5.4767 O   0  0  0  0  0  0  0  0  0  0  0  0
   34.2217   20.8460   -8.6417 H   0  0  0  0  0  0  0  0  0  0  0  0
   35.9707   20.2884   -7.6200 C   0  0  0  0  0  0  0  0  0  0  0  0
   36.6733   18.6143   -5.8505 N   0  0  0  0  0  0  0  0  0  0  0  0
   36.5211   19.9345   -6.2942 C   0  0  0  0  0  0  0  0  0  0  0  0
   36.8650   20.8682   -5.5409 O   0  0  0  0  0  0  0  0  0  0  0  0
   36.3928   17.8310   -6.4638 H   0  0  0  0  0  0  0  0  0  0  0  0
   37.2153   18.2986   -4.5496 C   0  0  0  0  0  0  0  0  0  0  0  0
   35.5475   16.3704   -4.1759 N   0  0  0  0  0  0  0  0  0  0  0  0
   36.8551   16.8977   -4.2439 C   0  0  0  0  0  0  0  0  0  0  0  0
   37.8098   16.0771   -4.0145 O   0  0  0  0  0  0  0  0  0  0  0  0
   34.6691   16.9025   -4.3501 H   0  0  0  0  0  0  0  0  0  0  0  0
   35.3322   14.9581   -3.8493 C   0  0  0  0  0  0  0  0  0  0  0  0
   34.3567   14.3569   -4.7734 C   0  0  0  0  0  0  0  0  0  0  0  0
   34.8280   13.8355   -5.9730 O   0  0  0  0  0  0  0  0  0  0  0  0
   33.1341   14.2765   -4.5681 O   0  0  0  0  0  0  0  0  0  0  0  0
   35.3459   12.9544   -5.9669 H   0  0  0  0  0  0  0  0  0  0  0  0
   34.7530   14.8673   -2.4203 C   0  0  0  0  0  0  0  0  0  0  0  0
   34.7322   16.1917   -1.7684 C   0  0  0  0  0  0  0  0  0  0  0  0
   33.3760   16.7428   -1.4959 C   0  0  0  0  0  0  0  0  0  0  0  0
   32.4878   16.7018   -2.6043 N   0  0  0  0  0  0  0  0  0  0  0  0
   31.8849   15.8142   -2.6911 H   0  0  0  0  0  0  0  0  0  0  0  0
   31.6260   18.8667   -3.2406 N   0  0  0  0  0  0  0  0  0  0  0  0
   32.2970   17.6795   -3.6094 C   0  0  0  0  0  0  0  0  0  0  0  0
   32.7226   17.5339   -4.8359 N   0  0  0  0  0  0  0  0  0  0  0  0
   30.7591   19.1491   -3.7252 H   0  0  0  0  0  0  0  0  0  0  0  0
   32.0113   19.4505   -2.4800 H   0  0  0  0  0  0  0  0  0  0  0  0
   33.2144   16.6530   -5.0903 H   0  0  0  0  0  0  0  0  0  0  0  0
   38.7373   18.3994   -4.5848 C   0  0  0  0  0  0  0  0  0  0  0  0
   39.1827   18.5492   -3.2865 O   0  0  0  0  0  0  0  0  0  0  0  0
   39.2662   19.4922   -2.9818 H   0  0  0  0  0  0  0  0  0  0  0  0
   36.7445   21.4918   -8.1394 C   0  0  0  0  0  0  0  0  0  0  0  0
   35.8654   22.2596   -8.9283 O   0  0  0  0  0  0  0  0  0  0  0  0
   36.0113   22.1343   -9.8939 H   0  0  0  0  0  0  0  0  0  0  0  0
   31.4560   19.6170   -6.7301 N   0  0  0  0  0  0  0  0  0  0  0  0
   30.2964   19.3668   -7.5042 C   0  0  0  0  0  0  0  0  0  0  0  0
   29.8893   20.1855   -8.3551 O   0  0  0  0  0  0  0  0  0  0  0  0
   31.7681   18.9055   -6.0457 H   0  0  0  0  0  0  0  0  0  0  0  0
   29.5235   18.0993   -7.3143 C   0  0  0  0  0  0  0  0  0  0  0  0
   30.4290   17.0284   -7.0454 N   0  0  0  0  0  0  0  0  0  0  0  0
   31.1872   16.3055   -7.9934 C   0  0  0  0  0  0  0  0  0  0  0  0
   31.1000   16.6222   -9.2043 O   0  0  0  0  0  0  0  0  0  0  0  0
   30.5515   16.7593   -6.0335 H   0  0  0  0  0  0  0  0  0  0  0  0
   32.0759   15.1971   -7.6221 C   0  0  0  0  0  0  0  0  0  0  0  0
   33.2682   15.1352   -8.4762 N   0  0  0  0  0  0  0  0  0  0  0  0
   34.3908   15.9201   -8.2176 C   0  0  0  0  0  0  0  0  0  0  0  0
   34.3895   16.6925   -7.2115 O   0  0  0  0  0  0  0  0  0  0  0  0
   33.2029   14.4688   -9.2675 H   0  0  0  0  0  0  0  0  0  0  0  0
   35.5905   15.8794   -9.0841 C   0  0  0  0  0  0  0  0  0  0  0  0
   36.5859   14.9497   -8.6114 N   0  0  0  0  0  0  0  0  0  0  0  0
   37.7213   15.2961   -7.8638 C   0  0  0  0  0  0  0  0  0  0  0  0
   37.9537   16.4841   -7.5424 O   0  0  0  0  0  0  0  0  0  0  0  0
   36.4211   13.9295   -8.8648 H   0  0  0  0  0  0  0  0  0  0  0  0
   38.6964   14.2425   -7.4263 C   0  0  0  0  0  0  0  0  0  0  0  0
   39.9536   15.0060   -7.0338 C   0  0  0  0  0  0  0  0  0  0  0  0
   39.9347   15.1909   -5.6627 O   0  0  0  0  0  0  0  0  0  0  0  0
   40.8025   15.4821   -5.3320 H   0  0  0  0  0  0  0  0  0  0  0  0
   38.2060   13.4917   -6.2180 C   0  0  0  0  0  0  0  0  0  0  0  0
   37.1840   12.6433   -6.6359 O   0  0  0  0  0  0  0  0  0  0  0  0
   37.2028   11.7639   -6.1446 H   0  0  0  0  0  0  0  0  0  0  0  0
   35.2421   15.7301  -10.5331 C   0  0  0  0  0  0  0  0  0  0  0  0
   35.2288   14.3666  -10.8611 O   0  0  0  0  0  0  0  0  0  0  0  0
   36.0153   13.9768  -10.3766 H   0  0  0  0  0  0  0  0  0  0  0  0
   31.2803   13.8886   -7.8264 C   0  0  0  0  0  0  0  0  0  0  0  0
   30.8804   13.7786   -9.1407 O   0  0  0  0  0  0  0  0  0  0  0  0
   30.1406   14.4285   -9.3576 H   0  0  0  0  0  0  0  0  0  0  0  0
   28.4954   18.3082   -6.2612 C   0  0  0  0  0  0  0  0  0  0  0  0
   28.4384   19.6762   -5.9353 O   0  0  0  0  0  0  0  0  0  0  0  0
   29.0776   19.8237   -5.2102 H   0  0  0  0  0  0  0  0  0  0  0  0
   31.7043   21.9334   -5.9615 C   0  0  0  0  0  0  0  0  0  0  0  0
   32.7098   22.8465   -5.6172 O   0  0  0  0  0  0  0  0  0  0  0  0
   32.4962   23.3447   -4.8037 H   0  0  0  0  0  0  0  0  0  0  0  0
 26 27  1  0  0  0
 27 28  2  0  0  0
 27 24  1  0  0  0
 24 23  1  0  0  0
 23 22  1  0  0  0
 22 21  1  0  0  0
 21 16  1  0  0  0
 16 12  1  0  0  0
 12 13  1  0  0  0
 13 14  2  0  0  0
 13 11  1  0  0  0
 11 32  1  0  0  0
 32 33  1  0  0  0
 11  7  1  0  0  0
  7  8  1  0  0  0
  8  9  2  0  0  0
  8  6  1  0  0  0
  6 35  1  0  0  0
 35 36  1  0  0  0
  6  2  1  0  0  0
  2  3  1  0  0  0
  3  4  2  0  0  0
  3  1  1  0  0  0
  1 73  1  0  0  0
 73 74  1  0  0  0
  1 38  1  0  0  0
 38 39  1  0  0  0
 39 40  2  0  0  0
 39 42  1  0  0  0
 42 70  1  0  0  0
 70 71  1  0  0  0
 42 43  1  0  0  0
 43 44  1  0  0  0
 44 45  2  0  0  0
 44 47  1  0  0  0
 47 67  1  0  0  0
 67 68  1  0  0  0
 47 48  1  0  0  0
 48 49  1  0  0  0
 49 50  2  0  0  0
 49 52  1  0  0  0
 52 64  1  0  0  0
 64 65  1  0  0  0
 52 53  1  0  0  0
 53 54  1  0  0  0
 54 55  2  0  0  0
 54 57  1  0  0  0
 57 61  1  0  0  0
 61 62  1  0  0  0
 57 58  1  0  0  0
 58 59  1  0  0  0
 16 17  1  0  0  0
 17 18  1  0  0  0
 17 19  2  0  0  0
 26 29  1  0  0  0
 26 30  1  0  0  0
 28 31  1  0  0  0
 24 25  1  0  0  0
 12 15  1  0  0  0
 33 34  1  0  0  0
  7 10  1  0  0  0
 36 37  1  0  0  0
  2  5  1  0  0  0
 74 75  1  0  0  0
 38 41  1  0  0  0
 71 72  1  0  0  0
 43 46  1  0  0  0
 68 69  1  0  0  0
 48 51  1  0  0  0
 65 66  1  0  0  0
 53 56  1  0  0  0
 62 63  1  0  0  0
 59 60  1  0  0  0
 18 20  1  0  0  0
M  END
> <minimizedAffinity>
-6.25234

> <CNNscore>
0.1178621799

> <CNNaffinity>
4.8299078941

> <CNN_VS>
0.5692634583

> <CNNaffinity_variance>
1.7577530146

$$$$
[H]N=C(N([H])[H])N([H])C([H])([H])C([H])([H])C([H])([H])[C@@]([H])(C(=O)O[H])N([H])C(=O)[C@]([H])(N([H])C(=O)[C@@]([H])(N([H])C(=O)[C@@]([H])(N([H])C(=O)[C@@]([H])(N([H])C(=O)[C@]([H])(N([H])C(=O)[C@@]([H])(N([H])C(=O)C([H])(C([H])([H])O[H])C([H])([H])O[H])C([H])([H])O[H])C([H])([H])O[H])C([H])([H])O[H])C([H])([H])O[H])C([H])([H])O[H])C([H])([H])O[H]


 75 74  0  0  0  0  0  0  0  0999 V2000
   36.8022   14.9804   -6.5281 C   0  0  0  0  0  0  0  0  0  0  0  0
   36.9522   15.2266   -9.0111 N   0  0  0  0  0  0  0  0  0  0  0  0
   36.2332   14.8259   -7.8829 C   0  0  0  0  0  0  0  0  0  0  0  0
   35.0931   14.3315   -8.0167 O   0  0  0  0  0  0  0  0  0  0  0  0
   37.9243   15.6313   -8.8609 H   0  0  0  0  0  0  0  0  0  0  0  0
   36.5304   15.1582  -10.3600 C   0  0  0  0  0  0  0  0  0  0  0  0
   37.3476   13.9643  -12.4418 N   0  0  0  0  0  0  0  0  0  0  0  0
   37.5646   14.8352  -11.3659 C   0  0  0  0  0  0  0  0  0  0  0  0
   38.6840   15.3725  -11.2402 O   0  0  0  0  0  0  0  0  0  0  0  0
   36.4255   13.5123  -12.5586 H   0  0  0  0  0  0  0  0  0  0  0  0
   38.3772   13.6682  -13.4103 C   0  0  0  0  0  0  0  0  0  0  0  0
   37.9579   12.5216  -15.6793 N   0  0  0  0  0  0  0  0  0  0  0  0
   37.8792   12.5741  -14.2709 C   0  0  0  0  0  0  0  0  0  0  0  0
   37.3196   11.5768  -13.6968 O   0  0  0  0  0  0  0  0  0  0  0  0
   38.3941   13.2440  -16.2898 H   0  0  0  0  0  0  0  0  0  0  0  0
   37.4103   11.3762  -16.4115 C   0  0  0  0  0  0  0  0  0  0  0  0
   38.2739   11.0319  -17.5528 C   0  0  0  0  0  0  0  0  0  0  0  0
   39.6454   11.2104  -17.4121 O   0  0  0  0  0  0  0  0  0  0  0  0
   37.8741   10.5906  -18.6433 O   0  0  0  0  0  0  0  0  0  0  0  0
   40.1779   10.5608  -16.8298 H   0  0  0  0  0  0  0  0  0  0  0  0
   36.0219   11.7657  -16.9652 C   0  0  0  0  0  0  0  0  0  0  0  0
   34.9791   10.8336  -16.4928 C   0  0  0  0  0  0  0  0  0  0  0  0
   33.8995   11.4523  -15.6749 C   0  0  0  0  0  0  0  0  0  0  0  0
   34.3581   12.1769  -14.5419 N   0  0  0  0  0  0  0  0  0  0  0  0
   34.9959   11.6357  -13.8642 H   0  0  0  0  0  0  0  0  0  0  0  0
   32.7959   13.8038  -13.6776 N   0  0  0  0  0  0  0  0  0  0  0  0
   34.0810   13.5194  -14.1909 C   0  0  0  0  0  0  0  0  0  0  0  0
   34.9561   14.4823  -14.3078 N   0  0  0  0  0  0  0  0  0  0  0  0
   32.1863   14.4924  -14.1471 H   0  0  0  0  0  0  0  0  0  0  0  0
   32.4711   13.3154  -12.8269 H   0  0  0  0  0  0  0  0  0  0  0  0
   35.8975   14.2552  -14.6880 H   0  0  0  0  0  0  0  0  0  0  0  0
   38.6251   14.8887  -14.2917 C   0  0  0  0  0  0  0  0  0  0  0  0
   39.8982   14.7824  -14.8153 O   0  0  0  0  0  0  0  0  0  0  0  0
   40.6103   15.2075  -14.2663 H   0  0  0  0  0  0  0  0  0  0  0  0
   35.9034   16.4899  -10.7475 C   0  0  0  0  0  0  0  0  0  0  0  0
   36.0623   16.6507  -12.1381 O   0  0  0  0  0  0  0  0  0  0  0  0
   36.7888   17.2736  -12.3694 H   0  0  0  0  0  0  0  0  0  0  0  0
   35.7534   15.3906   -5.6000 N   0  0  0  0  0  0  0  0  0  0  0  0
   35.9956   16.2239   -4.4804 C   0  0  0  0  0  0  0  0  0  0  0  0
   37.1349   16.6722   -4.2335 O   0  0  0  0  0  0  0  0  0  0  0  0
   34.7911   15.0522   -5.7775 H   0  0  0  0  0  0  0  0  0  0  0  0
   34.8757   16.5879   -3.5566 C   0  0  0  0  0  0  0  0  0  0  0  0
   33.7730   17.0788   -4.3197 N   0  0  0  0  0  0  0  0  0  0  0  0
   33.1344   18.3304   -4.1719 C   0  0  0  0  0  0  0  0  0  0  0  0
   33.5659   19.1299   -3.3065 O   0  0  0  0  0  0  0  0  0  0  0  0
   33.4074   16.4451   -5.0786 H   0  0  0  0  0  0  0  0  0  0  0  0
   31.9849   18.7377   -4.9897 C   0  0  0  0  0  0  0  0  0  0  0  0
   31.3083   17.5884   -5.6029 N   0  0  0  0  0  0  0  0  0  0  0  0
   29.9469   17.6184   -5.9005 C   0  0  0  0  0  0  0  0  0  0  0  0
   29.2805   18.6688   -5.6525 O   0  0  0  0  0  0  0  0  0  0  0  0
   31.9203   16.7736   -5.7932 H   0  0  0  0  0  0  0  0  0  0  0  0
   29.2513   16.4576   -6.5009 C   0  0  0  0  0  0  0  0  0  0  0  0
   30.0107   15.2370   -6.3909 N   0  0  0  0  0  0  0  0  0  0  0  0
   30.6773   14.6047   -7.4510 C   0  0  0  0  0  0  0  0  0  0  0  0
   30.6580   15.0791   -8.6099 O   0  0  0  0  0  0  0  0  0  0  0  0
   30.0504   14.8047   -5.4194 H   0  0  0  0  0  0  0  0  0  0  0  0
   31.4374   13.3311   -7.2219 C   0  0  0  0  0  0  0  0  0  0  0  0
   32.2957   13.5985   -5.9932 C   0  0  0  0  0  0  0  0  0  0  0  0
   32.7966   14.8846   -6.0897 O   0  0  0  0  0  0  0  0  0  0  0  0
   33.1739   15.1828   -5.2435 H   0  0  0  0  0  0  0  0  0  0  0  0
   30.5206   12.1787   -6.9131 C   0  0  0  0  0  0  0  0  0  0  0  0
   29.4081   12.2919   -7.7428 O   0  0  0  0  0  0  0  0  0  0  0  0
   29.0782   11.3915   -8.0519 H   0  0  0  0  0  0  0  0  0  0  0  0
   27.8297   16.3458   -6.0429 C   0  0  0  0  0  0  0  0  0  0  0  0
   27.6325   15.0806   -5.4709 O   0  0  0  0  0  0  0  0  0  0  0  0
   28.1371   14.4482   -6.0631 H   0  0  0  0  0  0  0  0  0  0  0  0
   32.5300   19.6276   -6.1289 C   0  0  0  0  0  0  0  0  0  0  0  0
   32.8346   20.8816   -5.6450 O   0  0  0  0  0  0  0  0  0  0  0  0
   32.0014   21.4109   -5.4393 H   0  0  0  0  0  0  0  0  0  0  0  0
   34.5515   15.4180   -2.6987 C   0  0  0  0  0  0  0  0  0  0  0  0
   34.2054   14.3263   -3.5168 O   0  0  0  0  0  0  0  0  0  0  0  0
   33.2392   14.3718   -3.6599 H   0  0  0  0  0  0  0  0  0  0  0  0
   37.5365   13.7611   -6.0285 C   0  0  0  0  0  0  0  0  0  0  0  0
   36.9719   12.5859   -6.5416 O   0  0  0  0  0  0  0  0  0  0  0  0
   37.1832   11.8031   -5.9954 H   0  0  0  0  0  0  0  0  0  0  0  0
 26 27  1  0  0  0
 27 28  2  0  0  0
 27 24  1  0  0  0
 24 23  1  0  0  0
 23 22  1  0  0  0
 22 21  1  0  0  0
 21 16  1  0  0  0
 16 12  1  0  0  0
 12 13  1  0  0  0
 13 14  2  0  0  0
 13 11  1  0  0  0
 11 32  1  0  0  0
 32 33  1  0  0  0
 11  7  1  0  0  0
  7  8  1  0  0  0
  8  9  2  0  0  0
  8  6  1  0  0  0
  6 35  1  0  0  0
 35 36  1  0  0  0
  6  2  1  0  0  0
  2  3  1  0  0  0
  3  4  2  0  0  0
  3  1  1  0  0  0
  1 73  1  0  0  0
 73 74  1  0  0  0
  1 38  1  0  0  0
 38 39  1  0  0  0
 39 40  2  0  0  0
 39 42  1  0  0  0
 42 70  1  0  0  0
 70 71  1  0  0  0
 42 43  1  0  0  0
 43 44  1  0  0  0
 44 45  2  0  0  0
 44 47  1  0  0  0
 47 67  1  0  0  0
 67 68  1  0  0  0
 47 48  1  0  0  0
 48 49  1  0  0  0
 49 50  2  0  0  0
 49 52  1  0  0  0
 52 64  1  0  0  0
 64 65  1  0  0  0
 52 53  1  0  0  0
 53 54  1  0  0  0
 54 55  2  0  0  0
 54 57  1  0  0  0
 57 61  1  0  0  0
 61 62  1  0  0  0
 57 58  1  0  0  0
 58 59  1  0  0  0
 16 17  1  0  0  0
 17 18  1  0  0  0
 17 19  2  0  0  0
 26 29  1  0  0  0
 26 30  1  0  0  0
 28 31  1  0  0  0
 24 25  1  0  0  0
 12 15  1  0  0  0
 33 34  1  0  0  0
  7 10  1  0  0  0
 36 37  1  0  0  0
  2  5  1  0  0  0
 74 75  1  0  0  0
 38 41  1  0  0  0
 71 72  1  0  0  0
 43 46  1  0  0  0
 68 69  1  0  0  0
 48 51  1  0  0  0
 65 66  1  0  0  0
 53 56  1  0  0  0
 62 63  1  0  0  0
 59 60  1  0  0  0
 18 20  1  0  0  0
M  END
> <minimizedAffinity>
-7.50565

> <CNNscore>
0.1020224914

> <CNNaffinity>
5.4076986313

> <CNN_VS>
0.5517069101

> <CNNaffinity_variance>
1.2349958420

$$$$
[H]N=C(N([H])[H])N([H])C([H])([H])C([H])([H])C([H])([H])[C@@]([H])(C(=O)O[H])N([H])C(=O)[C@]([H])(N([H])C(=O)[C@@]([H])(N([H])C(=O)[C@@]([H])(N([H])C(=O)[C@@]([H])(N([H])C(=O)[C@]([H])(N([H])C(=O)[C@@]([H])(N([H])C(=O)C([H])(C([H])([H])O[H])C([H])([H])O[H])C([H])([H])O[H])C([H])([H])O[H])C([H])([H])O[H])C([H])([H])O[H])C([H])([H])O[H])C([H])([H])O[H]


 75 74  0  0  0  0  0  0  0  0999 V2000
   32.9659   16.6747   -2.0294 C   0  0  0  0  0  0  0  0  0  0  0  0
   34.0853   18.8639   -2.4793 N   0  0  0  0  0  0  0  0  0  0  0  0
   33.0477   18.1428   -1.8845 C   0  0  0  0  0  0  0  0  0  0  0  0
   32.1765   18.7431   -1.2192 O   0  0  0  0  0  0  0  0  0  0  0  0
   34.8020   18.3222   -3.0488 H   0  0  0  0  0  0  0  0  0  0  0  0
   34.3020   20.2605   -2.4107 C   0  0  0  0  0  0  0  0  0  0  0  0
   33.5636   21.1472   -4.6681 N   0  0  0  0  0  0  0  0  0  0  0  0
   33.4518   21.1097   -3.2720 C   0  0  0  0  0  0  0  0  0  0  0  0
   32.5935   21.8247   -2.7155 O   0  0  0  0  0  0  0  0  0  0  0  0
   34.2698   20.5602   -5.1426 H   0  0  0  0  0  0  0  0  0  0  0  0
   32.7180   21.9864   -5.4844 C   0  0  0  0  0  0  0  0  0  0  0  0
   34.4750   23.7510   -4.8226 N   0  0  0  0  0  0  0  0  0  0  0  0
   33.2544   23.3623   -5.4154 C   0  0  0  0  0  0  0  0  0  0  0  0
   32.5538   24.2981   -5.9360 O   0  0  0  0  0  0  0  0  0  0  0  0
   35.1616   23.1102   -4.3719 H   0  0  0  0  0  0  0  0  0  0  0  0
   34.8817   25.1589   -4.8145 C   0  0  0  0  0  0  0  0  0  0  0  0
   33.8291   25.9973   -4.2177 C   0  0  0  0  0  0  0  0  0  0  0  0
   33.1953   26.9289   -5.0322 O   0  0  0  0  0  0  0  0  0  0  0  0
   33.4567   25.9412   -3.0338 O   0  0  0  0  0  0  0  0  0  0  0  0
   32.5240   26.6071   -5.7325 H   0  0  0  0  0  0  0  0  0  0  0  0
   35.0866   25.6192   -6.2746 C   0  0  0  0  0  0  0  0  0  0  0  0
   36.2500   24.9477   -6.8869 C   0  0  0  0  0  0  0  0  0  0  0  0
   35.9319   24.0387   -8.0227 C   0  0  0  0  0  0  0  0  0  0  0  0
   36.6475   22.8112   -8.0155 N   0  0  0  0  0  0  0  0  0  0  0  0
   37.4819   22.7493   -8.6929 H   0  0  0  0  0  0  0  0  0  0  0  0
   36.0188   20.4813   -7.9117 N   0  0  0  0  0  0  0  0  0  0  0  0
   36.4009   21.6591   -7.2316 C   0  0  0  0  0  0  0  0  0  0  0  0
   36.5253   21.6412   -5.9313 N   0  0  0  0  0  0  0  0  0  0  0  0
   35.1232   20.0173   -7.6907 H   0  0  0  0  0  0  0  0  0  0  0  0
   36.6447   20.0879   -8.6338 H   0  0  0  0  0  0  0  0  0  0  0  0
   36.8071   22.5176   -5.4467 H   0  0  0  0  0  0  0  0  0  0  0  0
   32.7802   21.5261   -6.9377 C   0  0  0  0  0  0  0  0  0  0  0  0
   32.9806   20.1601   -6.9419 O   0  0  0  0  0  0  0  0  0  0  0  0
   33.9348   19.8800   -6.9579 H   0  0  0  0  0  0  0  0  0  0  0  0
   35.7549   20.5507   -2.7592 C   0  0  0  0  0  0  0  0  0  0  0  0
   35.8580   21.9226   -3.0623 O   0  0  0  0  0  0  0  0  0  0  0  0
   35.9103   22.0965   -4.0299 H   0  0  0  0  0  0  0  0  0  0  0  0
   33.5068   16.2793   -3.3258 N   0  0  0  0  0  0  0  0  0  0  0  0
   32.7902   16.4260   -4.5388 C   0  0  0  0  0  0  0  0  0  0  0  0
   31.6454   16.9246   -4.5655 O   0  0  0  0  0  0  0  0  0  0  0  0
   34.4595   15.8745   -3.3491 H   0  0  0  0  0  0  0  0  0  0  0  0
   33.3982   15.9786   -5.8312 C   0  0  0  0  0  0  0  0  0  0  0  0
   32.4242   15.2600   -6.5890 N   0  0  0  0  0  0  0  0  0  0  0  0
   31.9880   13.9353   -6.3631 C   0  0  0  0  0  0  0  0  0  0  0  0
   32.4661   13.2994   -5.3930 O   0  0  0  0  0  0  0  0  0  0  0  0
   31.9776   15.7775   -7.3914 H   0  0  0  0  0  0  0  0  0  0  0  0
   30.9963   13.2687   -7.2165 C   0  0  0  0  0  0  0  0  0  0  0  0
   29.6834   13.9220   -7.1515 N   0  0  0  0  0  0  0  0  0  0  0  0
   28.9099   14.1178   -8.2945 C   0  0  0  0  0  0  0  0  0  0  0  0
   29.3418   13.7064   -9.4140 O   0  0  0  0  0  0  0  0  0  0  0  0
   29.3890   14.2142   -6.2015 H   0  0  0  0  0  0  0  0  0  0  0  0
   27.5934   14.7930   -8.2423 C   0  0  0  0  0  0  0  0  0  0  0  0
   27.6101   15.9806   -7.4251 N   0  0  0  0  0  0  0  0  0  0  0  0
   28.6792   16.8848   -7.3398 C   0  0  0  0  0  0  0  0  0  0  0  0
   29.7320   16.7146   -7.9964 O   0  0  0  0  0  0  0  0  0  0  0  0
   26.7308   16.1588   -6.8530 H   0  0  0  0  0  0  0  0  0  0  0  0
   28.5886   18.0905   -6.4507 C   0  0  0  0  0  0  0  0  0  0  0  0
   29.8353   18.9065   -6.7630 C   0  0  0  0  0  0  0  0  0  0  0  0
   30.4604   19.2123   -5.5671 O   0  0  0  0  0  0  0  0  0  0  0  0
   31.3629   19.5460   -5.7137 H   0  0  0  0  0  0  0  0  0  0  0  0
   27.3834   18.9330   -6.7695 C   0  0  0  0  0  0  0  0  0  0  0  0
   26.8803   18.5016   -7.9942 O   0  0  0  0  0  0  0  0  0  0  0  0
   25.8735   18.5301   -8.0166 H   0  0  0  0  0  0  0  0  0  0  0  0
   26.9976   14.9858   -9.6029 C   0  0  0  0  0  0  0  0  0  0  0  0
   26.3238   16.2153   -9.6359 O   0  0  0  0  0  0  0  0  0  0  0  0
   25.8603   16.2795   -8.7492 H   0  0  0  0  0  0  0  0  0  0  0  0
   30.8335   11.8276   -6.6839 C   0  0  0  0  0  0  0  0  0  0  0  0
   30.0622   11.8299   -5.5417 O   0  0  0  0  0  0  0  0  0  0  0  0
   30.5652   12.2141   -4.7568 H   0  0  0  0  0  0  0  0  0  0  0  0
   33.9708   17.1566   -6.5342 C   0  0  0  0  0  0  0  0  0  0  0  0
   34.2322   18.1730   -5.5964 O   0  0  0  0  0  0  0  0  0  0  0  0
   33.4237   18.7193   -5.5347 H   0  0  0  0  0  0  0  0  0  0  0  0
   33.6155   15.9101   -0.9029 C   0  0  0  0  0  0  0  0  0  0  0  0
   32.6588   15.2366   -0.1319 O   0  0  0  0  0  0  0  0  0  0  0  0
   32.9851   15.0283    0.7658 H   0  0  0  0  0  0  0  0  0  0  0  0
 26 27  1  0  0  0
 27 28  2  0  0  0
 27 24  1  0  0  0
 24 23  1  0  0  0
 23 22  1  0  0  0
 22 21  1  0  0  0
 21 16  1  0  0  0
 16 12  1  0  0  0
 12 13  1  0  0  0
 13 14  2  0  0  0
 13 11  1  0  0  0
 11 32  1  0  0  0
 32 33  1  0  0  0
 11  7  1  0  0  0
  7  8  1  0  0  0
  8  9  2  0  0  0
  8  6  1  0  0  0
  6 35  1  0  0  0
 35 36  1  0  0  0
  6  2  1  0  0  0
  2  3  1  0  0  0
  3  4  2  0  0  0
  3  1  1  0  0  0
  1 73  1  0  0  0
 73 74  1  0  0  0
  1 38  1  0  0  0
 38 39  1  0  0  0
 39 40  2  0  0  0
 39 42  1  0  0  0
 42 70  1  0  0  0
 70 71  1  0  0  0
 42 43  1  0  0  0
 43 44  1  0  0  0
 44 45  2  0  0  0
 44 47  1  0  0  0
 47 67  1  0  0  0
 67 68  1  0  0  0
 47 48  1  0  0  0
 48 49  1  0  0  0
 49 50  2  0  0  0
 49 52  1  0  0  0
 52 64  1  0  0  0
 64 65  1  0  0  0
 52 53  1  0  0  0
 53 54  1  0  0  0
 54 55  2  0  0  0
 54 57  1  0  0  0
 57 61  1  0  0  0
 61 62  1  0  0  0
 57 58  1  0  0  0
 58 59  1  0  0  0
 16 17  1  0  0  0
 17 18  1  0  0  0
 17 19  2  0  0  0
 26 29  1  0  0  0
 26 30  1  0  0  0
 28 31  1  0  0  0
 24 25  1  0  0  0
 12 15  1  0  0  0
 33 34  1  0  0  0
  7 10  1  0  0  0
 36 37  1  0  0  0
  2  5  1  0  0  0
 74 75  1  0  0  0
 38 41  1  0  0  0
 71 72  1  0  0  0
 43 46  1  0  0  0
 68 69  1  0  0  0
 48 51  1  0  0  0
 65 66  1  0  0  0
 53 56  1  0  0  0
 62 63  1  0  0  0
 59 60  1  0  0  0
 18 20  1  0  0  0
M  END
> <minimizedAffinity>
-7.45919

> <CNNscore>
0.0813362375

> <CNNaffinity>
5.1049041748

> <CNN_VS>
0.4152137041

> <CNNaffinity_variance>
1.2046386003

$$$$
[H]N=C(N([H])[H])N([H])C([H])([H])C([H])([H])C([H])([H])[C@@]([H])(C(=O)O[H])N([H])C(=O)[C@]([H])(N([H])C(=O)[C@@]([H])(N([H])C(=O)[C@@]([H])(N([H])C(=O)[C@@]([H])(N([H])C(=O)[C@]([H])(N([H])C(=O)[C@@]([H])(N([H])C(=O)C([H])(C([H])([H])O[H])C([H])([H])O[H])C([H])([H])O[H])C([H])([H])O[H])C([H])([H])O[H])C([H])([H])O[H])C([H])([H])O[H])C([H])([H])O[H]


 75 74  0  0  0  0  0  0  0  0999 V2000
   34.7218   16.0398  -10.8719 C   0  0  0  0  0  0  0  0  0  0  0  0
   35.3605   17.2587   -8.7851 N   0  0  0  0  0  0  0  0  0  0  0  0
   34.9111   16.0920   -9.4075 C   0  0  0  0  0  0  0  0  0  0  0  0
   34.6667   15.0768   -8.7207 O   0  0  0  0  0  0  0  0  0  0  0  0
   35.5464   18.1074   -9.3988 H   0  0  0  0  0  0  0  0  0  0  0  0
   35.6049   17.4490   -7.4045 C   0  0  0  0  0  0  0  0  0  0  0  0
   34.3199   15.9182   -5.8449 N   0  0  0  0  0  0  0  0  0  0  0  0
   34.4869   17.1542   -6.4831 C   0  0  0  0  0  0  0  0  0  0  0  0
   33.6563   18.0610   -6.2700 O   0  0  0  0  0  0  0  0  0  0  0  0
   35.0001   15.1581   -6.0118 H   0  0  0  0  0  0  0  0  0  0  0  0
   33.2176   15.6591   -4.9483 C   0  0  0  0  0  0  0  0  0  0  0  0
   31.3165   15.3402   -6.6579 N   0  0  0  0  0  0  0  0  0  0  0  0
   32.2201   14.8564   -5.6874 C   0  0  0  0  0  0  0  0  0  0  0  0
   32.1586   13.6046   -5.4296 O   0  0  0  0  0  0  0  0  0  0  0  0
   31.2511   16.3260   -6.9879 H   0  0  0  0  0  0  0  0  0  0  0  0
   30.3679   14.4315   -7.3078 C   0  0  0  0  0  0  0  0  0  0  0  0
   30.4157   14.5941   -8.7701 C   0  0  0  0  0  0  0  0  0  0  0  0
   30.6119   13.4586   -9.5480 O   0  0  0  0  0  0  0  0  0  0  0  0
   30.2945   15.6736   -9.3731 O   0  0  0  0  0  0  0  0  0  0  0  0
   29.8469   12.7902   -9.6602 H   0  0  0  0  0  0  0  0  0  0  0  0
   28.9418   14.7903   -6.8352 C   0  0  0  0  0  0  0  0  0  0  0  0
   28.0110   13.6642   -7.0472 C   0  0  0  0  0  0  0  0  0  0  0  0
   26.6546   14.0453   -7.5291 C   0  0  0  0  0  0  0  0  0  0  0  0
   26.4943   13.9991   -8.9403 N   0  0  0  0  0  0  0  0  0  0  0  0
   26.1117   13.0758   -9.3401 H   0  0  0  0  0  0  0  0  0  0  0  0
   27.7940   14.7541  -10.8311 N   0  0  0  0  0  0  0  0  0  0  0  0
   26.7759   15.0129   -9.8865 C   0  0  0  0  0  0  0  0  0  0  0  0
   26.1326   16.1493   -9.9270 N   0  0  0  0  0  0  0  0  0  0  0  0
   28.6138   15.3780  -10.9000 H   0  0  0  0  0  0  0  0  0  0  0  0
   27.7106   13.9332  -11.4532 H   0  0  0  0  0  0  0  0  0  0  0  0
   25.3862   16.3234   -9.2235 H   0  0  0  0  0  0  0  0  0  0  0  0
   33.7010   14.8354   -3.7585 C   0  0  0  0  0  0  0  0  0  0  0  0
   34.6368   13.9314   -4.2204 O   0  0  0  0  0  0  0  0  0  0  0  0
   34.2637   13.0527   -4.4994 H   0  0  0  0  0  0  0  0  0  0  0  0
   36.0299   18.8923   -7.1745 C   0  0  0  0  0  0  0  0  0  0  0  0
   35.2341   19.7110   -7.9998 O   0  0  0  0  0  0  0  0  0  0  0  0
   35.7109   20.0200   -8.8039 H   0  0  0  0  0  0  0  0  0  0  0  0
   35.8516   15.3515  -11.4878 N   0  0  0  0  0  0  0  0  0  0  0  0
   37.1293   15.9446  -11.6368 C   0  0  0  0  0  0  0  0  0  0  0  0
   37.3649   17.1009  -11.2276 O   0  0  0  0  0  0  0  0  0  0  0  0
   35.7020   14.3849  -11.8276 H   0  0  0  0  0  0  0  0  0  0  0  0
   38.2381   15.1877  -12.2984 C   0  0  0  0  0  0  0  0  0  0  0  0
   39.3988   15.2255  -11.4673 N   0  0  0  0  0  0  0  0  0  0  0  0
   40.5166   16.0767  -11.6164 C   0  0  0  0  0  0  0  0  0  0  0  0
   40.5171   16.9147  -12.5502 O   0  0  0  0  0  0  0  0  0  0  0  0
   39.4155   14.5569  -10.6526 H   0  0  0  0  0  0  0  0  0  0  0  0
   41.6809   16.0234  -10.7232 C   0  0  0  0  0  0  0  0  0  0  0  0
   42.5583   14.8864  -11.0267 N   0  0  0  0  0  0  0  0  0  0  0  0
   43.8573   15.0739  -11.4964 C   0  0  0  0  0  0  0  0  0  0  0  0
   44.2979   16.2536  -11.6484 O   0  0  0  0  0  0  0  0  0  0  0  0
   42.1362   13.9543  -10.8608 H   0  0  0  0  0  0  0  0  0  0  0  0
   44.7432   13.9338  -11.8239 C   0  0  0  0  0  0  0  0  0  0  0  0
   44.9346   13.7687  -13.2433 N   0  0  0  0  0  0  0  0  0  0  0  0
   43.9155   13.4914  -14.1667 C   0  0  0  0  0  0  0  0  0  0  0  0
   42.7231   13.3660  -13.8047 O   0  0  0  0  0  0  0  0  0  0  0  0
   45.9361   13.8696  -13.5882 H   0  0  0  0  0  0  0  0  0  0  0  0
   44.2307   13.3357  -15.6257 C   0  0  0  0  0  0  0  0  0  0  0  0
   45.5665   12.6063  -15.6658 C   0  0  0  0  0  0  0  0  0  0  0  0
   46.0341   12.6357  -16.9677 O   0  0  0  0  0  0  0  0  0  0  0  0
   46.9705   12.3744  -17.0143 H   0  0  0  0  0  0  0  0  0  0  0  0
   43.2098   12.4859  -16.3323 C   0  0  0  0  0  0  0  0  0  0  0  0
   42.1237   13.3012  -16.6399 O   0  0  0  0  0  0  0  0  0  0  0  0
   41.7185   13.0649  -17.5315 H   0  0  0  0  0  0  0  0  0  0  0  0
   46.0105   13.9494  -11.0258 C   0  0  0  0  0  0  0  0  0  0  0  0
   45.8978   13.0303   -9.9725 O   0  0  0  0  0  0  0  0  0  0  0  0
   44.9598   13.1379   -9.6352 H   0  0  0  0  0  0  0  0  0  0  0  0
   41.1438   15.8352   -9.2870 C   0  0  0  0  0  0  0  0  0  0  0  0
   40.1492   16.7539   -9.0298 O   0  0  0  0  0  0  0  0  0  0  0  0
   40.5241   17.6833   -8.9191 H   0  0  0  0  0  0  0  0  0  0  0  0
   37.7657   13.8166  -12.6248 C   0  0  0  0  0  0  0  0  0  0  0  0
   36.8535   13.8840  -13.6945 O   0  0  0  0  0  0  0  0  0  0  0  0
   35.9641   13.9976  -13.3045 H   0  0  0  0  0  0  0  0  0  0  0  0
   33.4071   15.4363  -11.2993 C   0  0  0  0  0  0  0  0  0  0  0  0
   33.6075   14.3069  -12.1040 O   0  0  0  0  0  0  0  0  0  0  0  0
   32.8297   14.1049  -12.6608 H   0  0  0  0  0  0  0  0  0  0  0  0
 26 27  1  0  0  0
 27 28  2  0  0  0
 27 24  1  0  0  0
 24 23  1  0  0  0
 23 22  1  0  0  0
 22 21  1  0  0  0
 21 16  1  0  0  0
 16 12  1  0  0  0
 12 13  1  0  0  0
 13 14  2  0  0  0
 13 11  1  0  0  0
 11 32  1  0  0  0
 32 33  1  0  0  0
 11  7  1  0  0  0
  7  8  1  0  0  0
  8  9  2  0  0  0
  8  6  1  0  0  0
  6 35  1  0  0  0
 35 36  1  0  0  0
  6  2  1  0  0  0
  2  3  1  0  0  0
  3  4  2  0  0  0
  3  1  1  0  0  0
  1 73  1  0  0  0
 73 74  1  0  0  0
  1 38  1  0  0  0
 38 39  1  0  0  0
 39 40  2  0  0  0
 39 42  1  0  0  0
 42 70  1  0  0  0
 70 71  1  0  0  0
 42 43  1  0  0  0
 43 44  1  0  0  0
 44 45  2  0  0  0
 44 47  1  0  0  0
 47 67  1  0  0  0
 67 68  1  0  0  0
 47 48  1  0  0  0
 48 49  1  0  0  0
 49 50  2  0  0  0
 49 52  1  0  0  0
 52 64  1  0  0  0
 64 65  1  0  0  0
 52 53  1  0  0  0
 53 54  1  0  0  0
 54 55  2  0  0  0
 54 57  1  0  0  0
 57 61  1  0  0  0
 61 62  1  0  0  0
 57 58  1  0  0  0
 58 59  1  0  0  0
 16 17  1  0  0  0
 17 18  1  0  0  0
 17 19  2  0  0  0
 26 29  1  0  0  0
 26 30  1  0  0  0
 28 31  1  0  0  0
 24 25  1  0  0  0
 12 15  1  0  0  0
 33 34  1  0  0  0
  7 10  1  0  0  0
 36 37  1  0  0  0
  2  5  1  0  0  0
 74 75  1  0  0  0
 38 41  1  0  0  0
 71 72  1  0  0  0
 43 46  1  0  0  0
 68 69  1  0  0  0
 48 51  1  0  0  0
 65 66  1  0  0  0
 53 56  1  0  0  0
 62 63  1  0  0  0
 59 60  1  0  0  0
 18 20  1  0  0  0
M  END
> <minimizedAffinity>
-7.42364

> <CNNscore>
0.0553539097

> <CNNaffinity>
5.1359553337

> <CNN_VS>
0.2842952013

> <CNNaffinity_variance>
0.6502237320

$$$$
[H]N=C(N([H])[H])N([H])C([H])([H])C([H])([H])C([H])([H])[C@@]([H])(C(=O)O[H])N([H])C(=O)[C@]([H])(N([H])C(=O)[C@@]([H])(N([H])C(=O)[C@@]([H])(N([H])C(=O)[C@@]([H])(N([H])C(=O)[C@]([H])(N([H])C(=O)[C@@]([H])(N([H])C(=O)C([H])(C([H])([H])O[H])C([H])([H])O[H])C([H])([H])O[H])C([H])([H])O[H])C([H])([H])O[H])C([H])([H])O[H])C([H])([H])O[H])C([H])([H])O[H]


 75 74  0  0  0  0  0  0  0  0999 V2000
   36.3015   14.5892   -6.1489 C   0  0  0  0  0  0  0  0  0  0  0  0
   36.9520   15.8065   -8.2330 N   0  0  0  0  0  0  0  0  0  0  0  0
   36.1999   14.8105   -7.6062 C   0  0  0  0  0  0  0  0  0  0  0  0
   35.4287   14.0967   -8.2828 O   0  0  0  0  0  0  0  0  0  0  0  0
   37.6073   16.3866   -7.6285 H   0  0  0  0  0  0  0  0  0  0  0  0
   36.9437   16.1439   -9.6071 C   0  0  0  0  0  0  0  0  0  0  0  0
   37.4543   14.9810  -11.8011 N   0  0  0  0  0  0  0  0  0  0  0  0
   37.8117   15.3418  -10.4953 C   0  0  0  0  0  0  0  0  0  0  0  0
   38.9173   14.9739  -10.0483 O   0  0  0  0  0  0  0  0  0  0  0  0
   36.5420   15.2788  -12.1846 H   0  0  0  0  0  0  0  0  0  0  0  0
   38.3238   14.1970  -12.6468 C   0  0  0  0  0  0  0  0  0  0  0  0
   36.7214   13.4187  -14.5083 N   0  0  0  0  0  0  0  0  0  0  0  0
   37.4866   13.1971  -13.3431 C   0  0  0  0  0  0  0  0  0  0  0  0
   37.4409   12.0168  -12.8508 O   0  0  0  0  0  0  0  0  0  0  0  0
   36.6644   14.3155  -15.0351 H   0  0  0  0  0  0  0  0  0  0  0  0
   35.9235   12.3357  -15.0900 C   0  0  0  0  0  0  0  0  0  0  0  0
   36.5016   11.8987  -16.3713 C   0  0  0  0  0  0  0  0  0  0  0  0
   37.8865   11.8381  -16.4768 O   0  0  0  0  0  0  0  0  0  0  0  0
   35.8473   11.5766  -17.3772 O   0  0  0  0  0  0  0  0  0  0  0  0
   38.3920   11.0845  -16.0065 H   0  0  0  0  0  0  0  0  0  0  0  0
   34.5003   12.8685  -15.3667 C   0  0  0  0  0  0  0  0  0  0  0  0
   33.6401   12.7352  -14.1743 C   0  0  0  0  0  0  0  0  0  0  0  0
   33.5381   13.9554  -13.3268 C   0  0  0  0  0  0  0  0  0  0  0  0
   32.3436   14.0458  -12.5626 N   0  0  0  0  0  0  0  0  0  0  0  0
   31.6335   13.2492  -12.7040 H   0  0  0  0  0  0  0  0  0  0  0  0
   32.9114   15.4078  -10.6503 N   0  0  0  0  0  0  0  0  0  0  0  0
   31.9689   15.0516  -11.6404 C   0  0  0  0  0  0  0  0  0  0  0  0
   30.8135   15.6602  -11.6794 N   0  0  0  0  0  0  0  0  0  0  0  0
   32.6742   15.3245   -9.6488 H   0  0  0  0  0  0  0  0  0  0  0  0
   33.8421   15.7528  -10.9380 H   0  0  0  0  0  0  0  0  0  0  0  0
   30.1312   15.3851  -12.4150 H   0  0  0  0  0  0  0  0  0  0  0  0
   38.9663   15.0934  -13.7011 C   0  0  0  0  0  0  0  0  0  0  0  0
   39.5022   14.2804  -14.6799 O   0  0  0  0  0  0  0  0  0  0  0  0
   40.4489   14.0160  -14.5285 H   0  0  0  0  0  0  0  0  0  0  0  0
   37.3458   17.6042   -9.7575 C   0  0  0  0  0  0  0  0  0  0  0  0
   38.4797   17.6535  -10.5921 O   0  0  0  0  0  0  0  0  0  0  0  0
   39.3160   17.7924  -10.0913 H   0  0  0  0  0  0  0  0  0  0  0  0
   35.3176   15.4162   -5.4579 N   0  0  0  0  0  0  0  0  0  0  0  0
   35.5558   16.0041   -4.1913 C   0  0  0  0  0  0  0  0  0  0  0  0
   36.6442   15.8569   -3.5967 O   0  0  0  0  0  0  0  0  0  0  0  0
   34.4067   15.5750   -5.9238 H   0  0  0  0  0  0  0  0  0  0  0  0
   34.4925   16.8238   -3.5298 C   0  0  0  0  0  0  0  0  0  0  0  0
   33.8658   17.6605   -4.5027 N   0  0  0  0  0  0  0  0  0  0  0  0
   33.8186   19.0725   -4.4973 C   0  0  0  0  0  0  0  0  0  0  0  0
   34.3940   19.6923   -3.5704 O   0  0  0  0  0  0  0  0  0  0  0  0
   33.4017   17.1723   -5.3136 H   0  0  0  0  0  0  0  0  0  0  0  0
   33.1239   19.8486   -5.5323 C   0  0  0  0  0  0  0  0  0  0  0  0
   32.0827   19.0632   -6.2059 N   0  0  0  0  0  0  0  0  0  0  0  0
   30.9509   19.6688   -6.7495 C   0  0  0  0  0  0  0  0  0  0  0  0
   30.8258   20.9289   -6.6766 O   0  0  0  0  0  0  0  0  0  0  0  0
   32.2624   18.0430   -6.2430 H   0  0  0  0  0  0  0  0  0  0  0  0
   29.8859   18.8835   -7.4135 C   0  0  0  0  0  0  0  0  0  0  0  0
   30.3435   17.5903   -7.8570 N   0  0  0  0  0  0  0  0  0  0  0  0
   30.5138   16.4692   -7.0310 C   0  0  0  0  0  0  0  0  0  0  0  0
   30.2673   16.5190   -5.8041 O   0  0  0  0  0  0  0  0  0  0  0  0
   30.5621   17.5097   -8.8952 H   0  0  0  0  0  0  0  0  0  0  0  0
   31.0009   15.1692   -7.6013 C   0  0  0  0  0  0  0  0  0  0  0  0
   31.5402   14.3918   -6.4086 C   0  0  0  0  0  0  0  0  0  0  0  0
   32.8970   14.1983   -6.5988 O   0  0  0  0  0  0  0  0  0  0  0  0
   33.3305   13.8971   -5.7812 H   0  0  0  0  0  0  0  0  0  0  0  0
   29.8821   14.3720   -8.2150 C   0  0  0  0  0  0  0  0  0  0  0  0
   28.6871   15.0160   -7.9051 O   0  0  0  0  0  0  0  0  0  0  0  0
   28.0268   14.9660   -8.6644 H   0  0  0  0  0  0  0  0  0  0  0  0
   28.6193   18.8518   -6.6149 C   0  0  0  0  0  0  0  0  0  0  0  0
   28.2835   20.1608   -6.2395 O   0  0  0  0  0  0  0  0  0  0  0  0
   29.1549   20.5892   -5.9898 H   0  0  0  0  0  0  0  0  0  0  0  0
   34.1786   20.2408   -6.5909 C   0  0  0  0  0  0  0  0  0  0  0  0
   35.3479   19.5443   -6.3742 O   0  0  0  0  0  0  0  0  0  0  0  0
   35.8343   19.8832   -5.5587 H   0  0  0  0  0  0  0  0  0  0  0  0
   33.5577   15.9200   -2.8093 C   0  0  0  0  0  0  0  0  0  0  0  0
   34.0632   14.6070   -2.8461 O   0  0  0  0  0  0  0  0  0  0  0  0
   33.7034   14.1851   -3.6515 H   0  0  0  0  0  0  0  0  0  0  0  0
   36.1923   13.1415   -5.7393 C   0  0  0  0  0  0  0  0  0  0  0  0
   36.0847   13.0170   -4.3478 O   0  0  0  0  0  0  0  0  0  0  0  0
   36.3521   12.1311   -4.0325 H   0  0  0  0  0  0  0  0  0  0  0  0
 26 27  1  0  0  0
 27 28  2  0  0  0
 27 24  1  0  0  0
 24 23  1  0  0  0
 23 22  1  0  0  0
 22 21  1  0  0  0
 21 16  1  0  0  0
 16 12  1  0  0  0
 12 13  1  0  0  0
 13 14  2  0  0  0
 13 11  1  0  0  0
 11 32  1  0  0  0
 32 33  1  0  0  0
 11  7  1  0  0  0
  7  8  1  0  0  0
  8  9  2  0  0  0
  8  6  1  0  0  0
  6 35  1  0  0  0
 35 36  1  0  0  0
  6  2  1  0  0  0
  2  3  1  0  0  0
  3  4  2  0  0  0
  3  1  1  0  0  0
  1 73  1  0  0  0
 73 74  1  0  0  0
  1 38  1  0  0  0
 38 39  1  0  0  0
 39 40  2  0  0  0
 39 42  1  0  0  0
 42 70  1  0  0  0
 70 71  1  0  0  0
 42 43  1  0  0  0
 43 44  1  0  0  0
 44 45  2  0  0  0
 44 47  1  0  0  0
 47 67  1  0  0  0
 67 68  1  0  0  0
 47 48  1  0  0  0
 48 49  1  0  0  0
 49 50  2  0  0  0
 49 52  1  0  0  0
 52 64  1  0  0  0
 64 65  1  0  0  0
 52 53  1  0  0  0
 53 54  1  0  0  0
 54 55  2  0  0  0
 54 57  1  0  0  0
 57 61  1  0  0  0
 61 62  1  0  0  0
 57 58  1  0  0  0
 58 59  1  0  0  0
 16 17  1  0  0  0
 17 18  1  0  0  0
 17 19  2  0  0  0
 26 29  1  0  0  0
 26 30  1  0  0  0
 28 31  1  0  0  0
 24 25  1  0  0  0
 12 15  1  0  0  0
 33 34  1  0  0  0
  7 10  1  0  0  0
 36 37  1  0  0  0
  2  5  1  0  0  0
 74 75  1  0  0  0
 38 41  1  0  0  0
 71 72  1  0  0  0
 43 46  1  0  0  0
 68 69  1  0  0  0
 48 51  1  0  0  0
 65 66  1  0  0  0
 53 56  1  0  0  0
 62 63  1  0  0  0
 59 60  1  0  0  0
 18 20  1  0  0  0
M  END
> <minimizedAffinity>
-6.72849

> <CNNscore>
0.0520201027

> <CNNaffinity>
5.3300542831

> <CNN_VS>
0.2772699594

> <CNNaffinity_variance>
1.5697370768

$$$$
[H]c1c([H])c(C(F)(F)F)c([H])c([H])c1N([H])C(=O)N1C([H])([H])C([H])([H])OC2(C1([H])[H])C([H])([H])C([H])([H])N(C(=O)C1([H])C([H])([H])C1([H])[H])C([H])([H])C2([H])[H]


 30 33  0  0  0  0  0  0  0  0999 V2000
   41.5054   15.7920   -6.7721 N   0  0  0  0  0  0  0  0  0  0  0  0
   41.7329   14.6574   -6.0104 C   0  0  0  0  0  0  0  0  0  0  0  0
   40.8175   13.9327   -5.5966 O   0  0  0  0  0  0  0  0  0  0  0  0
   43.1091   14.2922   -5.6761 N   0  0  0  0  0  0  0  0  0  0  0  0
   43.3036   13.1086   -4.8887 C   0  0  0  0  0  0  0  0  0  0  0  0
   44.7023   12.7368   -4.6762 C   0  0  0  0  0  0  0  0  0  0  0  0
   45.6782   13.6594   -4.8538 O   0  0  0  0  0  0  0  0  0  0  0  0
   45.5229   14.4900   -5.9312 C   0  0  0  0  0  0  0  0  0  0  0  0
   46.4974   15.6602   -5.7098 C   0  0  0  0  0  0  0  0  0  0  0  0
   47.9155   15.2452   -5.8405 C   0  0  0  0  0  0  0  0  0  0  0  0
   48.0205   13.7822   -5.7866 N   0  0  0  0  0  0  0  0  0  0  0  0
   47.3006   13.0516   -6.8014 C   0  0  0  0  0  0  0  0  0  0  0  0
   46.0669   13.8442   -7.2299 C   0  0  0  0  0  0  0  0  0  0  0  0
   48.7579   13.2005   -4.7288 C   0  0  0  0  0  0  0  0  0  0  0  0
   49.1907   13.9782   -3.7843 O   0  0  0  0  0  0  0  0  0  0  0  0
   44.1838   15.1005   -6.1360 C   0  0  0  0  0  0  0  0  0  0  0  0
   42.3333   16.3747   -7.0970 H   0  0  0  0  0  0  0  0  0  0  0  0
   37.7389   17.1080   -8.1363 C   0  0  0  0  0  0  0  0  0  0  0  0
   38.2172   17.4627   -6.8803 C   0  0  0  0  0  0  0  0  0  0  0  0
   39.4272   17.0447   -6.3998 C   0  0  0  0  0  0  0  0  0  0  0  0
   40.2355   16.2426   -7.1638 C   0  0  0  0  0  0  0  0  0  0  0  0
   39.8022   15.8493   -8.4511 C   0  0  0  0  0  0  0  0  0  0  0  0
   38.5754   16.2997   -8.8791 C   0  0  0  0  0  0  0  0  0  0  0  0
   36.3062   18.9410   -8.4321 F   0  0  0  0  0  0  0  0  0  0  0  0
   36.4250   17.5756   -8.6637 C   0  0  0  0  0  0  0  0  0  0  0  0
   35.4532   16.8365   -8.0032 F   0  0  0  0  0  0  0  0  0  0  0  0
   36.4140   17.3728  -10.0424 F   0  0  0  0  0  0  0  0  0  0  0  0
   49.0949   11.7860   -4.5757 C   0  0  0  0  0  0  0  0  0  0  0  0
   47.9436   10.9789   -3.9340 C   0  0  0  0  0  0  0  0  0  0  0  0
   49.3425   11.0461   -3.3625 C   0  0  0  0  0  0  0  0  0  0  0  0
 24 25  1  0  0  0
 25 26  1  0  0  0
 25 27  1  0  0  0
 25 18  1  0  0  0
 18 19  2  0  0  0
 19 20  1  0  0  0
 20 21  2  0  0  0
 21  1  1  0  0  0
  1  2  1  0  0  0
  2  3  2  0  0  0
  2  4  1  0  0  0
  4  5  1  0  0  0
  5  6  1  0  0  0
  6  7  1  0  0  0
  7  8  1  0  0  0
  8  9  1  0  0  0
  9 10  1  0  0  0
 10 11  1  0  0  0
 11 12  1  0  0  0
 12 13  1  0  0  0
 11 14  1  0  0  0
 14 15  2  0  0  0
 14 28  1  0  0  0
 28 29  1  0  0  0
 29 30  1  0  0  0
  8 16  1  0  0  0
 21 22  1  0  0  0
 22 23  2  0  0  0
 23 18  1  0  0  0
 16  4  1  0  0  0
 13  8  1  0  0  0
 30 28  1  0  0  0
  1 17  1  0  0  0
M  END
> <minimizedAffinity>
-3.40280

> <CNNscore>
0.5354909897

> <CNNaffinity>
4.7426109314

> <CNN_VS>
2.5396254063

> <CNNaffinity_variance>
0.6151205301

$$$$
[H]c1c([H])c(C(F)(F)F)c([H])c([H])c1N([H])C(=O)N1C([H])([H])C([H])([H])OC2(C1([H])[H])C([H])([H])C([H])([H])N(C(=O)C1([H])C([H])([H])C1([H])[H])C([H])([H])C2([H])[H]


 30 33  0  0  0  0  0  0  0  0999 V2000
   41.0670   13.2685  -14.8927 N   0  0  0  0  0  0  0  0  0  0  0  0
   40.7493   12.0918  -15.5514 C   0  0  0  0  0  0  0  0  0  0  0  0
   41.6035   11.2614  -15.8906 O   0  0  0  0  0  0  0  0  0  0  0  0
   39.3484   11.8101  -15.8633 N   0  0  0  0  0  0  0  0  0  0  0  0
   39.0596   10.5798  -16.5429 C   0  0  0  0  0  0  0  0  0  0  0  0
   37.6356   10.3043  -16.7332 C   0  0  0  0  0  0  0  0  0  0  0  0
   36.7375   11.3149  -16.6474 O   0  0  0  0  0  0  0  0  0  0  0  0
   36.9582   12.2241  -15.6477 C   0  0  0  0  0  0  0  0  0  0  0  0
   36.0821   13.4442  -15.9816 C   0  0  0  0  0  0  0  0  0  0  0  0
   34.6349   13.1584  -15.8264 C   0  0  0  0  0  0  0  0  0  0  0  0
   34.4117   11.7097  -15.7496 N   0  0  0  0  0  0  0  0  0  0  0  0
   35.0688   11.0179  -14.6671 C   0  0  0  0  0  0  0  0  0  0  0  0
   36.3621   11.7439  -14.3009 C   0  0  0  0  0  0  0  0  0  0  0  0
   33.6309   11.0963  -16.7571 C   0  0  0  0  0  0  0  0  0  0  0  0
   33.2638   11.8180  -17.7713 O   0  0  0  0  0  0  0  0  0  0  0  0
   38.3421   12.7406  -15.4871 C   0  0  0  0  0  0  0  0  0  0  0  0
   40.2886   13.9430  -14.6286 H   0  0  0  0  0  0  0  0  0  0  0  0
   44.9028   14.5058  -13.6538 C   0  0  0  0  0  0  0  0  0  0  0  0
   44.6658   14.0807  -14.9558 C   0  0  0  0  0  0  0  0  0  0  0  0
   43.4389   13.6607  -15.3895 C   0  0  0  0  0  0  0  0  0  0  0  0
   42.3688   13.6488  -14.5322 C   0  0  0  0  0  0  0  0  0  0  0  0
   42.5489   14.0708  -13.1947 C   0  0  0  0  0  0  0  0  0  0  0  0
   43.8060   14.4805  -12.8163 C   0  0  0  0  0  0  0  0  0  0  0  0
   46.1734   15.2337  -11.8219 F   0  0  0  0  0  0  0  0  0  0  0  0
   46.2383   14.9758  -13.1862 C   0  0  0  0  0  0  0  0  0  0  0  0
   46.5359   16.1099  -13.9294 F   0  0  0  0  0  0  0  0  0  0  0  0
   47.1547   13.9447  -13.3836 F   0  0  0  0  0  0  0  0  0  0  0  0
   33.1805    9.7055  -16.7855 C   0  0  0  0  0  0  0  0  0  0  0  0
   34.3241    8.7300  -17.1449 C   0  0  0  0  0  0  0  0  0  0  0  0
   33.0308    8.8311  -17.9228 C   0  0  0  0  0  0  0  0  0  0  0  0
 24 25  1  0  0  0
 25 26  1  0  0  0
 25 27  1  0  0  0
 25 18  1  0  0  0
 18 19  2  0  0  0
 19 20  1  0  0  0
 20 21  2  0  0  0
 21  1  1  0  0  0
  1  2  1  0  0  0
  2  3  2  0  0  0
  2  4  1  0  0  0
  4  5  1  0  0  0
  5  6  1  0  0  0
  6  7  1  0  0  0
  7  8  1  0  0  0
  8  9  1  0  0  0
  9 10  1  0  0  0
 10 11  1  0  0  0
 11 12  1  0  0  0
 12 13  1  0  0  0
 11 14  1  0  0  0
 14 15  2  0  0  0
 14 28  1  0  0  0
 28 29  1  0  0  0
 29 30  1  0  0  0
  8 16  1  0  0  0
 21 22  1  0  0  0
 22 23  2  0  0  0
 23 18  1  0  0  0
 16  4  1  0  0  0
 13  8  1  0  0  0
 30 28  1  0  0  0
  1 17  1  0  0  0
M  END
> <minimizedAffinity>
3.55913

> <CNNscore>
0.4748766720

> <CNNaffinity>
6.5741424561

> <CNN_VS>
3.1219069958

> <CNNaffinity_variance>
1.3996393681

$$$$
[H]c1c([H])c(C(F)(F)F)c([H])c([H])c1N([H])C(=O)N1C([H])([H])C([H])([H])OC2(C1([H])[H])C([H])([H])C([H])([H])N(C(=O)C1([H])C([H])([H])C1([H])[H])C([H])([H])C2([H])[H]


 30 33  0  0  0  0  0  0  0  0999 V2000
   34.1794   11.5430  -17.2591 N   0  0  0  0  0  0  0  0  0  0  0  0
   33.7979   12.5279  -16.3625 C   0  0  0  0  0  0  0  0  0  0  0  0
   32.6209   12.8873  -16.2218 O   0  0  0  0  0  0  0  0  0  0  0  0
   34.8217   13.1760  -15.5434 N   0  0  0  0  0  0  0  0  0  0  0  0
   34.3864   14.1884  -14.6245 C   0  0  0  0  0  0  0  0  0  0  0  0
   35.4376   14.7243  -13.7600 C   0  0  0  0  0  0  0  0  0  0  0  0
   36.7380   14.5680  -14.1059 O   0  0  0  0  0  0  0  0  0  0  0  0
   37.0723   13.3476  -14.6289 C   0  0  0  0  0  0  0  0  0  0  0  0
   38.4498   13.5310  -15.2898 C   0  0  0  0  0  0  0  0  0  0  0  0
   39.5281   13.7472  -14.2946 C   0  0  0  0  0  0  0  0  0  0  0  0
   38.9496   14.0859  -12.9888 N   0  0  0  0  0  0  0  0  0  0  0  0
   38.0665   13.1045  -12.4066 C   0  0  0  0  0  0  0  0  0  0  0  0
   37.3720   12.3143  -13.5143 C   0  0  0  0  0  0  0  0  0  0  0  0
   39.2463   15.3515  -12.4309 C   0  0  0  0  0  0  0  0  0  0  0  0
   39.9025   16.2025  -13.1585 O   0  0  0  0  0  0  0  0  0  0  0  0
   36.1819   12.7868  -15.6780 C   0  0  0  0  0  0  0  0  0  0  0  0
   35.2065   11.2789  -17.3352 H   0  0  0  0  0  0  0  0  0  0  0  0
   31.5189    9.5972  -19.8887 C   0  0  0  0  0  0  0  0  0  0  0  0
   31.6552    9.1905  -18.5665 C   0  0  0  0  0  0  0  0  0  0  0  0
   32.5164    9.7890  -17.6891 C   0  0  0  0  0  0  0  0  0  0  0  0
   33.2936   10.8440  -18.0933 C   0  0  0  0  0  0  0  0  0  0  0  0
   33.1980   11.3027  -19.4275 C   0  0  0  0  0  0  0  0  0  0  0  0
   32.3156   10.6600  -20.2638 C   0  0  0  0  0  0  0  0  0  0  0  0
   29.2895    8.9973  -20.3008 F   0  0  0  0  0  0  0  0  0  0  0  0
   30.5697    8.9517  -20.8403 C   0  0  0  0  0  0  0  0  0  0  0  0
   31.0241    7.6531  -21.0253 F   0  0  0  0  0  0  0  0  0  0  0  0
   30.5643    9.6952  -22.0189 F   0  0  0  0  0  0  0  0  0  0  0  0
   38.8869   15.8208  -11.0936 C   0  0  0  0  0  0  0  0  0  0  0  0
   37.6252   16.7133  -11.1088 C   0  0  0  0  0  0  0  0  0  0  0  0
   38.9621   17.1583  -10.5587 C   0  0  0  0  0  0  0  0  0  0  0  0
 24 25  1  0  0  0
 25 26  1  0  0  0
 25 27  1  0  0  0
 25 18  1  0  0  0
 18 19  2  0  0  0
 19 20  1  0  0  0
 20 21  2  0  0  0
 21  1  1  0  0  0
  1  2  1  0  0  0
  2  3  2  0  0  0
  2  4  1  0  0  0
  4  5  1  0  0  0
  5  6  1  0  0  0
  6  7  1  0  0  0
  7  8  1  0  0  0
  8  9  1  0  0  0
  9 10  1  0  0  0
 10 11  1  0  0  0
 11 12  1  0  0  0
 12 13  1  0  0  0
 11 14  1  0  0  0
 14 15  2  0  0  0
 14 28  1  0  0  0
 28 29  1  0  0  0
 29 30  1  0  0  0
  8 16  1  0  0  0
 21 22  1  0  0  0
 22 23  2  0  0  0
 23 18  1  0  0  0
 16  4  1  0  0  0
 13  8  1  0  0  0
 30 28  1  0  0  0
  1 17  1  0  0  0
M  END
> <minimizedAffinity>
6.83716

> <CNNscore>
0.3967687190

> <CNNaffinity>
6.2502274513

> <CNN_VS>
2.4798946381

> <CNNaffinity_variance>
0.8442746997

$$$$
[H]c1c([H])c(C(F)(F)F)c([H])c([H])c1N([H])C(=O)N1C([H])([H])C([H])([H])OC2(C1([H])[H])C([H])([H])C([H])([H])N(C(=O)C1([H])C([H])([H])C1([H])[H])C([H])([H])C2([H])[H]


 30 33  0  0  0  0  0  0  0  0999 V2000
   35.0032   12.1173  -16.0313 N   0  0  0  0  0  0  0  0  0  0  0  0
   34.6460   13.0170  -15.0403 C   0  0  0  0  0  0  0  0  0  0  0  0
   33.4708   13.2053  -14.6973 O   0  0  0  0  0  0  0  0  0  0  0  0
   35.6946   13.7811  -14.3651 N   0  0  0  0  0  0  0  0  0  0  0  0
   35.2848   14.7000  -13.3421 C   0  0  0  0  0  0  0  0  0  0  0  0
   36.3825   15.3558  -12.6317 C   0  0  0  0  0  0  0  0  0  0  0  0
   37.6176   15.3908  -13.1872 O   0  0  0  0  0  0  0  0  0  0  0  0
   38.0214   14.2420  -13.8134 C   0  0  0  0  0  0  0  0  0  0  0  0
   39.2347   14.6318  -14.6757 C   0  0  0  0  0  0  0  0  0  0  0  0
   40.4231   14.9717  -13.8558 C   0  0  0  0  0  0  0  0  0  0  0  0
   40.0268   15.1942  -12.4602 N   0  0  0  0  0  0  0  0  0  0  0  0
   39.3903   14.0853  -11.7916 C   0  0  0  0  0  0  0  0  0  0  0  0
   38.6351   13.2335  -12.8105 C   0  0  0  0  0  0  0  0  0  0  0  0
   40.2394   16.4747  -11.8979 C   0  0  0  0  0  0  0  0  0  0  0  0
   40.6478   17.4264  -12.6799 O   0  0  0  0  0  0  0  0  0  0  0  0
   37.0539   13.5887  -14.7326 C   0  0  0  0  0  0  0  0  0  0  0  0
   36.0299   12.0008  -16.2823 H   0  0  0  0  0  0  0  0  0  0  0  0
   32.2958    9.8483  -18.3336 C   0  0  0  0  0  0  0  0  0  0  0  0
   32.3129    9.7635  -16.9463 C   0  0  0  0  0  0  0  0  0  0  0  0
   33.1845   10.4741  -16.1683 C   0  0  0  0  0  0  0  0  0  0  0  0
   34.0940   11.3224  -16.7459 C   0  0  0  0  0  0  0  0  0  0  0  0
   34.1235   11.4507  -18.1538 C   0  0  0  0  0  0  0  0  0  0  0  0
   33.2239   10.7094  -18.8833 C   0  0  0  0  0  0  0  0  0  0  0  0
   30.0395    9.4099  -18.7996 F   0  0  0  0  0  0  0  0  0  0  0  0
   31.3360    9.0825  -19.1795 C   0  0  0  0  0  0  0  0  0  0  0  0
   31.6261    7.7395  -18.9821 F   0  0  0  0  0  0  0  0  0  0  0  0
   31.5083    9.4837  -20.5029 F   0  0  0  0  0  0  0  0  0  0  0  0
   40.0449   16.8562  -10.4998 C   0  0  0  0  0  0  0  0  0  0  0  0
   41.2002   16.3683   -9.5966 C   0  0  0  0  0  0  0  0  0  0  0  0
   39.7481   16.0112   -9.3692 C   0  0  0  0  0  0  0  0  0  0  0  0
 24 25  1  0  0  0
 25 26  1  0  0  0
 25 27  1  0  0  0
 25 18  1  0  0  0
 18 19  2  0  0  0
 19 20  1  0  0  0
 20 21  2  0  0  0
 21  1  1  0  0  0
  1  2  1  0  0  0
  2  3  2  0  0  0
  2  4  1  0  0  0
  4  5  1  0  0  0
  5  6  1  0  0  0
  6  7  1  0  0  0
  7  8  1  0  0  0
  8  9  1  0  0  0
  9 10  1  0  0  0
 10 11  1  0  0  0
 11 12  1  0  0  0
 12 13  1  0  0  0
 11 14  1  0  0  0
 14 15  2  0  0  0
 14 28  1  0  0  0
 28 29  1  0  0  0
 29 30  1  0  0  0
  8 16  1  0  0  0
 21 22  1  0  0  0
 22 23  2  0  0  0
 23 18  1  0  0  0
 16  4  1  0  0  0
 13  8  1  0  0  0
 30 28  1  0  0  0
  1 17  1  0  0  0
M  END
> <minimizedAffinity>
3.62213

> <CNNscore>
0.3675653636

> <CNNaffinity>
6.0890626907

> <CNN_VS>
2.2381284237

> <CNNaffinity_variance>
1.2857501507

$$$$
[H]c1c([H])c(C(F)(F)F)c([H])c([H])c1N([H])C(=O)N1C([H])([H])C([H])([H])OC2(C1([H])[H])C([H])([H])C([H])([H])N(C(=O)C1([H])C([H])([H])C1([H])[H])C([H])([H])C2([H])[H]


 30 33  0  0  0  0  0  0  0  0999 V2000
   34.7498   11.9303  -15.2051 N   0  0  0  0  0  0  0  0  0  0  0  0
   34.0784   12.8119  -14.3737 C   0  0  0  0  0  0  0  0  0  0  0  0
   32.8425   12.8625  -14.3078 O   0  0  0  0  0  0  0  0  0  0  0  0
   34.8539   13.7252  -13.5347 N   0  0  0  0  0  0  0  0  0  0  0  0
   34.1222   14.6203  -12.6849 C   0  0  0  0  0  0  0  0  0  0  0  0
   34.9499   15.4336  -11.7942 C   0  0  0  0  0  0  0  0  0  0  0  0
   36.2655   15.6045  -12.0678 O   0  0  0  0  0  0  0  0  0  0  0  0
   36.9289   14.4947  -12.5183 C   0  0  0  0  0  0  0  0  0  0  0  0
   38.2515   15.0039  -13.1176 C   0  0  0  0  0  0  0  0  0  0  0  0
   39.1787   15.5192  -12.0809 C   0  0  0  0  0  0  0  0  0  0  0  0
   38.4567   15.7387  -10.8219 N   0  0  0  0  0  0  0  0  0  0  0  0
   37.8185   14.5824  -10.2408 C   0  0  0  0  0  0  0  0  0  0  0  0
   37.4141   13.6072  -11.3450 C   0  0  0  0  0  0  0  0  0  0  0  0
   38.3890   17.0546  -10.3074 C   0  0  0  0  0  0  0  0  0  0  0  0
   38.8499   18.0223  -11.0389 O   0  0  0  0  0  0  0  0  0  0  0  0
   36.2738   13.6928  -13.5841 C   0  0  0  0  0  0  0  0  0  0  0  0
   35.8130   11.9354  -15.2183 H   0  0  0  0  0  0  0  0  0  0  0  0
   33.0208    9.0271  -17.7272 C   0  0  0  0  0  0  0  0  0  0  0  0
   32.5590   10.3381  -17.7112 C   0  0  0  0  0  0  0  0  0  0  0  0
   33.0865   11.3026  -16.8981 C   0  0  0  0  0  0  0  0  0  0  0  0
   34.1215   11.0027  -16.0501 C   0  0  0  0  0  0  0  0  0  0  0  0
   34.6339    9.6850  -16.0226 C   0  0  0  0  0  0  0  0  0  0  0  0
   34.0617    8.7579  -16.8618 C   0  0  0  0  0  0  0  0  0  0  0  0
   31.2818    7.4889  -18.0590 F   0  0  0  0  0  0  0  0  0  0  0  0
   32.4531    7.9800  -18.6241 C   0  0  0  0  0  0  0  0  0  0  0  0
   33.4318    7.0042  -18.7543 F   0  0  0  0  0  0  0  0  0  0  0  0
   32.1237    8.5802  -19.8377 F   0  0  0  0  0  0  0  0  0  0  0  0
   37.8435   17.4572   -9.0119 C   0  0  0  0  0  0  0  0  0  0  0  0
   36.3159   17.6853   -9.0683 C   0  0  0  0  0  0  0  0  0  0  0  0
   37.3062   18.7372   -8.6201 C   0  0  0  0  0  0  0  0  0  0  0  0
 24 25  1  0  0  0
 25 26  1  0  0  0
 25 27  1  0  0  0
 25 18  1  0  0  0
 18 19  2  0  0  0
 19 20  1  0  0  0
 20 21  2  0  0  0
 21  1  1  0  0  0
  1  2  1  0  0  0
  2  3  2  0  0  0
  2  4  1  0  0  0
  4  5  1  0  0  0
  5  6  1  0  0  0
  6  7  1  0  0  0
  7  8  1  0  0  0
  8  9  1  0  0  0
  9 10  1  0  0  0
 10 11  1  0  0  0
 11 12  1  0  0  0
 12 13  1  0  0  0
 11 14  1  0  0  0
 14 15  2  0  0  0
 14 28  1  0  0  0
 28 29  1  0  0  0
 29 30  1  0  0  0
  8 16  1  0  0  0
 21 22  1  0  0  0
 22 23  2  0  0  0
 23 18  1  0  0  0
 16  4  1  0  0  0
 13  8  1  0  0  0
 30 28  1  0  0  0
  1 17  1  0  0  0
M  END
> <minimizedAffinity>
1.78389

> <CNNscore>
0.3031967580

> <CNNaffinity>
5.7225394249

> <CNN_VS>
1.7350554466

> <CNNaffinity_variance>
0.6401296854

$$$$
[H]c1c([H])c(C(F)(F)F)c([H])c([H])c1N([H])C(=O)N1C([H])([H])C([H])([H])OC2(C1([H])[H])C([H])([H])C([H])([H])N(C(=O)C1([H])C([H])([H])C1([H])[H])C([H])([H])C2([H])[H]


 30 33  0  0  0  0  0  0  0  0999 V2000
   34.1172   10.6338  -17.1439 N   0  0  0  0  0  0  0  0  0  0  0  0
   33.7288   11.6987  -16.3473 C   0  0  0  0  0  0  0  0  0  0  0  0
   32.5454   12.0392  -16.2130 O   0  0  0  0  0  0  0  0  0  0  0  0
   34.7528   12.4585  -15.6309 N   0  0  0  0  0  0  0  0  0  0  0  0
   34.3104   13.5517  -14.8136 C   0  0  0  0  0  0  0  0  0  0  0  0
   35.3662   14.2057  -14.0408 C   0  0  0  0  0  0  0  0  0  0  0  0
   36.6617   14.0484  -14.4041 O   0  0  0  0  0  0  0  0  0  0  0  0
   37.0192   12.7882  -14.8029 C   0  0  0  0  0  0  0  0  0  0  0  0
   38.3738   12.9367  -15.5177 C   0  0  0  0  0  0  0  0  0  0  0  0
   39.4695   13.2878  -14.5817 C   0  0  0  0  0  0  0  0  0  0  0  0
   38.9137   13.7491  -13.3039 N   0  0  0  0  0  0  0  0  0  0  0  0
   38.0751   12.8125  -12.5959 C   0  0  0  0  0  0  0  0  0  0  0  0
   37.3772   11.8893  -13.5932 C   0  0  0  0  0  0  0  0  0  0  0  0
   39.1862   15.0749  -12.8929 C   0  0  0  0  0  0  0  0  0  0  0  0
   39.7985   15.8602  -13.7251 O   0  0  0  0  0  0  0  0  0  0  0  0
   36.1203   12.0940  -15.7610 C   0  0  0  0  0  0  0  0  0  0  0  0
   35.1495   10.3909  -17.2200 H   0  0  0  0  0  0  0  0  0  0  0  0
   31.3527    8.3664  -19.3789 C   0  0  0  0  0  0  0  0  0  0  0  0
   32.2007    7.7663  -18.4553 C   0  0  0  0  0  0  0  0  0  0  0  0
   33.1178    8.4674  -17.7224 C   0  0  0  0  0  0  0  0  0  0  0  0
   33.2323    9.8255  -17.8737 C   0  0  0  0  0  0  0  0  0  0  0  0
   32.3955   10.4916  -18.7987 C   0  0  0  0  0  0  0  0  0  0  0  0
   31.4940    9.7332  -19.5082 C   0  0  0  0  0  0  0  0  0  0  0  0
   30.9069    7.2367  -21.3852 F   0  0  0  0  0  0  0  0  0  0  0  0
   30.3444    7.6021  -20.1678 C   0  0  0  0  0  0  0  0  0  0  0  0
   29.2481    8.4404  -20.3176 F   0  0  0  0  0  0  0  0  0  0  0  0
   30.0407    6.4353  -19.4692 F   0  0  0  0  0  0  0  0  0  0  0  0
   38.8462   15.6754  -11.6037 C   0  0  0  0  0  0  0  0  0  0  0  0
   40.0218   16.4837  -11.0093 C   0  0  0  0  0  0  0  0  0  0  0  0
   39.3446   15.3361  -10.2934 C   0  0  0  0  0  0  0  0  0  0  0  0
 24 25  1  0  0  0
 25 26  1  0  0  0
 25 27  1  0  0  0
 25 18  1  0  0  0
 18 19  2  0  0  0
 19 20  1  0  0  0
 20 21  2  0  0  0
 21  1  1  0  0  0
  1  2  1  0  0  0
  2  3  2  0  0  0
  2  4  1  0  0  0
  4  5  1  0  0  0
  5  6  1  0  0  0
  6  7  1  0  0  0
  7  8  1  0  0  0
  8  9  1  0  0  0
  9 10  1  0  0  0
 10 11  1  0  0  0
 11 12  1  0  0  0
 12 13  1  0  0  0
 11 14  1  0  0  0
 14 15  2  0  0  0
 14 28  1  0  0  0
 28 29  1  0  0  0
 29 30  1  0  0  0
  8 16  1  0  0  0
 21 22  1  0  0  0
 22 23  2  0  0  0
 23 18  1  0  0  0
 16  4  1  0  0  0
 13  8  1  0  0  0
 30 28  1  0  0  0
  1 17  1  0  0  0
M  END
> <minimizedAffinity>
1.49211

> <CNNscore>
0.2792423964

> <CNNaffinity>
6.1770577431

> <CNN_VS>
1.7248964310

> <CNNaffinity_variance>
0.4080886841

$$$$
[H]c1c([H])c(C(F)(F)F)c([H])c([H])c1N([H])C(=O)N1C([H])([H])C([H])([H])OC2(C1([H])[H])C([H])([H])C([H])([H])N(C(=O)C1([H])C([H])([H])C1([H])[H])C([H])([H])C2([H])[H]


 30 33  0  0  0  0  0  0  0  0999 V2000
   36.7265   13.5995  -13.3317 N   0  0  0  0  0  0  0  0  0  0  0  0
   37.7833   13.7669  -12.4515 C   0  0  0  0  0  0  0  0  0  0  0  0
   38.9084   13.2909  -12.6562 O   0  0  0  0  0  0  0  0  0  0  0  0
   37.5703   14.5368  -11.2264 N   0  0  0  0  0  0  0  0  0  0  0  0
   38.6899   14.6907  -10.3423 C   0  0  0  0  0  0  0  0  0  0  0  0
   38.4457   15.5568   -9.1890 C   0  0  0  0  0  0  0  0  0  0  0  0
   37.1743   15.8216   -8.8038 O   0  0  0  0  0  0  0  0  0  0  0  0
   36.2800   16.0459   -9.8161 C   0  0  0  0  0  0  0  0  0  0  0  0
   34.8826   15.9330   -9.1819 C   0  0  0  0  0  0  0  0  0  0  0  0
   34.5911   17.0553   -8.2569 C   0  0  0  0  0  0  0  0  0  0  0  0
   35.8300   17.7666   -7.9198 N   0  0  0  0  0  0  0  0  0  0  0  0
   36.5566   18.3443   -9.0244 C   0  0  0  0  0  0  0  0  0  0  0  0
   36.3140   17.5209  -10.2881 C   0  0  0  0  0  0  0  0  0  0  0  0
   36.2472   17.7848   -6.5683 C   0  0  0  0  0  0  0  0  0  0  0  0
   35.5903   17.0604   -5.7151 O   0  0  0  0  0  0  0  0  0  0  0  0
   36.2921   15.0985  -10.9608 C   0  0  0  0  0  0  0  0  0  0  0  0
   35.7832   14.0316  -13.0995 H   0  0  0  0  0  0  0  0  0  0  0  0
   37.1468   11.5398  -16.9868 C   0  0  0  0  0  0  0  0  0  0  0  0
   35.8953   11.7764  -16.4301 C   0  0  0  0  0  0  0  0  0  0  0  0
   35.7213   12.4291  -15.2413 C   0  0  0  0  0  0  0  0  0  0  0  0
   36.8057   12.8903  -14.5399 C   0  0  0  0  0  0  0  0  0  0  0  0
   38.1048   12.6795  -15.0570 C   0  0  0  0  0  0  0  0  0  0  0  0
   38.2167   12.0152  -16.2560 C   0  0  0  0  0  0  0  0  0  0  0  0
   36.3929   11.3141  -19.1961 F   0  0  0  0  0  0  0  0  0  0  0  0
   37.3338   10.8393  -18.2897 C   0  0  0  0  0  0  0  0  0  0  0  0
   37.1864    9.4838  -18.0295 F   0  0  0  0  0  0  0  0  0  0  0  0
   38.5987   11.1614  -18.7778 F   0  0  0  0  0  0  0  0  0  0  0  0
   37.3640   18.5463   -6.0107 C   0  0  0  0  0  0  0  0  0  0  0  0
   36.8908   19.8219   -5.2775 C   0  0  0  0  0  0  0  0  0  0  0  0
   37.8747   19.8296   -6.4263 C   0  0  0  0  0  0  0  0  0  0  0  0
 24 25  1  0  0  0
 25 26  1  0  0  0
 25 27  1  0  0  0
 25 18  1  0  0  0
 18 19  2  0  0  0
 19 20  1  0  0  0
 20 21  2  0  0  0
 21  1  1  0  0  0
  1  2  1  0  0  0
  2  3  2  0  0  0
  2  4  1  0  0  0
  4  5  1  0  0  0
  5  6  1  0  0  0
  6  7  1  0  0  0
  7  8  1  0  0  0
  8  9  1  0  0  0
  9 10  1  0  0  0
 10 11  1  0  0  0
 11 12  1  0  0  0
 12 13  1  0  0  0
 11 14  1  0  0  0
 14 15  2  0  0  0
 14 28  1  0  0  0
 28 29  1  0  0  0
 29 30  1  0  0  0
  8 16  1  0  0  0
 21 22  1  0  0  0
 22 23  2  0  0  0
 23 18  1  0  0  0
 16  4  1  0  0  0
 13  8  1  0  0  0
 30 28  1  0  0  0
  1 17  1  0  0  0
M  END
> <minimizedAffinity>
-5.10262

> <CNNscore>
0.2445146292

> <CNNaffinity>
5.6783952713

> <CNN_VS>
1.3884507418

> <CNNaffinity_variance>
0.4782728255

$$$$
[H]c1c([H])c(C(F)(F)F)c([H])c([H])c1N([H])C(=O)N1C([H])([H])C([H])([H])OC2(C1([H])[H])C([H])([H])C([H])([H])N(C(=O)C1([H])C([H])([H])C1([H])[H])C([H])([H])C2([H])[H]


 30 33  0  0  0  0  0  0  0  0999 V2000
   42.5090   14.1686  -12.5972 N   0  0  0  0  0  0  0  0  0  0  0  0
   43.3210   15.2676  -12.3683 C   0  0  0  0  0  0  0  0  0  0  0  0
   43.7387   15.9943  -13.2803 O   0  0  0  0  0  0  0  0  0  0  0  0
   43.7060   15.5907  -10.9948 N   0  0  0  0  0  0  0  0  0  0  0  0
   44.5447   16.7383  -10.7987 C   0  0  0  0  0  0  0  0  0  0  0  0
   44.8089   17.0724   -9.3993 C   0  0  0  0  0  0  0  0  0  0  0  0
   44.6208   16.1374   -8.4373 O   0  0  0  0  0  0  0  0  0  0  0  0
   43.5075   15.3530   -8.5793 C   0  0  0  0  0  0  0  0  0  0  0  0
   43.7081   14.1551   -7.6345 C   0  0  0  0  0  0  0  0  0  0  0  0
   43.6318   14.5453   -6.2055 C   0  0  0  0  0  0  0  0  0  0  0  0
   43.7465   16.0026   -6.0732 N   0  0  0  0  0  0  0  0  0  0  0  0
   42.7428   16.7872   -6.7505 C   0  0  0  0  0  0  0  0  0  0  0  0
   42.2504   16.0378   -7.9874 C   0  0  0  0  0  0  0  0  0  0  0  0
   44.8458   16.5270   -5.3538 C   0  0  0  0  0  0  0  0  0  0  0  0
   45.7698   15.7041   -4.9624 O   0  0  0  0  0  0  0  0  0  0  0  0
   43.2431   14.7789   -9.9240 C   0  0  0  0  0  0  0  0  0  0  0  0
   42.1834   13.5820  -11.7723 H   0  0  0  0  0  0  0  0  0  0  0  0
   40.9939   12.9378  -16.3346 C   0  0  0  0  0  0  0  0  0  0  0  0
   42.3396   12.7942  -16.0173 C   0  0  0  0  0  0  0  0  0  0  0  0
   42.8685   13.1932  -14.8211 C   0  0  0  0  0  0  0  0  0  0  0  0
   42.0661   13.7601  -13.8645 C   0  0  0  0  0  0  0  0  0  0  0  0
   40.6879   13.9315  -14.1302 C   0  0  0  0  0  0  0  0  0  0  0  0
   40.2143   13.5126  -15.3514 C   0  0  0  0  0  0  0  0  0  0  0  0
   40.2712   13.5936  -18.4672 F   0  0  0  0  0  0  0  0  0  0  0  0
   40.4166   12.4901  -17.6344 C   0  0  0  0  0  0  0  0  0  0  0  0
   39.2038   11.8845  -17.3356 F   0  0  0  0  0  0  0  0  0  0  0  0
   41.3228   11.6178  -18.2342 F   0  0  0  0  0  0  0  0  0  0  0  0
   45.0639   17.9271   -4.9932 C   0  0  0  0  0  0  0  0  0  0  0  0
   45.7664   18.7165   -6.1211 C   0  0  0  0  0  0  0  0  0  0  0  0
   46.3081   18.6011   -4.7135 C   0  0  0  0  0  0  0  0  0  0  0  0
 24 25  1  0  0  0
 25 26  1  0  0  0
 25 27  1  0  0  0
 25 18  1  0  0  0
 18 19  2  0  0  0
 19 20  1  0  0  0
 20 21  2  0  0  0
 21  1  1  0  0  0
  1  2  1  0  0  0
  2  3  2  0  0  0
  2  4  1  0  0  0
  4  5  1  0  0  0
  5  6  1  0  0  0
  6  7  1  0  0  0
  7  8  1  0  0  0
  8  9  1  0  0  0
  9 10  1  0  0  0
 10 11  1  0  0  0
 11 12  1  0  0  0
 12 13  1  0  0  0
 11 14  1  0  0  0
 14 15  2  0  0  0
 14 28  1  0  0  0
 28 29  1  0  0  0
 29 30  1  0  0  0
  8 16  1  0  0  0
 21 22  1  0  0  0
 22 23  2  0  0  0
 23 18  1  0  0  0
 16  4  1  0  0  0
 13  8  1  0  0  0
 30 28  1  0  0  0
  1 17  1  0  0  0
M  END
> <minimizedAffinity>
-6.92713

> <CNNscore>
0.1668078601

> <CNNaffinity>
4.9061732292

> <CNN_VS>
0.8183882833

> <CNNaffinity_variance>
0.0838845223

$$$$
[H]c1c([H])c(C(F)(F)F)c([H])c([H])c1N([H])C(=O)N1C([H])([H])C([H])([H])OC2(C1([H])[H])C([H])([H])C([H])([H])N(C(=O)C1([H])C([H])([H])C1([H])[H])C([H])([H])C2([H])[H]


 30 33  0  0  0  0  0  0  0  0999 V2000
   39.3148   15.0242  -12.2271 N   0  0  0  0  0  0  0  0  0  0  0  0
   40.2425   15.8762  -11.6500 C   0  0  0  0  0  0  0  0  0  0  0  0
   39.9212   16.8103  -10.9026 O   0  0  0  0  0  0  0  0  0  0  0  0
   41.6634   15.6713  -11.9297 N   0  0  0  0  0  0  0  0  0  0  0  0
   42.5930   16.5721  -11.3106 C   0  0  0  0  0  0  0  0  0  0  0  0
   44.0018   16.2536  -11.5419 C   0  0  0  0  0  0  0  0  0  0  0  0
   44.3487   15.4484  -12.5746 O   0  0  0  0  0  0  0  0  0  0  0  0
   43.5338   14.3688  -12.7874 C   0  0  0  0  0  0  0  0  0  0  0  0
   43.8770   13.8477  -14.1940 C   0  0  0  0  0  0  0  0  0  0  0  0
   45.2261   13.2341  -14.2541 C   0  0  0  0  0  0  0  0  0  0  0  0
   46.0040   13.6074  -13.0667 N   0  0  0  0  0  0  0  0  0  0  0  0
   45.4507   13.2197  -11.7918 C   0  0  0  0  0  0  0  0  0  0  0  0
   43.9265   13.1734  -11.8838 C   0  0  0  0  0  0  0  0  0  0  0  0
   47.1889   14.3581  -13.2492 C   0  0  0  0  0  0  0  0  0  0  0  0
   47.4590   14.7955  -14.4408 O   0  0  0  0  0  0  0  0  0  0  0  0
   42.0673   14.6080  -12.7818 C   0  0  0  0  0  0  0  0  0  0  0  0
   39.6527   14.2408  -12.8617 H   0  0  0  0  0  0  0  0  0  0  0  0
   35.1318   15.1027  -11.7032 C   0  0  0  0  0  0  0  0  0  0  0  0
   35.8720   16.2763  -11.7864 C   0  0  0  0  0  0  0  0  0  0  0  0
   37.2303   16.2894  -11.9434 C   0  0  0  0  0  0  0  0  0  0  0  0
   37.9281   15.1123  -12.0316 C   0  0  0  0  0  0  0  0  0  0  0  0
   37.2287   13.8858  -11.9539 C   0  0  0  0  0  0  0  0  0  0  0  0
   35.8637   13.9361  -11.7941 C   0  0  0  0  0  0  0  0  0  0  0  0
   33.1154   16.1870  -12.2120 F   0  0  0  0  0  0  0  0  0  0  0  0
   33.6492   15.0903  -11.5451 C   0  0  0  0  0  0  0  0  0  0  0  0
   33.4012   15.1245  -10.1797 F   0  0  0  0  0  0  0  0  0  0  0  0
   33.1574   13.9378  -12.1549 F   0  0  0  0  0  0  0  0  0  0  0  0
   48.1677   14.7063  -12.2202 C   0  0  0  0  0  0  0  0  0  0  0  0
   47.6645   15.8388  -11.2968 C   0  0  0  0  0  0  0  0  0  0  0  0
   48.9489   15.9120  -12.0923 C   0  0  0  0  0  0  0  0  0  0  0  0
 24 25  1  0  0  0
 25 26  1  0  0  0
 25 27  1  0  0  0
 25 18  1  0  0  0
 18 19  2  0  0  0
 19 20  1  0  0  0
 20 21  2  0  0  0
 21  1  1  0  0  0
  1  2  1  0  0  0
  2  3  2  0  0  0
  2  4  1  0  0  0
  4  5  1  0  0  0
  5  6  1  0  0  0
  6  7  1  0  0  0
  7  8  1  0  0  0
  8  9  1  0  0  0
  9 10  1  0  0  0
 10 11  1  0  0  0
 11 12  1  0  0  0
 12 13  1  0  0  0
 11 14  1  0  0  0
 14 15  2  0  0  0
 14 28  1  0  0  0
 28 29  1  0  0  0
 29 30  1  0  0  0
  8 16  1  0  0  0
 21 22  1  0  0  0
 22 23  2  0  0  0
 23 18  1  0  0  0
 16  4  1  0  0  0
 13  8  1  0  0  0
 30 28  1  0  0  0
  1 17  1  0  0  0
M  END
> <minimizedAffinity>
-4.77720

> <CNNscore>
0.1540191025

> <CNNaffinity>
4.9829549789

> <CNN_VS>
0.7674702406

> <CNNaffinity_variance>
0.5099707246

$$$$
[H]c1nc2c([H])c([H])c([H])c([H])n2c1C(=O)N([H])c1c([H])c(N([H])C(=O)c2c([H])c([H])c(C([H])([H])N3C([H])([H])C([H])([H])N(C([H])([H])[H])C([H])([H])C3([H])[H])c(C(F)(F)F)c2[H])c([H])c([H])c1C([H])([H])[H]


 42 46  0  0  0  0  0  0  0  0999 V2000
   39.4047   16.1550   -9.8373 C   0  0  0  0  0  0  0  0  0  0  0  0
   39.3766   16.9147  -10.8233 O   0  0  0  0  0  0  0  0  0  0  0  0
   38.3089   15.3537   -9.4977 N   0  0  0  0  0  0  0  0  0  0  0  0
   38.4546   14.7387   -8.6317 H   0  0  0  0  0  0  0  0  0  0  0  0
   37.0786   15.3094  -10.1891 C   0  0  0  0  0  0  0  0  0  0  0  0
   35.9243   15.9243   -9.8126 C   0  0  0  0  0  0  0  0  0  0  0  0
   34.7913   15.8322  -10.5880 C   0  0  0  0  0  0  0  0  0  0  0  0
   34.7901   15.1183  -11.7630 C   0  0  0  0  0  0  0  0  0  0  0  0
   33.5705   15.0203  -12.5950 C   0  0  0  0  0  0  0  0  0  0  0  0
   35.9488   14.4730  -12.1863 C   0  0  0  0  0  0  0  0  0  0  0  0
   37.0689   14.5815  -11.3913 C   0  0  0  0  0  0  0  0  0  0  0  0
   35.9009   13.7665  -13.3865 N   0  0  0  0  0  0  0  0  0  0  0  0
   35.5713   12.4267  -13.6359 C   0  0  0  0  0  0  0  0  0  0  0  0
   35.2530   11.6513  -12.7183 O   0  0  0  0  0  0  0  0  0  0  0  0
   36.1536   14.3154  -14.2803 H   0  0  0  0  0  0  0  0  0  0  0  0
   35.5914   11.8829  -15.0117 C   0  0  0  0  0  0  0  0  0  0  0  0
   34.4597   11.5538  -15.7279 C   0  0  0  0  0  0  0  0  0  0  0  0
   34.8545   11.1031  -16.9217 N   0  0  0  0  0  0  0  0  0  0  0  0
   36.1919   11.1388  -16.9764 C   0  0  0  0  0  0  0  0  0  0  0  0
   37.0807   10.7811  -17.9877 C   0  0  0  0  0  0  0  0  0  0  0  0
   38.4343   10.9161  -17.7921 C   0  0  0  0  0  0  0  0  0  0  0  0
   38.8570   11.4109  -16.5743 C   0  0  0  0  0  0  0  0  0  0  0  0
   37.9614   11.7592  -15.5863 C   0  0  0  0  0  0  0  0  0  0  0  0
   36.6418   11.6240  -15.7865 N   0  0  0  0  0  0  0  0  0  0  0  0
   43.0052   16.1734   -7.4832 C   0  0  0  0  0  0  0  0  0  0  0  0
   43.0395   16.1907   -8.8624 C   0  0  0  0  0  0  0  0  0  0  0  0
   41.8872   16.1828   -9.6590 C   0  0  0  0  0  0  0  0  0  0  0  0
   40.6544   16.1574   -9.0632 C   0  0  0  0  0  0  0  0  0  0  0  0
   40.6091   16.1411   -7.7033 C   0  0  0  0  0  0  0  0  0  0  0  0
   41.7536   16.1483   -6.8915 C   0  0  0  0  0  0  0  0  0  0  0  0
   41.6184   16.1201   -5.4361 C   0  0  0  0  0  0  0  0  0  0  0  0
   42.3112   15.1224   -4.7941 F   0  0  0  0  0  0  0  0  0  0  0  0
   41.8522   17.3596   -4.8522 F   0  0  0  0  0  0  0  0  0  0  0  0
   40.2720   15.8558   -5.1319 F   0  0  0  0  0  0  0  0  0  0  0  0
   44.2192   16.2293   -6.6633 C   0  0  0  0  0  0  0  0  0  0  0  0
   48.2892   16.4477   -4.5924 C   0  0  0  0  0  0  0  0  0  0  0  0
   47.0303   16.2517   -5.2232 N   0  0  0  0  0  0  0  0  0  0  0  0
   45.8829   16.6742   -4.4946 C   0  0  0  0  0  0  0  0  0  0  0  0
   45.0969   17.7675   -5.0918 C   0  0  0  0  0  0  0  0  0  0  0  0
   44.8320   17.5126   -6.5224 N   0  0  0  0  0  0  0  0  0  0  0  0
   46.1779   17.6010   -7.0967 C   0  0  0  0  0  0  0  0  0  0  0  0
   46.9709   16.4385   -6.6281 C   0  0  0  0  0  0  0  0  0  0  0  0
 36 37  1  0  0  0
 37 38  1  0  0  0
 38 39  1  0  0  0
 39 40  1  0  0  0
 40 35  1  0  0  0
 35 25  1  0  0  0
 25 26  2  0  0  0
 26 27  1  0  0  0
 27 28  2  0  0  0
 28 29  1  0  0  0
 29 30  2  0  0  0
 30 31  1  0  0  0
 31 32  1  0  0  0
 31 33  1  0  0  0
 31 34  1  0  0  0
 28  1  1  0  0  0
  1  2  2  0  0  0
  1  3  1  0  0  0
  3  5  1  0  0  0
  5  6  2  0  0  0
  6  7  1  0  0  0
  7  8  2  0  0  0
  8  9  1  0  0  0
  8 10  1  0  0  0
 10 12  1  0  0  0
 12 13  1  0  0  0
 13 14  2  0  0  0
 13 16  1  0  0  0
 16 17  2  0  0  0
 17 18  1  0  0  0
 18 19  2  0  0  0
 19 20  1  0  0  0
 20 21  2  0  0  0
 21 22  1  0  0  0
 22 23  2  0  0  0
 23 24  1  0  0  0
 10 11  2  0  0  0
 40 41  1  0  0  0
 41 42  1  0  0  0
 42 37  1  0  0  0
 30 25  1  0  0  0
 11  5  1  0  0  0
 24 16  1  0  0  0
 24 19  1  0  0  0
  3  4  1  0  0  0
 12 15  1  0  0  0
M  END
> <minimizedAffinity>
-8.13687

> <CNNscore>
0.1797603667

> <CNNaffinity>
6.1424951553

> <CNN_VS>
1.1041772366

> <CNNaffinity_variance>
0.2441777438

$$$$
[H]c1nc2c([H])c([H])c([H])c([H])n2c1C(=O)N([H])c1c([H])c(N([H])C(=O)c2c([H])c([H])c(C([H])([H])N3C([H])([H])C([H])([H])N(C([H])([H])[H])C([H])([H])C3([H])[H])c(C(F)(F)F)c2[H])c([H])c([H])c1C([H])([H])[H]


 42 46  0  0  0  0  0  0  0  0999 V2000
   39.3640   15.5464   -9.3974 C   0  0  0  0  0  0  0  0  0  0  0  0
   39.4416   16.2551  -10.4180 O   0  0  0  0  0  0  0  0  0  0  0  0
   38.1475   14.9977   -8.9764 N   0  0  0  0  0  0  0  0  0  0  0  0
   38.2081   14.4019   -8.0872 H   0  0  0  0  0  0  0  0  0  0  0  0
   36.9016   15.1749   -9.6170 C   0  0  0  0  0  0  0  0  0  0  0  0
   35.8782   15.9576   -9.1783 C   0  0  0  0  0  0  0  0  0  0  0  0
   34.7174   16.0744   -9.9079 C   0  0  0  0  0  0  0  0  0  0  0  0
   34.5557   15.4060  -11.0984 C   0  0  0  0  0  0  0  0  0  0  0  0
   33.3065   15.5327  -11.8810 C   0  0  0  0  0  0  0  0  0  0  0  0
   35.5768   14.5939  -11.5846 C   0  0  0  0  0  0  0  0  0  0  0  0
   36.7283   14.4949  -10.8346 C   0  0  0  0  0  0  0  0  0  0  0  0
   35.3693   13.9412  -12.7983 N   0  0  0  0  0  0  0  0  0  0  0  0
   35.4334   12.5768  -13.1150 C   0  0  0  0  0  0  0  0  0  0  0  0
   35.7081   11.7201  -12.2576 O   0  0  0  0  0  0  0  0  0  0  0  0
   35.1186   14.5625  -13.6439 H   0  0  0  0  0  0  0  0  0  0  0  0
   35.1751   12.1039  -14.4929 C   0  0  0  0  0  0  0  0  0  0  0  0
   33.9148   11.9261  -15.0240 C   0  0  0  0  0  0  0  0  0  0  0  0
   34.0631   11.4991  -16.2809 N   0  0  0  0  0  0  0  0  0  0  0  0
   35.3707   11.4037  -16.5534 C   0  0  0  0  0  0  0  0  0  0  0  0
   36.0429   11.0106  -17.7084 C   0  0  0  0  0  0  0  0  0  0  0  0
   37.4169   10.9995  -17.7335 C   0  0  0  0  0  0  0  0  0  0  0  0
   38.0794   11.3875  -16.5858 C   0  0  0  0  0  0  0  0  0  0  0  0
   37.3957   11.7733  -15.4529 C   0  0  0  0  0  0  0  0  0  0  0  0
   36.0543   11.7808  -15.4380 N   0  0  0  0  0  0  0  0  0  0  0  0
   43.0075   14.8251   -7.2269 C   0  0  0  0  0  0  0  0  0  0  0  0
   42.8517   15.9313   -8.0367 C   0  0  0  0  0  0  0  0  0  0  0  0
   41.6807   16.1951   -8.7589 C   0  0  0  0  0  0  0  0  0  0  0  0
   40.6243   15.3277   -8.6729 C   0  0  0  0  0  0  0  0  0  0  0  0
   40.7671   14.2338   -7.8763 C   0  0  0  0  0  0  0  0  0  0  0  0
   41.9331   13.9553   -7.1471 C   0  0  0  0  0  0  0  0  0  0  0  0
   42.0091   12.7518   -6.3206 C   0  0  0  0  0  0  0  0  0  0  0  0
   40.8150   12.1123   -6.0908 F   0  0  0  0  0  0  0  0  0  0  0  0
   42.9868   11.8645   -6.7549 F   0  0  0  0  0  0  0  0  0  0  0  0
   42.4480   13.1330   -5.0411 F   0  0  0  0  0  0  0  0  0  0  0  0
   44.2220   14.5877   -6.4411 C   0  0  0  0  0  0  0  0  0  0  0  0
   48.1515   14.1167   -4.1522 C   0  0  0  0  0  0  0  0  0  0  0  0
   46.8745   14.2938   -4.7515 N   0  0  0  0  0  0  0  0  0  0  0  0
   46.7228   15.4276   -5.5985 C   0  0  0  0  0  0  0  0  0  0  0  0
   46.4485   15.1490   -7.0187 C   0  0  0  0  0  0  0  0  0  0  0  0
   45.3722   14.1483   -7.1665 N   0  0  0  0  0  0  0  0  0  0  0  0
   46.0042   12.9450   -6.6171 C   0  0  0  0  0  0  0  0  0  0  0  0
   46.1782   13.1258   -5.1553 C   0  0  0  0  0  0  0  0  0  0  0  0
 36 37  1  0  0  0
 37 38  1  0  0  0
 38 39  1  0  0  0
 39 40  1  0  0  0
 40 35  1  0  0  0
 35 25  1  0  0  0
 25 26  2  0  0  0
 26 27  1  0  0  0
 27 28  2  0  0  0
 28 29  1  0  0  0
 29 30  2  0  0  0
 30 31  1  0  0  0
 31 32  1  0  0  0
 31 33  1  0  0  0
 31 34  1  0  0  0
 28  1  1  0  0  0
  1  2  2  0  0  0
  1  3  1  0  0  0
  3  5  1  0  0  0
  5  6  2  0  0  0
  6  7  1  0  0  0
  7  8  2  0  0  0
  8  9  1  0  0  0
  8 10  1  0  0  0
 10 12  1  0  0  0
 12 13  1  0  0  0
 13 14  2  0  0  0
 13 16  1  0  0  0
 16 17  2  0  0  0
 17 18  1  0  0  0
 18 19  2  0  0  0
 19 20  1  0  0  0
 20 21  2  0  0  0
 21 22  1  0  0  0
 22 23  2  0  0  0
 23 24  1  0  0  0
 10 11  2  0  0  0
 40 41  1  0  0  0
 41 42  1  0  0  0
 42 37  1  0  0  0
 30 25  1  0  0  0
 11  5  1  0  0  0
 24 16  1  0  0  0
 24 19  1  0  0  0
  3  4  1  0  0  0
 12 15  1  0  0  0
M  END
> <minimizedAffinity>
-7.74222

> <CNNscore>
0.1618655026

> <CNNaffinity>
6.0261998177

> <CNN_VS>
0.9754338861

> <CNNaffinity_variance>
0.1878430098

$$$$
[H]c1nc2c([H])c([H])c([H])c([H])n2c1C(=O)N([H])c1c([H])c(N([H])C(=O)c2c([H])c([H])c(C([H])([H])N3C([H])([H])C([H])([H])N(C([H])([H])[H])C([H])([H])C3([H])[H])c(C(F)(F)F)c2[H])c([H])c([H])c1C([H])([H])[H]


 42 46  0  0  0  0  0  0  0  0999 V2000
   39.9580   15.9792  -10.6338 C   0  0  0  0  0  0  0  0  0  0  0  0
   39.8557   16.6029  -11.7064 O   0  0  0  0  0  0  0  0  0  0  0  0
   38.9123   15.1901  -10.1418 N   0  0  0  0  0  0  0  0  0  0  0  0
   39.1207   14.6984   -9.2123 H   0  0  0  0  0  0  0  0  0  0  0  0
   37.6561   15.0125  -10.7617 C   0  0  0  0  0  0  0  0  0  0  0  0
   36.4608   15.4684  -10.2973 C   0  0  0  0  0  0  0  0  0  0  0  0
   35.3017   15.2579  -11.0083 C   0  0  0  0  0  0  0  0  0  0  0  0
   35.3149   14.5824  -12.2057 C   0  0  0  0  0  0  0  0  0  0  0  0
   34.0673   14.3568  -12.9683 C   0  0  0  0  0  0  0  0  0  0  0  0
   36.5154   14.0980  -12.7180 C   0  0  0  0  0  0  0  0  0  0  0  0
   37.6610   14.3228  -11.9862 C   0  0  0  0  0  0  0  0  0  0  0  0
   36.4800   13.4247  -13.9376 N   0  0  0  0  0  0  0  0  0  0  0  0
   37.0494   12.1994  -14.3122 C   0  0  0  0  0  0  0  0  0  0  0  0
   37.7109   11.5157  -13.5127 O   0  0  0  0  0  0  0  0  0  0  0  0
   35.9340   13.9017  -14.7367 H   0  0  0  0  0  0  0  0  0  0  0  0
   36.8825   11.6723  -15.6845 C   0  0  0  0  0  0  0  0  0  0  0  0
   35.6765   11.2599  -16.2113 C   0  0  0  0  0  0  0  0  0  0  0  0
   35.9009   10.8539  -17.4639 N   0  0  0  0  0  0  0  0  0  0  0  0
   37.2037   10.9979  -17.7379 C   0  0  0  0  0  0  0  0  0  0  0  0
   37.9368   10.7227  -18.8900 C   0  0  0  0  0  0  0  0  0  0  0  0
   39.2894   10.9645  -18.9176 C   0  0  0  0  0  0  0  0  0  0  0  0
   39.8691   11.4802  -17.7754 C   0  0  0  0  0  0  0  0  0  0  0  0
   39.1261   11.7456  -16.6453 C   0  0  0  0  0  0  0  0  0  0  0  0
   37.8062   11.5063  -16.6279 N   0  0  0  0  0  0  0  0  0  0  0  0
   43.7563   16.4064   -8.6599 C   0  0  0  0  0  0  0  0  0  0  0  0
   42.5844   16.2404   -7.9510 C   0  0  0  0  0  0  0  0  0  0  0  0
   41.3312   16.1010   -8.5614 C   0  0  0  0  0  0  0  0  0  0  0  0
   41.2388   16.1267   -9.9275 C   0  0  0  0  0  0  0  0  0  0  0  0
   42.3888   16.2892  -10.6365 C   0  0  0  0  0  0  0  0  0  0  0  0
   43.6512   16.4305  -10.0404 C   0  0  0  0  0  0  0  0  0  0  0  0
   44.8382   16.6104  -10.8746 C   0  0  0  0  0  0  0  0  0  0  0  0
   44.6146   16.6297  -12.2300 F   0  0  0  0  0  0  0  0  0  0  0  0
   45.6179   17.6882  -10.4716 F   0  0  0  0  0  0  0  0  0  0  0  0
   45.6765   15.4995  -10.6791 F   0  0  0  0  0  0  0  0  0  0  0  0
   45.0655   16.5040   -8.0077 C   0  0  0  0  0  0  0  0  0  0  0  0
   49.1774   17.1216   -6.1069 C   0  0  0  0  0  0  0  0  0  0  0  0
   47.9552   16.8471   -6.7793 N   0  0  0  0  0  0  0  0  0  0  0  0
   46.9854   16.1000   -6.0532 C   0  0  0  0  0  0  0  0  0  0  0  0
   45.7209   16.7924   -5.7509 C   0  0  0  0  0  0  0  0  0  0  0  0
   45.1795   17.4603   -6.9519 N   0  0  0  0  0  0  0  0  0  0  0  0
   46.1818   18.5028   -7.1924 C   0  0  0  0  0  0  0  0  0  0  0  0
   47.4419   17.8566   -7.6333 C   0  0  0  0  0  0  0  0  0  0  0  0
 36 37  1  0  0  0
 37 38  1  0  0  0
 38 39  1  0  0  0
 39 40  1  0  0  0
 40 35  1  0  0  0
 35 25  1  0  0  0
 25 26  2  0  0  0
 26 27  1  0  0  0
 27 28  2  0  0  0
 28 29  1  0  0  0
 29 30  2  0  0  0
 30 31  1  0  0  0
 31 32  1  0  0  0
 31 33  1  0  0  0
 31 34  1  0  0  0
 28  1  1  0  0  0
  1  2  2  0  0  0
  1  3  1  0  0  0
  3  5  1  0  0  0
  5  6  2  0  0  0
  6  7  1  0  0  0
  7  8  2  0  0  0
  8  9  1  0  0  0
  8 10  1  0  0  0
 10 12  1  0  0  0
 12 13  1  0  0  0
 13 14  2  0  0  0
 13 16  1  0  0  0
 16 17  2  0  0  0
 17 18  1  0  0  0
 18 19  2  0  0  0
 19 20  1  0  0  0
 20 21  2  0  0  0
 21 22  1  0  0  0
 22 23  2  0  0  0
 23 24  1  0  0  0
 10 11  2  0  0  0
 40 41  1  0  0  0
 41 42  1  0  0  0
 42 37  1  0  0  0
 30 25  1  0  0  0
 11  5  1  0  0  0
 24 16  1  0  0  0
 24 19  1  0  0  0
  3  4  1  0  0  0
 12 15  1  0  0  0
M  END
> <minimizedAffinity>
-8.48828

> <CNNscore>
0.1436935514

> <CNNaffinity>
6.1569929123

> <CNN_VS>
0.8847202063

> <CNNaffinity_variance>
0.1129233614

$$$$
[H]c1nc2c([H])c([H])c([H])c([H])n2c1C(=O)N([H])c1c([H])c(N([H])C(=O)c2c([H])c([H])c(C([H])([H])N3C([H])([H])C([H])([H])N(C([H])([H])[H])C([H])([H])C3([H])[H])c(C(F)(F)F)c2[H])c([H])c([H])c1C([H])([H])[H]


 42 46  0  0  0  0  0  0  0  0999 V2000
   35.6899   15.2857  -11.6163 C   0  0  0  0  0  0  0  0  0  0  0  0
   36.3162   15.9684  -12.4479 O   0  0  0  0  0  0  0  0  0  0  0  0
   35.2863   13.9757  -11.8979 N   0  0  0  0  0  0  0  0  0  0  0  0
   34.7589   13.4881  -11.1020 H   0  0  0  0  0  0  0  0  0  0  0  0
   35.5153   13.2888  -13.1102 C   0  0  0  0  0  0  0  0  0  0  0  0
   34.5621   12.7597  -13.9249 C   0  0  0  0  0  0  0  0  0  0  0  0
   34.9077   12.1357  -15.1015 C   0  0  0  0  0  0  0  0  0  0  0  0
   36.2223   12.0274  -15.4893 C   0  0  0  0  0  0  0  0  0  0  0  0
   36.5917   11.3557  -16.7547 C   0  0  0  0  0  0  0  0  0  0  0  0
   37.2303   12.5540  -14.6861 C   0  0  0  0  0  0  0  0  0  0  0  0
   36.8567   13.1737  -13.5136 C   0  0  0  0  0  0  0  0  0  0  0  0
   38.5472   12.4252  -15.1233 N   0  0  0  0  0  0  0  0  0  0  0  0
   39.5858   13.3665  -15.1579 C   0  0  0  0  0  0  0  0  0  0  0  0
   39.4234   14.5323  -14.7594 O   0  0  0  0  0  0  0  0  0  0  0  0
   38.8384   11.4569  -15.4998 H   0  0  0  0  0  0  0  0  0  0  0  0
   40.9235   13.0029  -15.6751 C   0  0  0  0  0  0  0  0  0  0  0  0
   41.1413   12.4056  -16.8989 C   0  0  0  0  0  0  0  0  0  0  0  0
   42.4586   12.2304  -17.0338 N   0  0  0  0  0  0  0  0  0  0  0  0
   43.0709   12.6968  -15.9381 C   0  0  0  0  0  0  0  0  0  0  0  0
   44.4186   12.7481  -15.5894 C   0  0  0  0  0  0  0  0  0  0  0  0
   44.7960   13.2872  -14.3829 C   0  0  0  0  0  0  0  0  0  0  0  0
   43.7976   13.7625  -13.5559 C   0  0  0  0  0  0  0  0  0  0  0  0
   42.4694   13.7025  -13.9194 C   0  0  0  0  0  0  0  0  0  0  0  0
   42.1107   13.1745  -15.0993 N   0  0  0  0  0  0  0  0  0  0  0  0
   34.9603   17.2463   -7.8573 C   0  0  0  0  0  0  0  0  0  0  0  0
   34.0368   16.3899   -8.4207 C   0  0  0  0  0  0  0  0  0  0  0  0
   34.2410   15.7375   -9.6434 C   0  0  0  0  0  0  0  0  0  0  0  0
   35.4068   15.9428  -10.3321 C   0  0  0  0  0  0  0  0  0  0  0  0
   36.3250   16.7850   -9.7850 C   0  0  0  0  0  0  0  0  0  0  0  0
   36.1355   17.4461   -8.5619 C   0  0  0  0  0  0  0  0  0  0  0  0
   37.1689   18.3430   -8.0473 C   0  0  0  0  0  0  0  0  0  0  0  0
   37.2346   18.4510   -6.6792 F   0  0  0  0  0  0  0  0  0  0  0  0
   38.4197   18.0916   -8.5990 F   0  0  0  0  0  0  0  0  0  0  0  0
   36.8672   19.6450   -8.4820 F   0  0  0  0  0  0  0  0  0  0  0  0
   34.7516   17.8849   -6.5544 C   0  0  0  0  0  0  0  0  0  0  0  0
   33.7879   21.2819   -3.6505 C   0  0  0  0  0  0  0  0  0  0  0  0
   34.2091   20.2687   -4.5544 N   0  0  0  0  0  0  0  0  0  0  0  0
   34.2540   18.9410   -4.0432 C   0  0  0  0  0  0  0  0  0  0  0  0
   33.3324   17.9724   -4.6612 C   0  0  0  0  0  0  0  0  0  0  0  0
   33.3947   18.0442   -6.1352 N   0  0  0  0  0  0  0  0  0  0  0  0
   32.8394   19.3760   -6.3941 C   0  0  0  0  0  0  0  0  0  0  0  0
   33.8019   20.3941   -5.9074 C   0  0  0  0  0  0  0  0  0  0  0  0
 36 37  1  0  0  0
 37 38  1  0  0  0
 38 39  1  0  0  0
 39 40  1  0  0  0
 40 35  1  0  0  0
 35 25  1  0  0  0
 25 26  2  0  0  0
 26 27  1  0  0  0
 27 28  2  0  0  0
 28 29  1  0  0  0
 29 30  2  0  0  0
 30 31  1  0  0  0
 31 32  1  0  0  0
 31 33  1  0  0  0
 31 34  1  0  0  0
 28  1  1  0  0  0
  1  2  2  0  0  0
  1  3  1  0  0  0
  3  5  1  0  0  0
  5  6  2  0  0  0
  6  7  1  0  0  0
  7  8  2  0  0  0
  8  9  1  0  0  0
  8 10  1  0  0  0
 10 12  1  0  0  0
 12 13  1  0  0  0
 13 14  2  0  0  0
 13 16  1  0  0  0
 16 17  2  0  0  0
 17 18  1  0  0  0
 18 19  2  0  0  0
 19 20  1  0  0  0
 20 21  2  0  0  0
 21 22  1  0  0  0
 22 23  2  0  0  0
 23 24  1  0  0  0
 10 11  2  0  0  0
 40 41  1  0  0  0
 41 42  1  0  0  0
 42 37  1  0  0  0
 30 25  1  0  0  0
 11  5  1  0  0  0
 24 16  1  0  0  0
 24 19  1  0  0  0
  3  4  1  0  0  0
 12 15  1  0  0  0
M  END
> <minimizedAffinity>
-9.09321

> <CNNscore>
0.1352561265

> <CNNaffinity>
6.5265016556

> <CNN_VS>
0.8827493191

> <CNNaffinity_variance>
0.3139128983

$$$$
[H]c1nc2c([H])c([H])c([H])c([H])n2c1C(=O)N([H])c1c([H])c(N([H])C(=O)c2c([H])c([H])c(C([H])([H])N3C([H])([H])C([H])([H])N(C([H])([H])[H])C([H])([H])C3([H])[H])c(C(F)(F)F)c2[H])c([H])c([H])c1C([H])([H])[H]


 42 46  0  0  0  0  0  0  0  0999 V2000
   39.2827   16.8914  -10.2166 C   0  0  0  0  0  0  0  0  0  0  0  0
   38.7672   16.6441  -11.3226 O   0  0  0  0  0  0  0  0  0  0  0  0
   40.6421   16.6645   -9.9740 N   0  0  0  0  0  0  0  0  0  0  0  0
   40.9700   16.9207   -8.9860 H   0  0  0  0  0  0  0  0  0  0  0  0
   41.5655   16.1394  -10.9043 C   0  0  0  0  0  0  0  0  0  0  0  0
   42.9157   16.3080  -10.8767 C   0  0  0  0  0  0  0  0  0  0  0  0
   43.7190   15.7195  -11.8264 C   0  0  0  0  0  0  0  0  0  0  0  0
   43.1844   14.9459  -12.8293 C   0  0  0  0  0  0  0  0  0  0  0  0
   44.0500   14.3144  -13.8496 C   0  0  0  0  0  0  0  0  0  0  0  0
   41.8080   14.7471  -12.8960 C   0  0  0  0  0  0  0  0  0  0  0  0
   41.0269   15.3475  -11.9328 C   0  0  0  0  0  0  0  0  0  0  0  0
   41.3130   13.9507  -13.9270 N   0  0  0  0  0  0  0  0  0  0  0  0
   40.1195   14.0517  -14.6557 C   0  0  0  0  0  0  0  0  0  0  0  0
   39.2957   14.9561  -14.4367 O   0  0  0  0  0  0  0  0  0  0  0  0
   41.9272   13.1173  -14.2307 H   0  0  0  0  0  0  0  0  0  0  0  0
   39.7946   13.0768  -15.7201 C   0  0  0  0  0  0  0  0  0  0  0  0
   40.7099   12.5991  -16.6345 C   0  0  0  0  0  0  0  0  0  0  0  0
   40.0713   11.7406  -17.4340 N   0  0  0  0  0  0  0  0  0  0  0  0
   38.7902   11.6653  -17.0517 C   0  0  0  0  0  0  0  0  0  0  0  0
   37.7233   10.9228  -17.5526 C   0  0  0  0  0  0  0  0  0  0  0  0
   36.4824   11.0246  -16.9709 C   0  0  0  0  0  0  0  0  0  0  0  0
   36.3506   11.8779  -15.8934 C   0  0  0  0  0  0  0  0  0  0  0  0
   37.4188   12.6041  -15.4127 C   0  0  0  0  0  0  0  0  0  0  0  0
   38.6265   12.4981  -15.9871 N   0  0  0  0  0  0  0  0  0  0  0  0
   36.6100   18.3762   -7.1903 C   0  0  0  0  0  0  0  0  0  0  0  0
   37.1299   19.2001   -8.1674 C   0  0  0  0  0  0  0  0  0  0  0  0
   38.0040   18.7503   -9.1653 C   0  0  0  0  0  0  0  0  0  0  0  0
   38.3753   17.4324   -9.1943 C   0  0  0  0  0  0  0  0  0  0  0  0
   37.8676   16.6109   -8.2357 C   0  0  0  0  0  0  0  0  0  0  0  0
   36.9916   17.0457   -7.2295 C   0  0  0  0  0  0  0  0  0  0  0  0
   36.4981   16.0998   -6.2301 C   0  0  0  0  0  0  0  0  0  0  0  0
   37.0089   14.8271   -6.3132 F   0  0  0  0  0  0  0  0  0  0  0  0
   36.5793   16.5977   -4.9349 F   0  0  0  0  0  0  0  0  0  0  0  0
   35.1183   15.9318   -6.4379 F   0  0  0  0  0  0  0  0  0  0  0  0
   35.6595   18.8523   -6.1809 C   0  0  0  0  0  0  0  0  0  0  0  0
   33.0272   21.4665   -3.5091 C   0  0  0  0  0  0  0  0  0  0  0  0
   33.9391   20.6679   -4.2521 N   0  0  0  0  0  0  0  0  0  0  0  0
   33.6545   19.2748   -4.3181 C   0  0  0  0  0  0  0  0  0  0  0  0
   33.3542   18.7328   -5.6544 C   0  0  0  0  0  0  0  0  0  0  0  0
   34.3502   19.1837   -6.6476 N   0  0  0  0  0  0  0  0  0  0  0  0
   34.0817   20.6236   -6.7087 C   0  0  0  0  0  0  0  0  0  0  0  0
   34.4973   21.2385   -5.4245 C   0  0  0  0  0  0  0  0  0  0  0  0
 36 37  1  0  0  0
 37 38  1  0  0  0
 38 39  1  0  0  0
 39 40  1  0  0  0
 40 35  1  0  0  0
 35 25  1  0  0  0
 25 26  2  0  0  0
 26 27  1  0  0  0
 27 28  2  0  0  0
 28 29  1  0  0  0
 29 30  2  0  0  0
 30 31  1  0  0  0
 31 32  1  0  0  0
 31 33  1  0  0  0
 31 34  1  0  0  0
 28  1  1  0  0  0
  1  2  2  0  0  0
  1  3  1  0  0  0
  3  5  1  0  0  0
  5  6  2  0  0  0
  6  7  1  0  0  0
  7  8  2  0  0  0
  8  9  1  0  0  0
  8 10  1  0  0  0
 10 12  1  0  0  0
 12 13  1  0  0  0
 13 14  2  0  0  0
 13 16  1  0  0  0
 16 17  2  0  0  0
 17 18  1  0  0  0
 18 19  2  0  0  0
 19 20  1  0  0  0
 20 21  2  0  0  0
 21 22  1  0  0  0
 22 23  2  0  0  0
 23 24  1  0  0  0
 10 11  2  0  0  0
 40 41  1  0  0  0
 41 42  1  0  0  0
 42 37  1  0  0  0
 30 25  1  0  0  0
 11  5  1  0  0  0
 24 16  1  0  0  0
 24 19  1  0  0  0
  3  4  1  0  0  0
 12 15  1  0  0  0
M  END
> <minimizedAffinity>
-8.47485

> <CNNscore>
0.1330805719

> <CNNaffinity>
6.2444415092

> <CNN_VS>
0.8310138583

> <CNNaffinity_variance>
0.2193513364

$$$$
[H]c1nc2c([H])c([H])c([H])c([H])n2c1C(=O)N([H])c1c([H])c(N([H])C(=O)c2c([H])c([H])c(C([H])([H])N3C([H])([H])C([H])([H])N(C([H])([H])[H])C([H])([H])C3([H])[H])c(C(F)(F)F)c2[H])c([H])c([H])c1C([H])([H])[H]


 42 46  0  0  0  0  0  0  0  0999 V2000
   38.9869   16.3685  -10.3420 C   0  0  0  0  0  0  0  0  0  0  0  0
   38.5830   15.1977  -10.2153 O   0  0  0  0  0  0  0  0  0  0  0  0
   39.8970   16.7260  -11.3431 N   0  0  0  0  0  0  0  0  0  0  0  0
   40.1660   17.7636  -11.3546 H   0  0  0  0  0  0  0  0  0  0  0  0
   40.4608   15.8457  -12.2924 C   0  0  0  0  0  0  0  0  0  0  0  0
   41.7868   15.5892  -12.4601 C   0  0  0  0  0  0  0  0  0  0  0  0
   42.2158   14.6843  -13.4038 C   0  0  0  0  0  0  0  0  0  0  0  0
   41.3212   14.0138  -14.2041 C   0  0  0  0  0  0  0  0  0  0  0  0
   41.7847   13.0416  -15.2185 C   0  0  0  0  0  0  0  0  0  0  0  0
   39.9553   14.2459  -14.0670 C   0  0  0  0  0  0  0  0  0  0  0  0
   39.5529   15.1565  -13.1145 C   0  0  0  0  0  0  0  0  0  0  0  0
   39.0869   13.5387  -14.8963 N   0  0  0  0  0  0  0  0  0  0  0  0
   38.2083   12.4868  -14.6006 C   0  0  0  0  0  0  0  0  0  0  0  0
   38.1004   12.0307  -13.4496 O   0  0  0  0  0  0  0  0  0  0  0  0
   39.0696   13.8274  -15.9358 H   0  0  0  0  0  0  0  0  0  0  0  0
   37.3715   11.8762  -15.6570 C   0  0  0  0  0  0  0  0  0  0  0  0
   37.8738   11.3275  -16.8183 C   0  0  0  0  0  0  0  0  0  0  0  0
   36.8394   10.8701  -17.5289 N   0  0  0  0  0  0  0  0  0  0  0  0
   35.7095   11.1137  -16.8531 C   0  0  0  0  0  0  0  0  0  0  0  0
   34.3784   10.8371  -17.1570 C   0  0  0  0  0  0  0  0  0  0  0  0
   33.3843   11.1961  -16.2787 C   0  0  0  0  0  0  0  0  0  0  0  0
   33.7621   11.8283  -15.1107 C   0  0  0  0  0  0  0  0  0  0  0  0
   35.0849   12.0931  -14.8284 C   0  0  0  0  0  0  0  0  0  0  0  0
   36.0484   11.7388  -15.6920 N   0  0  0  0  0  0  0  0  0  0  0  0
   37.4040   19.1319   -7.4498 C   0  0  0  0  0  0  0  0  0  0  0  0
   37.5875   19.4885   -8.7700 C   0  0  0  0  0  0  0  0  0  0  0  0
   38.1026   18.6151   -9.7365 C   0  0  0  0  0  0  0  0  0  0  0  0
   38.4478   17.3391   -9.3784 C   0  0  0  0  0  0  0  0  0  0  0  0
   38.2701   16.9767   -8.0789 C   0  0  0  0  0  0  0  0  0  0  0  0
   37.7559   17.8394   -7.0991 C   0  0  0  0  0  0  0  0  0  0  0  0
   37.6047   17.3744   -5.7213 C   0  0  0  0  0  0  0  0  0  0  0  0
   38.3450   18.0499   -4.7815 F   0  0  0  0  0  0  0  0  0  0  0  0
   36.2738   17.2620   -5.3368 F   0  0  0  0  0  0  0  0  0  0  0  0
   38.0845   16.0551   -5.6551 F   0  0  0  0  0  0  0  0  0  0  0  0
   36.8202   20.0428   -6.4607 C   0  0  0  0  0  0  0  0  0  0  0  0
   33.2415   21.1306   -3.8318 C   0  0  0  0  0  0  0  0  0  0  0  0
   34.3946   20.7165   -4.5531 N   0  0  0  0  0  0  0  0  0  0  0  0
   34.1711   19.8668   -5.6729 C   0  0  0  0  0  0  0  0  0  0  0  0
   34.5422   20.4121   -6.9900 C   0  0  0  0  0  0  0  0  0  0  0  0
   35.8925   21.0097   -6.9573 N   0  0  0  0  0  0  0  0  0  0  0  0
   35.6904   22.1584   -6.0692 C   0  0  0  0  0  0  0  0  0  0  0  0
   35.4460   21.6580   -4.6945 C   0  0  0  0  0  0  0  0  0  0  0  0
 36 37  1  0  0  0
 37 38  1  0  0  0
 38 39  1  0  0  0
 39 40  1  0  0  0
 40 35  1  0  0  0
 35 25  1  0  0  0
 25 26  2  0  0  0
 26 27  1  0  0  0
 27 28  2  0  0  0
 28 29  1  0  0  0
 29 30  2  0  0  0
 30 31  1  0  0  0
 31 32  1  0  0  0
 31 33  1  0  0  0
 31 34  1  0  0  0
 28  1  1  0  0  0
  1  2  2  0  0  0
  1  3  1  0  0  0
  3  5  1  0  0  0
  5  6  2  0  0  0
  6  7  1  0  0  0
  7  8  2  0  0  0
  8  9  1  0  0  0
  8 10  1  0  0  0
 10 12  1  0  0  0
 12 13  1  0  0  0
 13 14  2  0  0  0
 13 16  1  0  0  0
 16 17  2  0  0  0
 17 18  1  0  0  0
 18 19  2  0  0  0
 19 20  1  0  0  0
 20 21  2  0  0  0
 21 22  1  0  0  0
 22 23  2  0  0  0
 23 24  1  0  0  0
 10 11  2  0  0  0
 40 41  1  0  0  0
 41 42  1  0  0  0
 42 37  1  0  0  0
 30 25  1  0  0  0
 11  5  1  0  0  0
 24 16  1  0  0  0
 24 19  1  0  0  0
  3  4  1  0  0  0
 12 15  1  0  0  0
M  END
> <minimizedAffinity>
-9.27759

> <CNNscore>
0.1292229891

> <CNNaffinity>
6.2670264244

> <CNN_VS>
0.8098438978

> <CNNaffinity_variance>
0.1354453564

$$$$
[H]c1nc2c([H])c([H])c([H])c([H])n2c1C(=O)N([H])c1c([H])c(N([H])C(=O)c2c([H])c([H])c(C([H])([H])N3C([H])([H])C([H])([H])N(C([H])([H])[H])C([H])([H])C3([H])[H])c(C(F)(F)F)c2[H])c([H])c([H])c1C([H])([H])[H]


 42 46  0  0  0  0  0  0  0  0999 V2000
   34.8459   13.5228  -13.2318 C   0  0  0  0  0  0  0  0  0  0  0  0
   33.8514   12.7742  -13.2569 O   0  0  0  0  0  0  0  0  0  0  0  0
   34.8722   14.6810  -12.4469 N   0  0  0  0  0  0  0  0  0  0  0  0
   35.7845   15.2411  -12.5046 H   0  0  0  0  0  0  0  0  0  0  0  0
   33.8197   15.1399  -11.6250 C   0  0  0  0  0  0  0  0  0  0  0  0
   32.4923   15.0965  -11.9226 C   0  0  0  0  0  0  0  0  0  0  0  0
   31.5535   15.5492  -11.0242 C   0  0  0  0  0  0  0  0  0  0  0  0
   31.9259   16.0580   -9.8024 C   0  0  0  0  0  0  0  0  0  0  0  0
   30.9147   16.5445   -8.8382 C   0  0  0  0  0  0  0  0  0  0  0  0
   33.2730   16.1216   -9.4567 C   0  0  0  0  0  0  0  0  0  0  0  0
   34.1921   15.6616  -10.3743 C   0  0  0  0  0  0  0  0  0  0  0  0
   33.6017   16.6397   -8.2054 N   0  0  0  0  0  0  0  0  0  0  0  0
   34.0150   15.9870   -7.0354 C   0  0  0  0  0  0  0  0  0  0  0  0
   34.1464   14.7521   -6.9888 O   0  0  0  0  0  0  0  0  0  0  0  0
   33.5353   17.7108   -8.0938 H   0  0  0  0  0  0  0  0  0  0  0  0
   34.3111   16.7510   -5.8035 C   0  0  0  0  0  0  0  0  0  0  0  0
   33.4807   16.7929   -4.7032 C   0  0  0  0  0  0  0  0  0  0  0  0
   34.0652   17.5681   -3.7857 N   0  0  0  0  0  0  0  0  0  0  0  0
   35.2305   18.0117   -4.2738 C   0  0  0  0  0  0  0  0  0  0  0  0
   36.2042   18.8394   -3.7195 C   0  0  0  0  0  0  0  0  0  0  0  0
   37.3325   19.1506   -4.4397 C   0  0  0  0  0  0  0  0  0  0  0  0
   37.4485   18.6154   -5.7072 C   0  0  0  0  0  0  0  0  0  0  0  0
   36.4737   17.7983   -6.2379 C   0  0  0  0  0  0  0  0  0  0  0  0
   35.3757   17.5001   -5.5272 N   0  0  0  0  0  0  0  0  0  0  0  0
   38.0942   12.2550  -15.7512 C   0  0  0  0  0  0  0  0  0  0  0  0
   38.3043   13.0375  -14.6344 C   0  0  0  0  0  0  0  0  0  0  0  0
   37.2700   13.4699  -13.7944 C   0  0  0  0  0  0  0  0  0  0  0  0
   35.9782   13.1108  -14.0738 C   0  0  0  0  0  0  0  0  0  0  0  0
   35.7598   12.3383  -15.1726 C   0  0  0  0  0  0  0  0  0  0  0  0
   36.7845   11.8976  -16.0239 C   0  0  0  0  0  0  0  0  0  0  0  0
   36.4641   11.0771  -17.1906 C   0  0  0  0  0  0  0  0  0  0  0  0
   35.9775   11.7578  -18.2803 F   0  0  0  0  0  0  0  0  0  0  0  0
   37.5009   10.2221  -17.5455 F   0  0  0  0  0  0  0  0  0  0  0  0
   35.4201   10.2065  -16.8335 F   0  0  0  0  0  0  0  0  0  0  0  0
   39.1923   11.7720  -16.5937 C   0  0  0  0  0  0  0  0  0  0  0  0
   43.7258   12.1799  -17.0204 C   0  0  0  0  0  0  0  0  0  0  0  0
   42.3384   11.9613  -16.7999 N   0  0  0  0  0  0  0  0  0  0  0  0
   41.6311   12.9993  -16.1303 C   0  0  0  0  0  0  0  0  0  0  0  0
   40.5722   13.6709  -16.9031 C   0  0  0  0  0  0  0  0  0  0  0  0
   39.6944   12.6875  -17.5694 N   0  0  0  0  0  0  0  0  0  0  0  0
   40.6071   12.0836  -18.5448 C   0  0  0  0  0  0  0  0  0  0  0  0
   41.6181   11.2807  -17.8148 C   0  0  0  0  0  0  0  0  0  0  0  0
 36 37  1  0  0  0
 37 38  1  0  0  0
 38 39  1  0  0  0
 39 40  1  0  0  0
 40 35  1  0  0  0
 35 25  1  0  0  0
 25 26  2  0  0  0
 26 27  1  0  0  0
 27 28  2  0  0  0
 28 29  1  0  0  0
 29 30  2  0  0  0
 30 31  1  0  0  0
 31 32  1  0  0  0
 31 33  1  0  0  0
 31 34  1  0  0  0
 28  1  1  0  0  0
  1  2  2  0  0  0
  1  3  1  0  0  0
  3  5  1  0  0  0
  5  6  2  0  0  0
  6  7  1  0  0  0
  7  8  2  0  0  0
  8  9  1  0  0  0
  8 10  1  0  0  0
 10 12  1  0  0  0
 12 13  1  0  0  0
 13 14  2  0  0  0
 13 16  1  0  0  0
 16 17  2  0  0  0
 17 18  1  0  0  0
 18 19  2  0  0  0
 19 20  1  0  0  0
 20 21  2  0  0  0
 21 22  1  0  0  0
 22 23  2  0  0  0
 23 24  1  0  0  0
 10 11  2  0  0  0
 40 41  1  0  0  0
 41 42  1  0  0  0
 42 37  1  0  0  0
 30 25  1  0  0  0
 11  5  1  0  0  0
 24 16  1  0  0  0
 24 19  1  0  0  0
  3  4  1  0  0  0
 12 15  1  0  0  0
M  END
> <minimizedAffinity>
-8.63638

> <CNNscore>
0.1168233976

> <CNNaffinity>
6.5826773643

> <CNN_VS>
0.7690107226

> <CNNaffinity_variance>
0.2028321475

$$$$
[H]c1nc2c([H])c([H])c([H])c([H])n2c1C(=O)N([H])c1c([H])c(N([H])C(=O)c2c([H])c([H])c(C([H])([H])N3C([H])([H])C([H])([H])N(C([H])([H])[H])C([H])([H])C3([H])[H])c(C(F)(F)F)c2[H])c([H])c([H])c1C([H])([H])[H]


 42 46  0  0  0  0  0  0  0  0999 V2000
   35.7829   14.2082  -13.5898 C   0  0  0  0  0  0  0  0  0  0  0  0
   36.4549   15.0639  -14.1950 O   0  0  0  0  0  0  0  0  0  0  0  0
   35.8094   12.8589  -13.9598 N   0  0  0  0  0  0  0  0  0  0  0  0
   35.1932   12.2177  -13.3610 H   0  0  0  0  0  0  0  0  0  0  0  0
   36.5585   12.3145  -15.0257 C   0  0  0  0  0  0  0  0  0  0  0  0
   36.0522   11.7594  -16.1606 C   0  0  0  0  0  0  0  0  0  0  0  0
   36.8870   11.2870  -17.1472 C   0  0  0  0  0  0  0  0  0  0  0  0
   38.2537   11.3603  -17.0174 C   0  0  0  0  0  0  0  0  0  0  0  0
   39.1494   10.8512  -18.0793 C   0  0  0  0  0  0  0  0  0  0  0  0
   38.8149   11.9199  -15.8727 C   0  0  0  0  0  0  0  0  0  0  0  0
   37.9565   12.3854  -14.9007 C   0  0  0  0  0  0  0  0  0  0  0  0
   40.2047   11.9776  -15.7887 N   0  0  0  0  0  0  0  0  0  0  0  0
   41.0939   12.9896  -16.1775 C   0  0  0  0  0  0  0  0  0  0  0  0
   40.6935   14.0496  -16.6878 O   0  0  0  0  0  0  0  0  0  0  0  0
   40.6986   11.1193  -15.3603 H   0  0  0  0  0  0  0  0  0  0  0  0
   42.5533   12.8303  -15.9935 C   0  0  0  0  0  0  0  0  0  0  0  0
   43.3755   12.1699  -16.8822 C   0  0  0  0  0  0  0  0  0  0  0  0
   44.6199   12.2275  -16.4000 N   0  0  0  0  0  0  0  0  0  0  0  0
   44.6040   12.8999  -15.2422 C   0  0  0  0  0  0  0  0  0  0  0  0
   45.6273   13.2305  -14.3568 C   0  0  0  0  0  0  0  0  0  0  0  0
   45.3449   13.9414  -13.2151 C   0  0  0  0  0  0  0  0  0  0  0  0
   44.0300   14.3016  -12.9963 C   0  0  0  0  0  0  0  0  0  0  0  0
   43.0317   13.9648  -13.8848 C   0  0  0  0  0  0  0  0  0  0  0  0
   43.3171   13.2705  -14.9967 N   0  0  0  0  0  0  0  0  0  0  0  0
   33.3135   15.6431  -10.3728 C   0  0  0  0  0  0  0  0  0  0  0  0
   34.6823   15.8165  -10.3702 C   0  0  0  0  0  0  0  0  0  0  0  0
   35.5157   15.3599  -11.3994 C   0  0  0  0  0  0  0  0  0  0  0  0
   34.9689   14.7071  -12.4720 C   0  0  0  0  0  0  0  0  0  0  0  0
   33.6196   14.5315  -12.4850 C   0  0  0  0  0  0  0  0  0  0  0  0
   32.7714   14.9822  -11.4621 C   0  0  0  0  0  0  0  0  0  0  0  0
   31.3314   14.7448  -11.5480 C   0  0  0  0  0  0  0  0  0  0  0  0
   30.7840   14.0302  -10.5100 F   0  0  0  0  0  0  0  0  0  0  0  0
   30.6111   15.9059  -11.8026 F   0  0  0  0  0  0  0  0  0  0  0  0
   31.0914   13.9473  -12.6801 F   0  0  0  0  0  0  0  0  0  0  0  0
   32.4501   16.1679   -9.3107 C   0  0  0  0  0  0  0  0  0  0  0  0
   29.2898   16.6706   -6.0455 C   0  0  0  0  0  0  0  0  0  0  0  0
   30.1825   16.5513   -7.1455 N   0  0  0  0  0  0  0  0  0  0  0  0
   31.2291   17.5130   -7.2205 C   0  0  0  0  0  0  0  0  0  0  0  0
   32.6022   16.9941   -7.0971 C   0  0  0  0  0  0  0  0  0  0  0  0
   32.8086   15.8217   -7.9714 N   0  0  0  0  0  0  0  0  0  0  0  0
   31.9269   14.8274   -7.3524 C   0  0  0  0  0  0  0  0  0  0  0  0
   30.5191   15.2405   -7.5705 C   0  0  0  0  0  0  0  0  0  0  0  0
 36 37  1  0  0  0
 37 38  1  0  0  0
 38 39  1  0  0  0
 39 40  1  0  0  0
 40 35  1  0  0  0
 35 25  1  0  0  0
 25 26  2  0  0  0
 26 27  1  0  0  0
 27 28  2  0  0  0
 28 29  1  0  0  0
 29 30  2  0  0  0
 30 31  1  0  0  0
 31 32  1  0  0  0
 31 33  1  0  0  0
 31 34  1  0  0  0
 28  1  1  0  0  0
  1  2  2  0  0  0
  1  3  1  0  0  0
  3  5  1  0  0  0
  5  6  2  0  0  0
  6  7  1  0  0  0
  7  8  2  0  0  0
  8  9  1  0  0  0
  8 10  1  0  0  0
 10 12  1  0  0  0
 12 13  1  0  0  0
 13 14  2  0  0  0
 13 16  1  0  0  0
 16 17  2  0  0  0
 17 18  1  0  0  0
 18 19  2  0  0  0
 19 20  1  0  0  0
 20 21  2  0  0  0
 21 22  1  0  0  0
 22 23  2  0  0  0
 23 24  1  0  0  0
 10 11  2  0  0  0
 40 41  1  0  0  0
 41 42  1  0  0  0
 42 37  1  0  0  0
 30 25  1  0  0  0
 11  5  1  0  0  0
 24 16  1  0  0  0
 24 19  1  0  0  0
  3  4  1  0  0  0
 12 15  1  0  0  0
M  END
> <minimizedAffinity>
-9.44225

> <CNNscore>
0.1069822088

> <CNNaffinity>
6.3028211594

> <CNN_VS>
0.6742897034

> <CNNaffinity_variance>
0.2599099278

$$$$
[H]c1nc2c([H])c([H])c([H])c([H])n2c1C(=O)N([H])c1c([H])c(N([H])C(=O)c2c([H])c([H])c(C([H])([H])N3C([H])([H])C([H])([H])N(C([H])([H])[H])C([H])([H])C3([H])[H])c(C(F)(F)F)c2[H])c([H])c([H])c1C([H])([H])[H]


 42 46  0  0  0  0  0  0  0  0999 V2000
   38.5344   16.4917  -10.3437 C   0  0  0  0  0  0  0  0  0  0  0  0
   38.1822   15.3006  -10.2571 O   0  0  0  0  0  0  0  0  0  0  0  0
   39.5562   16.8928  -11.2115 N   0  0  0  0  0  0  0  0  0  0  0  0
   39.7662   17.9441  -11.2012 H   0  0  0  0  0  0  0  0  0  0  0  0
   40.2972   16.0390  -12.0575 C   0  0  0  0  0  0  0  0  0  0  0  0
   41.6445   15.8489  -12.0246 C   0  0  0  0  0  0  0  0  0  0  0  0
   42.2526   14.9637  -12.8848 C   0  0  0  0  0  0  0  0  0  0  0  0
   41.5207   14.2465  -13.8014 C   0  0  0  0  0  0  0  0  0  0  0  0
   42.1768   13.2956  -14.7257 C   0  0  0  0  0  0  0  0  0  0  0  0
   40.1398   14.4101  -13.8703 C   0  0  0  0  0  0  0  0  0  0  0  0
   39.5564   15.3024  -12.9976 C   0  0  0  0  0  0  0  0  0  0  0  0
   39.4398   13.6574  -14.8114 N   0  0  0  0  0  0  0  0  0  0  0  0
   38.4886   12.6429  -14.6331 C   0  0  0  0  0  0  0  0  0  0  0  0
   38.1331   12.2732  -13.5011 O   0  0  0  0  0  0  0  0  0  0  0  0
   39.6450   13.8701  -15.8491 H   0  0  0  0  0  0  0  0  0  0  0  0
   37.8691   11.9697  -15.7959 C   0  0  0  0  0  0  0  0  0  0  0  0
   36.5477   11.5780  -15.8469 C   0  0  0  0  0  0  0  0  0  0  0  0
   36.3399   11.0133  -17.0394 N   0  0  0  0  0  0  0  0  0  0  0  0
   37.4840   11.0383  -17.7346 C   0  0  0  0  0  0  0  0  0  0  0  0
   37.7928   10.5817  -19.0139 C   0  0  0  0  0  0  0  0  0  0  0  0
   39.0670   10.7293  -19.5071 C   0  0  0  0  0  0  0  0  0  0  0  0
   40.0007   11.3369  -18.6914 C   0  0  0  0  0  0  0  0  0  0  0  0
   39.6753   11.7819  -17.4282 C   0  0  0  0  0  0  0  0  0  0  0  0
   38.4287   11.6335  -16.9554 N   0  0  0  0  0  0  0  0  0  0  0  0
   36.3486   19.1818   -7.7959 C   0  0  0  0  0  0  0  0  0  0  0  0
   37.3784   19.6212   -8.6021 C   0  0  0  0  0  0  0  0  0  0  0  0
   38.1119   18.7726   -9.4412 C   0  0  0  0  0  0  0  0  0  0  0  0
   37.8108   17.4372   -9.4815 C   0  0  0  0  0  0  0  0  0  0  0  0
   36.7962   16.9933   -8.6908 C   0  0  0  0  0  0  0  0  0  0  0  0
   36.0525   17.8300   -7.8449 C   0  0  0  0  0  0  0  0  0  0  0  0
   34.9829   17.2716   -7.0194 C   0  0  0  0  0  0  0  0  0  0  0  0
   35.1845   17.3367   -5.6619 F   0  0  0  0  0  0  0  0  0  0  0  0
   33.7274   17.7529   -7.3715 F   0  0  0  0  0  0  0  0  0  0  0  0
   34.9014   15.8950   -7.2904 F   0  0  0  0  0  0  0  0  0  0  0  0
   35.5598   20.0904   -6.9584 C   0  0  0  0  0  0  0  0  0  0  0  0
   32.4771   22.9571   -5.1752 C   0  0  0  0  0  0  0  0  0  0  0  0
   33.3737   21.9704   -5.6689 N   0  0  0  0  0  0  0  0  0  0  0  0
   33.2954   21.6813   -7.0604 C   0  0  0  0  0  0  0  0  0  0  0  0
   34.4899   21.9999   -7.8612 C   0  0  0  0  0  0  0  0  0  0  0  0
   35.7156   21.4874   -7.2156 N   0  0  0  0  0  0  0  0  0  0  0  0
   35.7868   22.3154   -6.0079 C   0  0  0  0  0  0  0  0  0  0  0  0
   34.6744   21.9331   -5.1044 C   0  0  0  0  0  0  0  0  0  0  0  0
 36 37  1  0  0  0
 37 38  1  0  0  0
 38 39  1  0  0  0
 39 40  1  0  0  0
 40 35  1  0  0  0
 35 25  1  0  0  0
 25 26  2  0  0  0
 26 27  1  0  0  0
 27 28  2  0  0  0
 28 29  1  0  0  0
 29 30  2  0  0  0
 30 31  1  0  0  0
 31 32  1  0  0  0
 31 33  1  0  0  0
 31 34  1  0  0  0
 28  1  1  0  0  0
  1  2  2  0  0  0
  1  3  1  0  0  0
  3  5  1  0  0  0
  5  6  2  0  0  0
  6  7  1  0  0  0
  7  8  2  0  0  0
  8  9  1  0  0  0
  8 10  1  0  0  0
 10 12  1  0  0  0
 12 13  1  0  0  0
 13 14  2  0  0  0
 13 16  1  0  0  0
 16 17  2  0  0  0
 17 18  1  0  0  0
 18 19  2  0  0  0
 19 20  1  0  0  0
 20 21  2  0  0  0
 21 22  1  0  0  0
 22 23  2  0  0  0
 23 24  1  0  0  0
 10 11  2  0  0  0
 40 41  1  0  0  0
 41 42  1  0  0  0
 42 37  1  0  0  0
 30 25  1  0  0  0
 11  5  1  0  0  0
 24 16  1  0  0  0
 24 19  1  0  0  0
  3  4  1  0  0  0
 12 15  1  0  0  0
M  END
> <minimizedAffinity>
-9.31623

> <CNNscore>
0.0924575776

> <CNNaffinity>
5.9359016418

> <CNN_VS>
0.5488190651

> <CNNaffinity_variance>
0.1835638583

$$$$
[H]c1c([H])c([H])c(-n2nc([H])c3c(N4C([H])([H])C([H])([H])N(c5c([H])c([H])c(OC([H])([H])[H])c([H])c5[H])C([H])([H])C4([H])[H])nc(N([H])[H])nc32)c([H])c1[H]


 32 36  0  0  0  0  0  0  0  0999 V2000
   41.0683   12.7186  -16.0897 C   0  0  0  0  0  0  0  0  0  0  0  0
   41.1148   12.1159  -17.3016 N   0  0  0  0  0  0  0  0  0  0  0  0
   40.0320   11.5977  -17.8965 C   0  0  0  0  0  0  0  0  0  0  0  0
   40.0889   10.9666  -19.1689 N   0  0  0  0  0  0  0  0  0  0  0  0
   38.8430   11.6824  -17.2549 N   0  0  0  0  0  0  0  0  0  0  0  0
   38.7363   12.2696  -16.0495 C   0  0  0  0  0  0  0  0  0  0  0  0
   37.6532   12.4437  -15.2734 N   0  0  0  0  0  0  0  0  0  0  0  0
   38.0623   13.0744  -14.1877 N   0  0  0  0  0  0  0  0  0  0  0  0
   39.3950   13.3143  -14.2435 C   0  0  0  0  0  0  0  0  0  0  0  0
   39.8505   12.8014  -15.4406 C   0  0  0  0  0  0  0  0  0  0  0  0
   40.2392   11.5133  -20.0252 H   0  0  0  0  0  0  0  0  0  0  0  0
   39.9753    9.9391  -19.2179 H   0  0  0  0  0  0  0  0  0  0  0  0
   44.4288   13.3704  -13.8751 N   0  0  0  0  0  0  0  0  0  0  0  0
   44.6518   12.9762  -15.2724 C   0  0  0  0  0  0  0  0  0  0  0  0
   43.4938   13.4090  -16.1495 C   0  0  0  0  0  0  0  0  0  0  0  0
   42.2256   13.2676  -15.4639 N   0  0  0  0  0  0  0  0  0  0  0  0
   42.0925   13.6916  -14.0839 C   0  0  0  0  0  0  0  0  0  0  0  0
   43.4042   14.3340  -13.6483 C   0  0  0  0  0  0  0  0  0  0  0  0
   46.6986   11.6698  -10.7315 C   0  0  0  0  0  0  0  0  0  0  0  0
   47.2575   11.8786  -11.9614 C   0  0  0  0  0  0  0  0  0  0  0  0
   46.5224   12.4411  -13.0124 C   0  0  0  0  0  0  0  0  0  0  0  0
   45.2092   12.8049  -12.8461 C   0  0  0  0  0  0  0  0  0  0  0  0
   44.6489   12.5857  -11.5818 C   0  0  0  0  0  0  0  0  0  0  0  0
   45.3864   12.0299  -10.5543 C   0  0  0  0  0  0  0  0  0  0  0  0
   47.3479    9.7731   -9.2931 C   0  0  0  0  0  0  0  0  0  0  0  0
   47.3759   11.1167   -9.6518 O   0  0  0  0  0  0  0  0  0  0  0  0
   36.3369   12.0163  -15.5954 C   0  0  0  0  0  0  0  0  0  0  0  0
   35.2500   12.3746  -14.7959 C   0  0  0  0  0  0  0  0  0  0  0  0
   33.9732   11.9862  -15.0691 C   0  0  0  0  0  0  0  0  0  0  0  0
   33.7137   11.2110  -16.1679 C   0  0  0  0  0  0  0  0  0  0  0  0
   34.7672   10.8386  -16.9805 C   0  0  0  0  0  0  0  0  0  0  0  0
   36.0390   11.2352  -16.6937 C   0  0  0  0  0  0  0  0  0  0  0  0
 25 26  1  0  0  0
 26 19  1  0  0  0
 19 20  2  0  0  0
 20 21  1  0  0  0
 21 22  2  0  0  0
 22 23  1  0  0  0
 23 24  2  0  0  0
 22 13  1  0  0  0
 13 14  1  0  0  0
 14 15  1  0  0  0
 15 16  1  0  0  0
 16 17  1  0  0  0
 17 18  1  0  0  0
 16  1  1  0  0  0
  1  2  2  0  0  0
  2  3  1  0  0  0
  3  4  1  0  0  0
  3  5  2  0  0  0
  5  6  1  0  0  0
  6  7  1  0  0  0
  7  8  1  0  0  0
  8  9  2  0  0  0
  9 10  1  0  0  0
  7 27  1  0  0  0
 27 28  2  0  0  0
 28 29  1  0  0  0
 29 30  2  0  0  0
 30 31  1  0  0  0
 31 32  2  0  0  0
 24 19  1  0  0  0
 18 13  1  0  0  0
 10  1  1  0  0  0
 32 27  1  0  0  0
 10  6  2  0  0  0
  4 11  1  0  0  0
  4 12  1  0  0  0
M  END
> <minimizedAffinity>
-8.96466

> <CNNscore>
0.7505527735

> <CNNaffinity>
7.1840310097

> <CNN_VS>
5.3919944763

> <CNNaffinity_variance>
0.3771609366

$$$$
[H]c1c([H])c([H])c(-n2nc([H])c3c(N4C([H])([H])C([H])([H])N(c5c([H])c([H])c(OC([H])([H])[H])c([H])c5[H])C([H])([H])C4([H])[H])nc(N([H])[H])nc32)c([H])c1[H]


 32 36  0  0  0  0  0  0  0  0999 V2000
   43.1972   13.8332  -14.4515 C   0  0  0  0  0  0  0  0  0  0  0  0
   44.1379   13.3426  -15.2933 N   0  0  0  0  0  0  0  0  0  0  0  0
   43.8338   12.6228  -16.3814 C   0  0  0  0  0  0  0  0  0  0  0  0
   44.8271   12.1114  -17.2602 N   0  0  0  0  0  0  0  0  0  0  0  0
   42.5291   12.3779  -16.6468 N   0  0  0  0  0  0  0  0  0  0  0  0
   41.5516   12.8396  -15.8465 C   0  0  0  0  0  0  0  0  0  0  0  0
   40.2194   12.6973  -15.9508 N   0  0  0  0  0  0  0  0  0  0  0  0
   39.6888   13.3322  -14.9215 N   0  0  0  0  0  0  0  0  0  0  0  0
   40.6539   13.8861  -14.1478 C   0  0  0  0  0  0  0  0  0  0  0  0
   41.8668   13.5791  -14.7291 C   0  0  0  0  0  0  0  0  0  0  0  0
   45.3586   12.7350  -17.8794 H   0  0  0  0  0  0  0  0  0  0  0  0
   45.0068   11.0922  -17.2654 H   0  0  0  0  0  0  0  0  0  0  0  0
   44.0527   15.1267  -10.6810 N   0  0  0  0  0  0  0  0  0  0  0  0
   45.2120   14.8107  -11.5258 C   0  0  0  0  0  0  0  0  0  0  0  0
   44.8850   15.0101  -12.9923 C   0  0  0  0  0  0  0  0  0  0  0  0
   43.5296   14.5985  -13.2956 N   0  0  0  0  0  0  0  0  0  0  0  0
   42.4422   14.9625  -12.4085 C   0  0  0  0  0  0  0  0  0  0  0  0
   42.9984   15.8542  -11.3047 C   0  0  0  0  0  0  0  0  0  0  0  0
   44.0636   13.8950   -6.6301 C   0  0  0  0  0  0  0  0  0  0  0  0
   42.8921   14.2097   -7.2602 C   0  0  0  0  0  0  0  0  0  0  0  0
   42.8692   14.6176   -8.5998 C   0  0  0  0  0  0  0  0  0  0  0  0
   44.0260   14.7170   -9.3323 C   0  0  0  0  0  0  0  0  0  0  0  0
   45.2188   14.3919   -8.6751 C   0  0  0  0  0  0  0  0  0  0  0  0
   45.2260   13.9909   -7.3531 C   0  0  0  0  0  0  0  0  0  0  0  0
   43.4800   12.3946   -4.7604 C   0  0  0  0  0  0  0  0  0  0  0  0
   44.1500   13.4848   -5.3056 O   0  0  0  0  0  0  0  0  0  0  0  0
   39.5489   11.9914  -16.9856 C   0  0  0  0  0  0  0  0  0  0  0  0
   40.1230   11.8558  -18.2509 C   0  0  0  0  0  0  0  0  0  0  0  0
   39.5141   11.1873  -19.2698 C   0  0  0  0  0  0  0  0  0  0  0  0
   38.2861   10.6131  -19.0745 C   0  0  0  0  0  0  0  0  0  0  0  0
   37.6897   10.7288  -17.8336 C   0  0  0  0  0  0  0  0  0  0  0  0
   38.3118   11.4008  -16.8244 C   0  0  0  0  0  0  0  0  0  0  0  0
 25 26  1  0  0  0
 26 19  1  0  0  0
 19 20  2  0  0  0
 20 21  1  0  0  0
 21 22  2  0  0  0
 22 23  1  0  0  0
 23 24  2  0  0  0
 22 13  1  0  0  0
 13 14  1  0  0  0
 14 15  1  0  0  0
 15 16  1  0  0  0
 16 17  1  0  0  0
 17 18  1  0  0  0
 16  1  1  0  0  0
  1  2  2  0  0  0
  2  3  1  0  0  0
  3  4  1  0  0  0
  3  5  2  0  0  0
  5  6  1  0  0  0
  6  7  1  0  0  0
  7  8  1  0  0  0
  8  9  2  0  0  0
  9 10  1  0  0  0
  7 27  1  0  0  0
 27 28  2  0  0  0
 28 29  1  0  0  0
 29 30  2  0  0  0
 30 31  1  0  0  0
 31 32  2  0  0  0
 24 19  1  0  0  0
 18 13  1  0  0  0
 10  1  1  0  0  0
 32 27  1  0  0  0
 10  6  2  0  0  0
  4 11  1  0  0  0
  4 12  1  0  0  0
M  END
> <minimizedAffinity>
-7.89086

> <CNNscore>
0.2648909390

> <CNNaffinity>
5.9427428246

> <CNN_VS>
1.5741786957

> <CNNaffinity_variance>
0.1103729978

$$$$
[H]c1c([H])c([H])c(-n2nc([H])c3c(N4C([H])([H])C([H])([H])N(c5c([H])c([H])c(OC([H])([H])[H])c([H])c5[H])C([H])([H])C4([H])[H])nc(N([H])[H])nc32)c([H])c1[H]


 32 36  0  0  0  0  0  0  0  0999 V2000
   40.5130   13.7511  -14.4921 C   0  0  0  0  0  0  0  0  0  0  0  0
   40.9971   13.3806  -15.7014 N   0  0  0  0  0  0  0  0  0  0  0  0
   40.2456   12.7727  -16.6289 C   0  0  0  0  0  0  0  0  0  0  0  0
   40.7612   12.3869  -17.8961 N   0  0  0  0  0  0  0  0  0  0  0  0
   38.9473   12.5200  -16.3405 N   0  0  0  0  0  0  0  0  0  0  0  0
   38.4116   12.8651  -15.1559 C   0  0  0  0  0  0  0  0  0  0  0  0
   37.1589   12.6964  -14.6997 N   0  0  0  0  0  0  0  0  0  0  0  0
   37.1284   13.2022  -13.4801 N   0  0  0  0  0  0  0  0  0  0  0  0
   38.3414   13.6979  -13.1340 C   0  0  0  0  0  0  0  0  0  0  0  0
   39.1861   13.4898  -14.2047 C   0  0  0  0  0  0  0  0  0  0  0  0
   40.9911   13.0882  -18.6103 H   0  0  0  0  0  0  0  0  0  0  0  0
   40.9019   11.3798  -18.0881 H   0  0  0  0  0  0  0  0  0  0  0  0
   43.2416   16.0327  -12.4995 N   0  0  0  0  0  0  0  0  0  0  0  0
   41.8954   16.6077  -12.6202 C   0  0  0  0  0  0  0  0  0  0  0  0
   40.8472   15.5177  -12.7227 C   0  0  0  0  0  0  0  0  0  0  0  0
   41.3199   14.3979  -13.5108 N   0  0  0  0  0  0  0  0  0  0  0  0
   42.6637   13.8884  -13.3195 C   0  0  0  0  0  0  0  0  0  0  0  0
   43.3081   14.6491  -12.1667 C   0  0  0  0  0  0  0  0  0  0  0  0
   46.6007   18.5299  -13.1377 C   0  0  0  0  0  0  0  0  0  0  0  0
   46.7612   17.2384  -12.7196 C   0  0  0  0  0  0  0  0  0  0  0  0
   45.6620   16.3977  -12.5046 C   0  0  0  0  0  0  0  0  0  0  0  0
   44.3784   16.8406  -12.7064 C   0  0  0  0  0  0  0  0  0  0  0  0
   44.2279   18.1652  -13.1344 C   0  0  0  0  0  0  0  0  0  0  0  0
   45.3218   18.9830  -13.3424 C   0  0  0  0  0  0  0  0  0  0  0  0
   48.3833   20.0576  -12.3782 C   0  0  0  0  0  0  0  0  0  0  0  0
   47.6505   19.4104  -13.3676 O   0  0  0  0  0  0  0  0  0  0  0  0
   36.0987   12.0859  -15.4222 C   0  0  0  0  0  0  0  0  0  0  0  0
   34.7857   12.1368  -14.9506 C   0  0  0  0  0  0  0  0  0  0  0  0
   33.7412   11.5652  -15.6123 C   0  0  0  0  0  0  0  0  0  0  0  0
   33.9573   10.9056  -16.7930 C   0  0  0  0  0  0  0  0  0  0  0  0
   35.2454   10.8366  -17.2879 C   0  0  0  0  0  0  0  0  0  0  0  0
   36.2798   11.4136  -16.6141 C   0  0  0  0  0  0  0  0  0  0  0  0
 25 26  1  0  0  0
 26 19  1  0  0  0
 19 20  2  0  0  0
 20 21  1  0  0  0
 21 22  2  0  0  0
 22 23  1  0  0  0
 23 24  2  0  0  0
 22 13  1  0  0  0
 13 14  1  0  0  0
 14 15  1  0  0  0
 15 16  1  0  0  0
 16 17  1  0  0  0
 17 18  1  0  0  0
 16  1  1  0  0  0
  1  2  2  0  0  0
  2  3  1  0  0  0
  3  4  1  0  0  0
  3  5  2  0  0  0
  5  6  1  0  0  0
  6  7  1  0  0  0
  7  8  1  0  0  0
  8  9  2  0  0  0
  9 10  1  0  0  0
  7 27  1  0  0  0
 27 28  2  0  0  0
 28 29  1  0  0  0
 29 30  2  0  0  0
 30 31  1  0  0  0
 31 32  2  0  0  0
 24 19  1  0  0  0
 18 13  1  0  0  0
 10  1  1  0  0  0
 32 27  1  0  0  0
 10  6  2  0  0  0
  4 11  1  0  0  0
  4 12  1  0  0  0
M  END
> <minimizedAffinity>
-8.98874

> <CNNscore>
0.2080202997

> <CNNaffinity>
6.3896369934

> <CNN_VS>
1.3291741610

> <CNNaffinity_variance>
0.1953355819

$$$$
[H]c1c([H])c([H])c(-n2nc([H])c3c(N4C([H])([H])C([H])([H])N(c5c([H])c([H])c(OC([H])([H])[H])c([H])c5[H])C([H])([H])C4([H])[H])nc(N([H])[H])nc32)c([H])c1[H]


 32 36  0  0  0  0  0  0  0  0999 V2000
   43.0209   13.8161  -14.2153 C   0  0  0  0  0  0  0  0  0  0  0  0
   44.0200   13.4286  -15.0435 N   0  0  0  0  0  0  0  0  0  0  0  0
   43.7988   12.7717  -16.1899 C   0  0  0  0  0  0  0  0  0  0  0  0
   44.8529   12.3685  -17.0540 N   0  0  0  0  0  0  0  0  0  0  0  0
   42.5204   12.4852  -16.5308 N   0  0  0  0  0  0  0  0  0  0  0  0
   41.4878   12.8450  -15.7475 C   0  0  0  0  0  0  0  0  0  0  0  0
   40.1699   12.6484  -15.9222 N   0  0  0  0  0  0  0  0  0  0  0  0
   39.5650   13.1859  -14.8786 N   0  0  0  0  0  0  0  0  0  0  0  0
   40.4675   13.7298  -14.0262 C   0  0  0  0  0  0  0  0  0  0  0  0
   41.7179   13.5200  -14.5701 C   0  0  0  0  0  0  0  0  0  0  0  0
   45.3789   13.0571  -17.6052 H   0  0  0  0  0  0  0  0  0  0  0  0
   45.0829   11.3615  -17.1185 H   0  0  0  0  0  0  0  0  0  0  0  0
   42.7803   15.5050  -10.5124 N   0  0  0  0  0  0  0  0  0  0  0  0
   43.4340   14.1910  -10.5733 C   0  0  0  0  0  0  0  0  0  0  0  0
   44.0748   13.9663  -11.9284 C   0  0  0  0  0  0  0  0  0  0  0  0
   43.2653   14.5150  -12.9970 N   0  0  0  0  0  0  0  0  0  0  0  0
   42.6635   15.8263  -12.8550 C   0  0  0  0  0  0  0  0  0  0  0  0
   43.1312   16.4312  -11.5365 C   0  0  0  0  0  0  0  0  0  0  0  0
   40.1014   16.3771   -7.3517 C   0  0  0  0  0  0  0  0  0  0  0  0
   39.6536   16.2837   -8.6398 C   0  0  0  0  0  0  0  0  0  0  0  0
   40.5248   15.9949   -9.6975 C   0  0  0  0  0  0  0  0  0  0  0  0
   41.8652   15.7941   -9.4796 C   0  0  0  0  0  0  0  0  0  0  0  0
   42.3109   15.8925   -8.1559 C   0  0  0  0  0  0  0  0  0  0  0  0
   41.4396   16.1782   -7.1225 C   0  0  0  0  0  0  0  0  0  0  0  0
   39.6885   17.3445   -5.1197 C   0  0  0  0  0  0  0  0  0  0  0  0
   39.2870   16.6604   -6.2624 O   0  0  0  0  0  0  0  0  0  0  0  0
   39.5802   11.9846  -17.0314 C   0  0  0  0  0  0  0  0  0  0  0  0
   38.3442   11.3466  -16.9122 C   0  0  0  0  0  0  0  0  0  0  0  0
   37.7445   10.6995  -17.9501 C   0  0  0  0  0  0  0  0  0  0  0  0
   38.3560   10.6560  -19.1748 C   0  0  0  0  0  0  0  0  0  0  0  0
   39.5806   11.2776  -19.3271 C   0  0  0  0  0  0  0  0  0  0  0  0
   40.1675   11.9209  -18.2789 C   0  0  0  0  0  0  0  0  0  0  0  0
 25 26  1  0  0  0
 26 19  1  0  0  0
 19 20  2  0  0  0
 20 21  1  0  0  0
 21 22  2  0  0  0
 22 23  1  0  0  0
 23 24  2  0  0  0
 22 13  1  0  0  0
 13 14  1  0  0  0
 14 15  1  0  0  0
 15 16  1  0  0  0
 16 17  1  0  0  0
 17 18  1  0  0  0
 16  1  1  0  0  0
  1  2  2  0  0  0
  2  3  1  0  0  0
  3  4  1  0  0  0
  3  5  2  0  0  0
  5  6  1  0  0  0
  6  7  1  0  0  0
  7  8  1  0  0  0
  8  9  2  0  0  0
  9 10  1  0  0  0
  7 27  1  0  0  0
 27 28  2  0  0  0
 28 29  1  0  0  0
 29 30  2  0  0  0
 30 31  1  0  0  0
 31 32  2  0  0  0
 24 19  1  0  0  0
 18 13  1  0  0  0
 10  1  1  0  0  0
 32 27  1  0  0  0
 10  6  2  0  0  0
  4 11  1  0  0  0
  4 12  1  0  0  0
M  END
> <minimizedAffinity>
-8.16188

> <CNNscore>
0.1700775921

> <CNNaffinity>
5.7441358566

> <CNN_VS>
0.9769487977

> <CNNaffinity_variance>
0.1617999375

$$$$
[H]c1c([H])c([H])c(-n2nc([H])c3c(N4C([H])([H])C([H])([H])N(c5c([H])c([H])c(OC([H])([H])[H])c([H])c5[H])C([H])([H])C4([H])[H])nc(N([H])[H])nc32)c([H])c1[H]


 32 36  0  0  0  0  0  0  0  0999 V2000
   38.2210   12.9680  -14.9792 C   0  0  0  0  0  0  0  0  0  0  0  0
   38.0516   12.1626  -16.0547 N   0  0  0  0  0  0  0  0  0  0  0  0
   39.0741   11.7214  -16.7993 C   0  0  0  0  0  0  0  0  0  0  0  0
   38.8880   10.8761  -17.9269 N   0  0  0  0  0  0  0  0  0  0  0  0
   40.3284   12.0994  -16.4583 N   0  0  0  0  0  0  0  0  0  0  0  0
   40.5575   12.8980  -15.4005 C   0  0  0  0  0  0  0  0  0  0  0  0
   41.7196   13.3700  -14.9182 N   0  0  0  0  0  0  0  0  0  0  0  0
   41.4206   14.1102  -13.8662 N   0  0  0  0  0  0  0  0  0  0  0  0
   40.0820   14.1283  -13.6549 C   0  0  0  0  0  0  0  0  0  0  0  0
   39.5049   13.3499  -14.6370 C   0  0  0  0  0  0  0  0  0  0  0  0
   38.6094    9.8942  -17.8127 H   0  0  0  0  0  0  0  0  0  0  0  0
   39.0394   11.2700  -18.8718 H   0  0  0  0  0  0  0  0  0  0  0  0
   35.8286   14.5367  -12.0744 N   0  0  0  0  0  0  0  0  0  0  0  0
   36.1973   15.4531  -13.1615 C   0  0  0  0  0  0  0  0  0  0  0  0
   36.4592   14.6929  -14.4464 C   0  0  0  0  0  0  0  0  0  0  0  0
   37.1271   13.4329  -14.1920 N   0  0  0  0  0  0  0  0  0  0  0  0
   36.6909   12.5849  -13.1000 C   0  0  0  0  0  0  0  0  0  0  0  0
   35.4594   13.2163  -12.4616 C   0  0  0  0  0  0  0  0  0  0  0  0
   35.8072   15.9016   -8.0665 C   0  0  0  0  0  0  0  0  0  0  0  0
   36.8504   15.1591   -8.5448 C   0  0  0  0  0  0  0  0  0  0  0  0
   36.8752   14.7003   -9.8677 C   0  0  0  0  0  0  0  0  0  0  0  0
   35.8495   14.9800  -10.7362 C   0  0  0  0  0  0  0  0  0  0  0  0
   34.7872   15.7411  -10.2338 C   0  0  0  0  0  0  0  0  0  0  0  0
   34.7765   16.1870   -8.9262 C   0  0  0  0  0  0  0  0  0  0  0  0
   36.7161   17.1193   -6.1225 C   0  0  0  0  0  0  0  0  0  0  0  0
   35.7261   16.3842   -6.7662 O   0  0  0  0  0  0  0  0  0  0  0  0
   43.0033   13.1009  -15.4644 C   0  0  0  0  0  0  0  0  0  0  0  0
   44.1479   13.7035  -14.9391 C   0  0  0  0  0  0  0  0  0  0  0  0
   45.3962   13.4727  -15.4329 C   0  0  0  0  0  0  0  0  0  0  0  0
   45.5674   12.6179  -16.4893 C   0  0  0  0  0  0  0  0  0  0  0  0
   44.4550   12.0046  -17.0330 C   0  0  0  0  0  0  0  0  0  0  0  0
   43.2127   12.2460  -16.5276 C   0  0  0  0  0  0  0  0  0  0  0  0
 25 26  1  0  0  0
 26 19  1  0  0  0
 19 20  2  0  0  0
 20 21  1  0  0  0
 21 22  2  0  0  0
 22 23  1  0  0  0
 23 24  2  0  0  0
 22 13  1  0  0  0
 13 14  1  0  0  0
 14 15  1  0  0  0
 15 16  1  0  0  0
 16 17  1  0  0  0
 17 18  1  0  0  0
 16  1  1  0  0  0
  1  2  2  0  0  0
  2  3  1  0  0  0
  3  4  1  0  0  0
  3  5  2  0  0  0
  5  6  1  0  0  0
  6  7  1  0  0  0
  7  8  1  0  0  0
  8  9  2  0  0  0
  9 10  1  0  0  0
  7 27  1  0  0  0
 27 28  2  0  0  0
 28 29  1  0  0  0
 29 30  2  0  0  0
 30 31  1  0  0  0
 31 32  2  0  0  0
 24 19  1  0  0  0
 18 13  1  0  0  0
 10  1  1  0  0  0
 32 27  1  0  0  0
 10  6  2  0  0  0
  4 11  1  0  0  0
  4 12  1  0  0  0
M  END
> <minimizedAffinity>
-7.98519

> <CNNscore>
0.1614243984

> <CNNaffinity>
6.4412069321

> <CNN_VS>
1.0397679806

> <CNNaffinity_variance>
0.4074477553

$$$$
[H]c1c([H])c([H])c(-n2nc([H])c3c(N4C([H])([H])C([H])([H])N(c5c([H])c([H])c(OC([H])([H])[H])c([H])c5[H])C([H])([H])C4([H])[H])nc(N([H])[H])nc32)c([H])c1[H]


 32 36  0  0  0  0  0  0  0  0999 V2000
   40.7630   13.8341  -14.4798 C   0  0  0  0  0  0  0  0  0  0  0  0
   41.2649   13.3066  -15.6217 N   0  0  0  0  0  0  0  0  0  0  0  0
   40.5179   12.6118  -16.4899 C   0  0  0  0  0  0  0  0  0  0  0  0
   41.0522   12.0612  -17.6865 N   0  0  0  0  0  0  0  0  0  0  0  0
   39.2058   12.4317  -16.2096 N   0  0  0  0  0  0  0  0  0  0  0  0
   38.6522   12.9325  -15.0906 C   0  0  0  0  0  0  0  0  0  0  0  0
   37.3841   12.8549  -14.6526 N   0  0  0  0  0  0  0  0  0  0  0  0
   37.3394   13.5053  -13.5041 N   0  0  0  0  0  0  0  0  0  0  0  0
   38.5582   14.0057  -13.1864 C   0  0  0  0  0  0  0  0  0  0  0  0
   39.4221   13.6462  -14.2002 C   0  0  0  0  0  0  0  0  0  0  0  0
   41.3210   12.6642  -18.4732 H   0  0  0  0  0  0  0  0  0  0  0  0
   41.1665   11.0348  -17.7518 H   0  0  0  0  0  0  0  0  0  0  0  0
   42.4108   15.5608  -11.1745 N   0  0  0  0  0  0  0  0  0  0  0  0
   43.0339   14.3065  -11.6171 C   0  0  0  0  0  0  0  0  0  0  0  0
   42.8632   14.1136  -13.1108 C   0  0  0  0  0  0  0  0  0  0  0  0
   41.5651   14.5725  -13.5613 N   0  0  0  0  0  0  0  0  0  0  0  0
   41.0293   15.8300  -13.0781 C   0  0  0  0  0  0  0  0  0  0  0  0
   42.0805   16.4955  -12.1977 C   0  0  0  0  0  0  0  0  0  0  0  0
   41.7824   16.2744   -7.0486 C   0  0  0  0  0  0  0  0  0  0  0  0
   40.7502   15.8799   -7.8533 C   0  0  0  0  0  0  0  0  0  0  0  0
   40.9397   15.6381   -9.2196 C   0  0  0  0  0  0  0  0  0  0  0  0
   42.1729   15.7887   -9.8036 C   0  0  0  0  0  0  0  0  0  0  0  0
   43.2214   16.1932   -8.9685 C   0  0  0  0  0  0  0  0  0  0  0  0
   43.0195   16.4281   -7.6221 C   0  0  0  0  0  0  0  0  0  0  0  0
   40.7324   15.9236   -4.8436 C   0  0  0  0  0  0  0  0  0  0  0  0
   41.6566   16.5290   -5.6886 O   0  0  0  0  0  0  0  0  0  0  0  0
   36.3236   12.1908  -15.3258 C   0  0  0  0  0  0  0  0  0  0  0  0
   35.0189   12.2366  -14.8311 C   0  0  0  0  0  0  0  0  0  0  0  0
   33.9745   11.6144  -15.4456 C   0  0  0  0  0  0  0  0  0  0  0  0
   34.1822   10.9062  -16.5993 C   0  0  0  0  0  0  0  0  0  0  0  0
   35.4620   10.8408  -17.1159 C   0  0  0  0  0  0  0  0  0  0  0  0
   36.4964   11.4687  -16.4894 C   0  0  0  0  0  0  0  0  0  0  0  0
 25 26  1  0  0  0
 26 19  1  0  0  0
 19 20  2  0  0  0
 20 21  1  0  0  0
 21 22  2  0  0  0
 22 23  1  0  0  0
 23 24  2  0  0  0
 22 13  1  0  0  0
 13 14  1  0  0  0
 14 15  1  0  0  0
 15 16  1  0  0  0
 16 17  1  0  0  0
 17 18  1  0  0  0
 16  1  1  0  0  0
  1  2  2  0  0  0
  2  3  1  0  0  0
  3  4  1  0  0  0
  3  5  2  0  0  0
  5  6  1  0  0  0
  6  7  1  0  0  0
  7  8  1  0  0  0
  8  9  2  0  0  0
  9 10  1  0  0  0
  7 27  1  0  0  0
 27 28  2  0  0  0
 28 29  1  0  0  0
 29 30  2  0  0  0
 30 31  1  0  0  0
 31 32  2  0  0  0
 24 19  1  0  0  0
 18 13  1  0  0  0
 10  1  1  0  0  0
 32 27  1  0  0  0
 10  6  2  0  0  0
  4 11  1  0  0  0
  4 12  1  0  0  0
M  END
> <minimizedAffinity>
-8.45429

> <CNNscore>
0.1384383440

> <CNNaffinity>
6.2459211349

> <CNN_VS>
0.8646749854

> <CNNaffinity_variance>
0.1275238246

$$$$
[H]c1c([H])c([H])c(-n2nc([H])c3c(N4C([H])([H])C([H])([H])N(c5c([H])c([H])c(OC([H])([H])[H])c([H])c5[H])C([H])([H])C4([H])[H])nc(N([H])[H])nc32)c([H])c1[H]


 32 36  0  0  0  0  0  0  0  0999 V2000
   44.7539   14.3427  -13.7721 C   0  0  0  0  0  0  0  0  0  0  0  0
   45.5829   13.8579  -14.7270 N   0  0  0  0  0  0  0  0  0  0  0  0
   45.1422   13.1786  -15.7942 C   0  0  0  0  0  0  0  0  0  0  0  0
   46.0189   12.6729  -16.7924 N   0  0  0  0  0  0  0  0  0  0  0  0
   43.8105   12.9703  -15.9192 N   0  0  0  0  0  0  0  0  0  0  0  0
   42.9394   13.4283  -15.0023 C   0  0  0  0  0  0  0  0  0  0  0  0
   41.6008   13.3183  -14.9612 N   0  0  0  0  0  0  0  0  0  0  0  0
   41.2036   13.9327  -13.8617 N   0  0  0  0  0  0  0  0  0  0  0  0
   42.2621   14.4415  -13.1853 C   0  0  0  0  0  0  0  0  0  0  0  0
   43.3950   14.1261  -13.9066 C   0  0  0  0  0  0  0  0  0  0  0  0
   46.4938   13.3036  -17.4492 H   0  0  0  0  0  0  0  0  0  0  0  0
   46.1714   11.6507  -16.8462 H   0  0  0  0  0  0  0  0  0  0  0  0
   45.2168   16.1546  -10.1493 N   0  0  0  0  0  0  0  0  0  0  0  0
   45.7887   14.8067  -10.2666 C   0  0  0  0  0  0  0  0  0  0  0  0
   46.1821   14.5071  -11.6994 C   0  0  0  0  0  0  0  0  0  0  0  0
   45.2314   15.0647  -12.6395 N   0  0  0  0  0  0  0  0  0  0  0  0
   44.7240   16.4097  -12.4508 C   0  0  0  0  0  0  0  0  0  0  0  0
   45.4339   17.0291  -11.2528 C   0  0  0  0  0  0  0  0  0  0  0  0
   43.0049   17.2025   -6.6944 C   0  0  0  0  0  0  0  0  0  0  0  0
   44.2594   17.7057   -6.8986 C   0  0  0  0  0  0  0  0  0  0  0  0
   45.0050   17.3712   -8.0360 C   0  0  0  0  0  0  0  0  0  0  0  0
   44.5023   16.5229   -8.9911 C   0  0  0  0  0  0  0  0  0  0  0  0
   43.2166   16.0145   -8.7699 C   0  0  0  0  0  0  0  0  0  0  0  0
   42.4927   16.3535   -7.6430 C   0  0  0  0  0  0  0  0  0  0  0  0
   42.0204   18.7697   -5.0628 C   0  0  0  0  0  0  0  0  0  0  0  0
   42.2180   17.4970   -5.5880 O   0  0  0  0  0  0  0  0  0  0  0  0
   40.8023   12.6591  -15.9342 C   0  0  0  0  0  0  0  0  0  0  0  0
   41.3324   12.3008  -17.1750 C   0  0  0  0  0  0  0  0  0  0  0  0
   40.6016   11.6681  -18.1348 C   0  0  0  0  0  0  0  0  0  0  0  0
   39.2883   11.3572  -17.9016 C   0  0  0  0  0  0  0  0  0  0  0  0
   38.7324   11.6980  -16.6835 C   0  0  0  0  0  0  0  0  0  0  0  0
   39.4767   12.3308  -15.7335 C   0  0  0  0  0  0  0  0  0  0  0  0
 25 26  1  0  0  0
 26 19  1  0  0  0
 19 20  2  0  0  0
 20 21  1  0  0  0
 21 22  2  0  0  0
 22 23  1  0  0  0
 23 24  2  0  0  0
 22 13  1  0  0  0
 13 14  1  0  0  0
 14 15  1  0  0  0
 15 16  1  0  0  0
 16 17  1  0  0  0
 17 18  1  0  0  0
 16  1  1  0  0  0
  1  2  2  0  0  0
  2  3  1  0  0  0
  3  4  1  0  0  0
  3  5  2  0  0  0
  5  6  1  0  0  0
  6  7  1  0  0  0
  7  8  1  0  0  0
  8  9  2  0  0  0
  9 10  1  0  0  0
  7 27  1  0  0  0
 27 28  2  0  0  0
 28 29  1  0  0  0
 29 30  2  0  0  0
 30 31  1  0  0  0
 31 32  2  0  0  0
 24 19  1  0  0  0
 18 13  1  0  0  0
 10  1  1  0  0  0
 32 27  1  0  0  0
 10  6  2  0  0  0
  4 11  1  0  0  0
  4 12  1  0  0  0
M  END
> <minimizedAffinity>
-7.36146

> <CNNscore>
0.0994070396

> <CNNaffinity>
5.2984323502

> <CNN_VS>
0.5267014503

> <CNNaffinity_variance>
0.1299676150

$$$$
[H]c1c([H])c([H])c(-n2nc([H])c3c(N4C([H])([H])C([H])([H])N(c5c([H])c([H])c(OC([H])([H])[H])c([H])c5[H])C([H])([H])C4([H])[H])nc(N([H])[H])nc32)c([H])c1[H]


 32 36  0  0  0  0  0  0  0  0999 V2000
   37.3664   12.6699  -15.3596 C   0  0  0  0  0  0  0  0  0  0  0  0
   37.5979   11.8162  -16.3851 N   0  0  0  0  0  0  0  0  0  0  0  0
   38.8305   11.5169  -16.8162 C   0  0  0  0  0  0  0  0  0  0  0  0
   39.0653   10.6196  -17.8934 N   0  0  0  0  0  0  0  0  0  0  0  0
   39.8865   12.0950  -16.1973 N   0  0  0  0  0  0  0  0  0  0  0  0
   39.7175   12.9507  -15.1733 C   0  0  0  0  0  0  0  0  0  0  0  0
   40.6355   13.6114  -14.4477 N   0  0  0  0  0  0  0  0  0  0  0  0
   39.9719   14.3274  -13.5583 N   0  0  0  0  0  0  0  0  0  0  0  0
   38.6358   14.1440  -13.6926 C   0  0  0  0  0  0  0  0  0  0  0  0
   38.4498   13.2564  -14.7323 C   0  0  0  0  0  0  0  0  0  0  0  0
   38.9091    9.6103  -17.7858 H   0  0  0  0  0  0  0  0  0  0  0  0
   39.3988   11.0038  -18.7946 H   0  0  0  0  0  0  0  0  0  0  0  0
   34.1092   14.0729  -13.3485 N   0  0  0  0  0  0  0  0  0  0  0  0
   34.5302   14.8639  -14.5124 C   0  0  0  0  0  0  0  0  0  0  0  0
   35.2251   13.9913  -15.5386 C   0  0  0  0  0  0  0  0  0  0  0  0
   36.0512   12.9828  -14.9071 N   0  0  0  0  0  0  0  0  0  0  0  0
   35.5512   12.2422  -13.7654 C   0  0  0  0  0  0  0  0  0  0  0  0
   34.1063   12.6581  -13.5162 C   0  0  0  0  0  0  0  0  0  0  0  0
   32.8950   15.9884   -9.7732 C   0  0  0  0  0  0  0  0  0  0  0  0
   34.2212   15.8426  -10.0706 C   0  0  0  0  0  0  0  0  0  0  0  0
   34.6412   15.2130  -11.2489 C   0  0  0  0  0  0  0  0  0  0  0  0
   33.7339   14.7173  -12.1521 C   0  0  0  0  0  0  0  0  0  0  0  0
   32.3790   14.8730  -11.8355 C   0  0  0  0  0  0  0  0  0  0  0  0
   31.9794   15.4965  -10.6691 C   0  0  0  0  0  0  0  0  0  0  0  0
   31.3243   16.1701   -7.8789 C   0  0  0  0  0  0  0  0  0  0  0  0
   32.4177   16.6027   -8.6221 O   0  0  0  0  0  0  0  0  0  0  0  0
   42.0417   13.5285  -14.6333 C   0  0  0  0  0  0  0  0  0  0  0  0
   42.5845   13.2299  -15.8844 C   0  0  0  0  0  0  0  0  0  0  0  0
   43.9258   13.1412  -16.1048 C   0  0  0  0  0  0  0  0  0  0  0  0
   44.8041   13.3487  -15.0746 C   0  0  0  0  0  0  0  0  0  0  0  0
   44.2999   13.6463  -13.8231 C   0  0  0  0  0  0  0  0  0  0  0  0
   42.9553   13.7315  -13.6187 C   0  0  0  0  0  0  0  0  0  0  0  0
 25 26  1  0  0  0
 26 19  1  0  0  0
 19 20  2  0  0  0
 20 21  1  0  0  0
 21 22  2  0  0  0
 22 23  1  0  0  0
 23 24  2  0  0  0
 22 13  1  0  0  0
 13 14  1  0  0  0
 14 15  1  0  0  0
 15 16  1  0  0  0
 16 17  1  0  0  0
 17 18  1  0  0  0
 16  1  1  0  0  0
  1  2  2  0  0  0
  2  3  1  0  0  0
  3  4  1  0  0  0
  3  5  2  0  0  0
  5  6  1  0  0  0
  6  7  1  0  0  0
  7  8  1  0  0  0
  8  9  2  0  0  0
  9 10  1  0  0  0
  7 27  1  0  0  0
 27 28  2  0  0  0
 28 29  1  0  0  0
 29 30  2  0  0  0
 30 31  1  0  0  0
 31 32  2  0  0  0
 24 19  1  0  0  0
 18 13  1  0  0  0
 10  1  1  0  0  0
 32 27  1  0  0  0
 10  6  2  0  0  0
  4 11  1  0  0  0
  4 12  1  0  0  0
M  END
> <minimizedAffinity>
-7.13092

> <CNNscore>
0.0940168053

> <CNNaffinity>
6.5776925087

> <CNN_VS>
0.6184136271

> <CNNaffinity_variance>
0.4287773967

$$$$
[H]c1c([H])c([H])c(-n2nc([H])c3c(N4C([H])([H])C([H])([H])N(c5c([H])c([H])c(OC([H])([H])[H])c([H])c5[H])C([H])([H])C4([H])[H])nc(N([H])[H])nc32)c([H])c1[H]


 32 36  0  0  0  0  0  0  0  0999 V2000
   42.3799   14.3587  -13.8588 C   0  0  0  0  0  0  0  0  0  0  0  0
   43.2996   13.7987  -14.6801 N   0  0  0  0  0  0  0  0  0  0  0  0
   42.9699   12.9796  -15.6876 C   0  0  0  0  0  0  0  0  0  0  0  0
   43.9414   12.3957  -16.5455 N   0  0  0  0  0  0  0  0  0  0  0  0
   41.6603   12.7029  -15.8895 N   0  0  0  0  0  0  0  0  0  0  0  0
   40.7027   13.2301  -15.1057 C   0  0  0  0  0  0  0  0  0  0  0  0
   39.3694   13.0702  -15.1558 N   0  0  0  0  0  0  0  0  0  0  0  0
   38.8638   13.7939  -14.1736 N   0  0  0  0  0  0  0  0  0  0  0  0
   39.8464   14.4230  -13.4839 C   0  0  0  0  0  0  0  0  0  0  0  0
   41.0443   14.0715  -14.0711 C   0  0  0  0  0  0  0  0  0  0  0  0
   44.4484   12.9630  -17.2353 H   0  0  0  0  0  0  0  0  0  0  0  0
   44.1302   11.3816  -16.4624 H   0  0  0  0  0  0  0  0  0  0  0  0
   44.3294   16.4591  -10.9589 N   0  0  0  0  0  0  0  0  0  0  0  0
   44.1601   17.1510  -12.2435 C   0  0  0  0  0  0  0  0  0  0  0  0
   42.9246   16.6550  -12.9680 C   0  0  0  0  0  0  0  0  0  0  0  0
   42.7394   15.2295  -12.7888 N   0  0  0  0  0  0  0  0  0  0  0  0
   42.9194   14.6304  -11.4809 C   0  0  0  0  0  0  0  0  0  0  0  0
   43.1973   15.7419  -10.4757 C   0  0  0  0  0  0  0  0  0  0  0  0
   48.0241   16.5776   -8.8944 C   0  0  0  0  0  0  0  0  0  0  0  0
   47.4627   17.7230   -9.3857 C   0  0  0  0  0  0  0  0  0  0  0  0
   46.2409   17.7030  -10.0699 C   0  0  0  0  0  0  0  0  0  0  0  0
   45.5593   16.5289  -10.2732 C   0  0  0  0  0  0  0  0  0  0  0  0
   46.1452   15.3631   -9.7651 C   0  0  0  0  0  0  0  0  0  0  0  0
   47.3512   15.3981   -9.0921 C   0  0  0  0  0  0  0  0  0  0  0  0
   49.3674   16.5707   -6.8248 C   0  0  0  0  0  0  0  0  0  0  0  0
   49.2316   16.5339   -8.2086 O   0  0  0  0  0  0  0  0  0  0  0  0
   38.6750   12.2675  -16.1003 C   0  0  0  0  0  0  0  0  0  0  0  0
   37.3010   12.0489  -15.9845 C   0  0  0  0  0  0  0  0  0  0  0  0
   36.5980   11.2866  -16.8679 C   0  0  0  0  0  0  0  0  0  0  0  0
   37.2390   10.6968  -17.9248 C   0  0  0  0  0  0  0  0  0  0  0  0
   38.5990   10.8930  -18.0688 C   0  0  0  0  0  0  0  0  0  0  0  0
   39.2882   11.6584  -17.1765 C   0  0  0  0  0  0  0  0  0  0  0  0
 25 26  1  0  0  0
 26 19  1  0  0  0
 19 20  2  0  0  0
 20 21  1  0  0  0
 21 22  2  0  0  0
 22 23  1  0  0  0
 23 24  2  0  0  0
 22 13  1  0  0  0
 13 14  1  0  0  0
 14 15  1  0  0  0
 15 16  1  0  0  0
 16 17  1  0  0  0
 17 18  1  0  0  0
 16  1  1  0  0  0
  1  2  2  0  0  0
  2  3  1  0  0  0
  3  4  1  0  0  0
  3  5  2  0  0  0
  5  6  1  0  0  0
  6  7  1  0  0  0
  7  8  1  0  0  0
  8  9  2  0  0  0
  9 10  1  0  0  0
  7 27  1  0  0  0
 27 28  2  0  0  0
 28 29  1  0  0  0
 29 30  2  0  0  0
 30 31  1  0  0  0
 31 32  2  0  0  0
 24 19  1  0  0  0
 18 13  1  0  0  0
 10  1  1  0  0  0
 32 27  1  0  0  0
 10  6  2  0  0  0
  4 11  1  0  0  0
  4 12  1  0  0  0
M  END
> <minimizedAffinity>
-7.02793

> <CNNscore>
0.0836931467

> <CNNaffinity>
5.5550317764

> <CNN_VS>
0.4649180770

> <CNNaffinity_variance>
0.1103773490

$$$$
[H]c1c([H])c([H])c(C([H])([H])[C@@]([H])(C(=O)N([H])[H])N([H])C(=O)[C@@]([H])(N([H])C(=O)[C@@]([H])(N([H])C(=O)C([H])([H])N([H])C(=O)[C@@]2([H])N(C(=O)[C@@]([H])(N([H])[H])C([H])([H])c3c([H])n([H])c4c([H])c([H])c([H])c([H])c34)C([H])([H])C([H])([H])C2([H])[H])C([H])([H])c2c([H])n([H])c3c([H])c([H])c([H])c([H])c23)C([H])([H])C([H])(C([H])([H])[H])C([H])([H])[H])c([H])c1[H]


 69 74  0  0  0  0  0  0  0  0999 V2000
   39.5112   14.0152  -13.9760 C   0  0  0  0  0  0  0  0  0  0  0  0
   40.8254   14.0130  -13.3439 N   0  0  0  0  0  0  0  0  0  0  0  0
   41.4448   15.2052  -12.9766 C   0  0  0  0  0  0  0  0  0  0  0  0
   40.8020   16.2890  -13.2227 O   0  0  0  0  0  0  0  0  0  0  0  0
   41.3139   13.0999  -13.1610 H   0  0  0  0  0  0  0  0  0  0  0  0
   42.7539   15.3070  -12.3385 C   0  0  0  0  0  0  0  0  0  0  0  0
   42.7290   15.5464  -10.9515 N   0  0  0  0  0  0  0  0  0  0  0  0
   43.8577   15.0850  -10.1708 C   0  0  0  0  0  0  0  0  0  0  0  0
   44.7847   14.5193  -10.7593 O   0  0  0  0  0  0  0  0  0  0  0  0
   41.9783   16.0199  -10.4522 H   0  0  0  0  0  0  0  0  0  0  0  0
   43.8657   15.3066   -8.6772 C   0  0  0  0  0  0  0  0  0  0  0  0
   43.6733   16.7710   -8.4288 C   0  0  0  0  0  0  0  0  0  0  0  0
   44.9201   17.2036   -7.7159 C   0  0  0  0  0  0  0  0  0  0  0  0
   45.9175   16.1108   -7.9316 C   0  0  0  0  0  0  0  0  0  0  0  0
   45.0670   14.9086   -8.0564 N   0  0  0  0  0  0  0  0  0  0  0  0
   45.5135   13.6533   -7.6369 C   0  0  0  0  0  0  0  0  0  0  0  0
   46.6706   13.6720   -7.0362 O   0  0  0  0  0  0  0  0  0  0  0  0
   44.9356   12.3312   -7.7460 C   0  0  0  0  0  0  0  0  0  0  0  0
   45.1376   11.7560   -9.0847 N   0  0  0  0  0  0  0  0  0  0  0  0
   45.9551   11.0763   -9.0055 H   0  0  0  0  0  0  0  0  0  0  0  0
   44.3159   11.1525   -9.3321 H   0  0  0  0  0  0  0  0  0  0  0  0
   45.3483   11.3062   -6.7406 C   0  0  0  0  0  0  0  0  0  0  0  0
   44.7522   11.3413   -5.4045 C   0  0  0  0  0  0  0  0  0  0  0  0
   44.8737   12.3711   -4.4544 C   0  0  0  0  0  0  0  0  0  0  0  0
   44.2056   12.0393   -3.3329 N   0  0  0  0  0  0  0  0  0  0  0  0
   43.6468   10.8306   -3.5027 C   0  0  0  0  0  0  0  0  0  0  0  0
   42.8449   10.0440   -2.6754 C   0  0  0  0  0  0  0  0  0  0  0  0
   42.3654    8.8300   -3.0938 C   0  0  0  0  0  0  0  0  0  0  0  0
   42.6728    8.3676   -4.3485 C   0  0  0  0  0  0  0  0  0  0  0  0
   43.4605    9.1441   -5.1524 C   0  0  0  0  0  0  0  0  0  0  0  0
   43.9654   10.3701   -4.7747 C   0  0  0  0  0  0  0  0  0  0  0  0
   44.1622   12.6584   -2.4975 H   0  0  0  0  0  0  0  0  0  0  0  0
   38.5538   14.7725  -11.7501 N   0  0  0  0  0  0  0  0  0  0  0  0
   38.5351   14.7675  -13.1497 C   0  0  0  0  0  0  0  0  0  0  0  0
   37.6659   15.4221  -13.7706 O   0  0  0  0  0  0  0  0  0  0  0  0
   39.3274   14.1849  -11.3056 H   0  0  0  0  0  0  0  0  0  0  0  0
   37.6507   15.4698  -10.9008 C   0  0  0  0  0  0  0  0  0  0  0  0
   36.3058   14.9065  -11.0112 C   0  0  0  0  0  0  0  0  0  0  0  0
   35.9647   14.0649  -10.1017 O   0  0  0  0  0  0  0  0  0  0  0  0
   35.3703   15.2107  -12.0214 N   0  0  0  0  0  0  0  0  0  0  0  0
   35.5625   15.8606  -12.8062 H   0  0  0  0  0  0  0  0  0  0  0  0
   34.0529   14.5855  -11.9872 C   0  0  0  0  0  0  0  0  0  0  0  0
   33.9543   13.7489  -13.2507 C   0  0  0  0  0  0  0  0  0  0  0  0
   33.4053   14.2923  -14.4271 N   0  0  0  0  0  0  0  0  0  0  0  0
   34.3588   12.5586  -13.2709 O   0  0  0  0  0  0  0  0  0  0  0  0
   33.7316   15.2069  -14.7800 H   0  0  0  0  0  0  0  0  0  0  0  0
   32.6738   13.7800  -14.9422 H   0  0  0  0  0  0  0  0  0  0  0  0
   32.9367   15.5947  -12.0445 C   0  0  0  0  0  0  0  0  0  0  0  0
   31.8965   15.4135  -11.0195 C   0  0  0  0  0  0  0  0  0  0  0  0
   32.0567   15.9140   -9.7582 C   0  0  0  0  0  0  0  0  0  0  0  0
   31.0691   15.7294   -8.8124 C   0  0  0  0  0  0  0  0  0  0  0  0
   29.9269   15.0386   -9.1469 C   0  0  0  0  0  0  0  0  0  0  0  0
   29.7371   14.5215  -10.4114 C   0  0  0  0  0  0  0  0  0  0  0  0
   30.7500   14.7238  -11.3490 C   0  0  0  0  0  0  0  0  0  0  0  0
   37.7530   16.9383  -10.7673 C   0  0  0  0  0  0  0  0  0  0  0  0
   39.2507   16.6146   -8.7120 C   0  0  0  0  0  0  0  0  0  0  0  0
   38.4356   17.5006   -9.5865 C   0  0  0  0  0  0  0  0  0  0  0  0
   37.4897   18.2891   -8.6807 C   0  0  0  0  0  0  0  0  0  0  0  0
   39.0881   12.7123  -14.4936 C   0  0  0  0  0  0  0  0  0  0  0  0
   39.6322   12.5339  -15.8773 C   0  0  0  0  0  0  0  0  0  0  0  0
   40.8457   13.0405  -16.3490 C   0  0  0  0  0  0  0  0  0  0  0  0
   40.9747   12.6566  -17.6323 N   0  0  0  0  0  0  0  0  0  0  0  0
   39.9245   11.9278  -18.0449 C   0  0  0  0  0  0  0  0  0  0  0  0
   39.6446   11.3437  -19.2534 C   0  0  0  0  0  0  0  0  0  0  0  0
   38.4531   10.6472  -19.3513 C   0  0  0  0  0  0  0  0  0  0  0  0
   37.6046   10.5568  -18.2776 C   0  0  0  0  0  0  0  0  0  0  0  0
   37.8939   11.1452  -17.0703 C   0  0  0  0  0  0  0  0  0  0  0  0
   39.0752   11.8481  -16.9376 C   0  0  0  0  0  0  0  0  0  0  0  0
   41.7929   12.8797  -18.2733 H   0  0  0  0  0  0  0  0  0  0  0  0
 56 57  1  0  0  0
 57 58  1  0  0  0
 57 55  1  0  0  0
 55 37  1  0  0  0
 37 33  1  0  0  0
 33 34  1  0  0  0
 34 35  2  0  0  0
 34  1  1  0  0  0
  1 59  1  0  0  0
 59 60  1  0  0  0
 60 61  2  0  0  0
 61 62  1  0  0  0
 62 63  1  0  0  0
 63 64  2  0  0  0
 64 65  1  0  0  0
 65 66  2  0  0  0
 66 67  1  0  0  0
 67 68  2  0  0  0
  1  2  1  0  0  0
  2  3  1  0  0  0
  3  4  2  0  0  0
  3  6  1  0  0  0
  6  7  1  0  0  0
  7  8  1  0  0  0
  8  9  2  0  0  0
  8 11  1  0  0  0
 11 12  1  0  0  0
 12 13  1  0  0  0
 13 14  1  0  0  0
 14 15  1  0  0  0
 15 16  1  0  0  0
 16 17  2  0  0  0
 16 18  1  0  0  0
 18 19  1  0  0  0
 18 22  1  0  0  0
 22 23  1  0  0  0
 23 24  2  0  0  0
 24 25  1  0  0  0
 25 26  1  0  0  0
 26 27  2  0  0  0
 27 28  1  0  0  0
 28 29  2  0  0  0
 29 30  1  0  0  0
 30 31  2  0  0  0
 37 38  1  0  0  0
 38 39  2  0  0  0
 38 40  1  0  0  0
 40 42  1  0  0  0
 42 48  1  0  0  0
 48 49  1  0  0  0
 49 50  2  0  0  0
 50 51  1  0  0  0
 51 52  2  0  0  0
 52 53  1  0  0  0
 53 54  2  0  0  0
 42 43  1  0  0  0
 43 44  1  0  0  0
 43 45  2  0  0  0
 68 60  1  0  0  0
 15 11  1  0  0  0
 31 23  1  0  0  0
 54 49  1  0  0  0
 68 63  1  0  0  0
 31 26  1  0  0  0
 33 36  1  0  0  0
 62 69  1  0  0  0
  2  5  1  0  0  0
  7 10  1  0  0  0
 19 20  1  0  0  0
 19 21  1  0  0  0
 25 32  1  0  0  0
 40 41  1  0  0  0
 44 46  1  0  0  0
 44 47  1  0  0  0
M  END
> <minimizedAffinity>
-9.87750

> <CNNscore>
0.4298878014

> <CNNaffinity>
7.6482057571

> <CNN_VS>
3.2878704071

> <CNNaffinity_variance>
0.5521671772

$$$$
[H]c1c([H])c([H])c(C([H])([H])[C@@]([H])(C(=O)N([H])[H])N([H])C(=O)[C@@]([H])(N([H])C(=O)[C@@]([H])(N([H])C(=O)C([H])([H])N([H])C(=O)[C@@]2([H])N(C(=O)[C@@]([H])(N([H])[H])C([H])([H])c3c([H])n([H])c4c([H])c([H])c([H])c([H])c34)C([H])([H])C([H])([H])C2([H])[H])C([H])([H])c2c([H])n([H])c3c([H])c([H])c([H])c([H])c23)C([H])([H])C([H])(C([H])([H])[H])C([H])([H])[H])c([H])c1[H]


 69 74  0  0  0  0  0  0  0  0999 V2000
   41.1718   14.6754  -13.3416 C   0  0  0  0  0  0  0  0  0  0  0  0
   41.9241   15.0785  -12.1591 N   0  0  0  0  0  0  0  0  0  0  0  0
   42.6449   16.2702  -12.1414 C   0  0  0  0  0  0  0  0  0  0  0  0
   42.6091   16.9820  -13.2095 O   0  0  0  0  0  0  0  0  0  0  0  0
   41.9233   14.4632  -11.3064 H   0  0  0  0  0  0  0  0  0  0  0  0
   43.4250   16.7605  -11.0091 C   0  0  0  0  0  0  0  0  0  0  0  0
   43.0555   16.2396   -9.7547 N   0  0  0  0  0  0  0  0  0  0  0  0
   44.0930   15.6294   -8.9498 C   0  0  0  0  0  0  0  0  0  0  0  0
   45.2444   15.6082   -9.3965 O   0  0  0  0  0  0  0  0  0  0  0  0
   42.1140   16.2579   -9.3670 H   0  0  0  0  0  0  0  0  0  0  0  0
   43.7385   15.0436   -7.6040 C   0  0  0  0  0  0  0  0  0  0  0  0
   45.0158   14.7049   -6.8993 C   0  0  0  0  0  0  0  0  0  0  0  0
   44.9545   13.2206   -6.6916 C   0  0  0  0  0  0  0  0  0  0  0  0
   43.8811   12.7215   -7.6051 C   0  0  0  0  0  0  0  0  0  0  0  0
   42.9581   13.8727   -7.6886 N   0  0  0  0  0  0  0  0  0  0  0  0
   41.5843   13.6940   -7.8669 C   0  0  0  0  0  0  0  0  0  0  0  0
   41.1997   12.4486   -7.8336 O   0  0  0  0  0  0  0  0  0  0  0  0
   40.5038   14.6312   -8.0857 C   0  0  0  0  0  0  0  0  0  0  0  0
   40.3924   15.0148   -9.5014 N   0  0  0  0  0  0  0  0  0  0  0  0
   39.5922   14.4420   -9.9115 H   0  0  0  0  0  0  0  0  0  0  0  0
   40.0659   16.0095   -9.5681 H   0  0  0  0  0  0  0  0  0  0  0  0
   39.1418   14.2472   -7.6072 C   0  0  0  0  0  0  0  0  0  0  0  0
   38.7797   14.5049   -6.2128 C   0  0  0  0  0  0  0  0  0  0  0  0
   39.5723   15.1398   -5.2400 C   0  0  0  0  0  0  0  0  0  0  0  0
   38.9130   15.1763   -4.0660 N   0  0  0  0  0  0  0  0  0  0  0  0
   37.7154   14.5905   -4.2230 C   0  0  0  0  0  0  0  0  0  0  0  0
   36.6511   14.3831   -3.3453 C   0  0  0  0  0  0  0  0  0  0  0  0
   35.4969   13.7697   -3.7581 C   0  0  0  0  0  0  0  0  0  0  0  0
   35.3731   13.3466   -5.0573 C   0  0  0  0  0  0  0  0  0  0  0  0
   36.4214   13.5524   -5.9106 C   0  0  0  0  0  0  0  0  0  0  0  0
   37.6005   14.1637   -5.5406 C   0  0  0  0  0  0  0  0  0  0  0  0
   39.3147   15.6027   -3.2058 H   0  0  0  0  0  0  0  0  0  0  0  0
   38.9706   14.5432  -12.0838 N   0  0  0  0  0  0  0  0  0  0  0  0
   39.7301   14.9835  -13.1740 C   0  0  0  0  0  0  0  0  0  0  0  0
   39.1998   15.6775  -14.0722 O   0  0  0  0  0  0  0  0  0  0  0  0
   39.5037   13.9554  -11.3685 H   0  0  0  0  0  0  0  0  0  0  0  0
   37.5896   14.8024  -11.8631 C   0  0  0  0  0  0  0  0  0  0  0  0
   36.7698   14.0525  -12.8138 C   0  0  0  0  0  0  0  0  0  0  0  0
   36.3397   12.9085  -12.4161 O   0  0  0  0  0  0  0  0  0  0  0  0
   36.4207   14.4808  -14.1111 N   0  0  0  0  0  0  0  0  0  0  0  0
   36.7370   15.3773  -14.5252 H   0  0  0  0  0  0  0  0  0  0  0  0
   35.5726   13.6316  -14.9401 C   0  0  0  0  0  0  0  0  0  0  0  0
   34.1791   13.7232  -14.3437 C   0  0  0  0  0  0  0  0  0  0  0  0
   33.8189   14.8151  -13.5322 N   0  0  0  0  0  0  0  0  0  0  0  0
   33.3227   12.8287  -14.5615 O   0  0  0  0  0  0  0  0  0  0  0  0
   33.9987   15.7817  -13.8496 H   0  0  0  0  0  0  0  0  0  0  0  0
   33.3741   14.6552  -12.6159 H   0  0  0  0  0  0  0  0  0  0  0  0
   35.9778   12.1825  -14.8804 C   0  0  0  0  0  0  0  0  0  0  0  0
   37.0236   11.8008  -15.8429 C   0  0  0  0  0  0  0  0  0  0  0  0
   38.3354   12.1080  -15.6152 C   0  0  0  0  0  0  0  0  0  0  0  0
   39.2986   11.7427  -16.5332 C   0  0  0  0  0  0  0  0  0  0  0  0
   38.9296   11.0707  -17.6761 C   0  0  0  0  0  0  0  0  0  0  0  0
   37.6138   10.7474  -17.9334 C   0  0  0  0  0  0  0  0  0  0  0  0
   36.6603   11.1267  -16.9884 C   0  0  0  0  0  0  0  0  0  0  0  0
   37.1434   16.1710  -11.5276 C   0  0  0  0  0  0  0  0  0  0  0  0
   37.4747   17.2066   -9.2060 C   0  0  0  0  0  0  0  0  0  0  0  0
   36.6366   16.4422  -10.1689 C   0  0  0  0  0  0  0  0  0  0  0  0
   36.1623   15.1765   -9.4548 C   0  0  0  0  0  0  0  0  0  0  0  0
   41.5185   13.3481  -13.8542 C   0  0  0  0  0  0  0  0  0  0  0  0
   42.7945   13.4408  -14.6325 C   0  0  0  0  0  0  0  0  0  0  0  0
   42.8969   13.6331  -16.0125 C   0  0  0  0  0  0  0  0  0  0  0  0
   44.2062   13.6688  -16.3215 N   0  0  0  0  0  0  0  0  0  0  0  0
   44.9814   13.5117  -15.2358 C   0  0  0  0  0  0  0  0  0  0  0  0
   46.3445   13.4834  -15.0911 C   0  0  0  0  0  0  0  0  0  0  0  0
   46.8346   13.3014  -13.8101 C   0  0  0  0  0  0  0  0  0  0  0  0
   45.9799   13.1579  -12.7472 C   0  0  0  0  0  0  0  0  0  0  0  0
   44.6151   13.1882  -12.9020 C   0  0  0  0  0  0  0  0  0  0  0  0
   44.0918   13.3683  -14.1672 C   0  0  0  0  0  0  0  0  0  0  0  0
   44.6168   13.8054  -17.2926 H   0  0  0  0  0  0  0  0  0  0  0  0
 56 57  1  0  0  0
 57 58  1  0  0  0
 57 55  1  0  0  0
 55 37  1  0  0  0
 37 33  1  0  0  0
 33 34  1  0  0  0
 34 35  2  0  0  0
 34  1  1  0  0  0
  1 59  1  0  0  0
 59 60  1  0  0  0
 60 61  2  0  0  0
 61 62  1  0  0  0
 62 63  1  0  0  0
 63 64  2  0  0  0
 64 65  1  0  0  0
 65 66  2  0  0  0
 66 67  1  0  0  0
 67 68  2  0  0  0
  1  2  1  0  0  0
  2  3  1  0  0  0
  3  4  2  0  0  0
  3  6  1  0  0  0
  6  7  1  0  0  0
  7  8  1  0  0  0
  8  9  2  0  0  0
  8 11  1  0  0  0
 11 12  1  0  0  0
 12 13  1  0  0  0
 13 14  1  0  0  0
 14 15  1  0  0  0
 15 16  1  0  0  0
 16 17  2  0  0  0
 16 18  1  0  0  0
 18 19  1  0  0  0
 18 22  1  0  0  0
 22 23  1  0  0  0
 23 24  2  0  0  0
 24 25  1  0  0  0
 25 26  1  0  0  0
 26 27  2  0  0  0
 27 28  1  0  0  0
 28 29  2  0  0  0
 29 30  1  0  0  0
 30 31  2  0  0  0
 37 38  1  0  0  0
 38 39  2  0  0  0
 38 40  1  0  0  0
 40 42  1  0  0  0
 42 48  1  0  0  0
 48 49  1  0  0  0
 49 50  2  0  0  0
 50 51  1  0  0  0
 51 52  2  0  0  0
 52 53  1  0  0  0
 53 54  2  0  0  0
 42 43  1  0  0  0
 43 44  1  0  0  0
 43 45  2  0  0  0
 68 60  1  0  0  0
 15 11  1  0  0  0
 31 23  1  0  0  0
 54 49  1  0  0  0
 68 63  1  0  0  0
 31 26  1  0  0  0
 33 36  1  0  0  0
 62 69  1  0  0  0
  2  5  1  0  0  0
  7 10  1  0  0  0
 19 20  1  0  0  0
 19 21  1  0  0  0
 25 32  1  0  0  0
 40 41  1  0  0  0
 44 46  1  0  0  0
 44 47  1  0  0  0
M  END
> <minimizedAffinity>
-9.19702

> <CNNscore>
0.3216742277

> <CNNaffinity>
7.8864555359

> <CNN_VS>
2.5368695259

> <CNNaffinity_variance>
0.7813783288

$$$$
[H]c1c([H])c([H])c(C([H])([H])[C@@]([H])(C(=O)N([H])[H])N([H])C(=O)[C@@]([H])(N([H])C(=O)[C@@]([H])(N([H])C(=O)C([H])([H])N([H])C(=O)[C@@]2([H])N(C(=O)[C@@]([H])(N([H])[H])C([H])([H])c3c([H])n([H])c4c([H])c([H])c([H])c([H])c34)C([H])([H])C([H])([H])C2([H])[H])C([H])([H])c2c([H])n([H])c3c([H])c([H])c([H])c([H])c23)C([H])([H])C([H])(C([H])([H])[H])C([H])([H])[H])c([H])c1[H]


 69 74  0  0  0  0  0  0  0  0999 V2000
   38.8859   16.5918   -9.7409 C   0  0  0  0  0  0  0  0  0  0  0  0
   38.6417   17.7197   -8.8492 N   0  0  0  0  0  0  0  0  0  0  0  0
   38.0656   18.8955   -9.3240 C   0  0  0  0  0  0  0  0  0  0  0  0
   37.7667   18.9284  -10.5722 O   0  0  0  0  0  0  0  0  0  0  0  0
   38.9024   17.6463   -7.8332 H   0  0  0  0  0  0  0  0  0  0  0  0
   37.7800   20.0752   -8.5129 C   0  0  0  0  0  0  0  0  0  0  0  0
   36.4392   20.5037   -8.5272 N   0  0  0  0  0  0  0  0  0  0  0  0
   35.9239   21.1349   -7.3304 C   0  0  0  0  0  0  0  0  0  0  0  0
   36.6855   21.2756   -6.3682 O   0  0  0  0  0  0  0  0  0  0  0  0
   35.8010   20.4049   -9.3147 H   0  0  0  0  0  0  0  0  0  0  0  0
   34.4864   21.5958   -7.2960 C   0  0  0  0  0  0  0  0  0  0  0  0
   34.4396   22.9951   -7.8280 C   0  0  0  0  0  0  0  0  0  0  0  0
   33.9164   23.8186   -6.6886 C   0  0  0  0  0  0  0  0  0  0  0  0
   34.0602   22.9688   -5.4668 C   0  0  0  0  0  0  0  0  0  0  0  0
   33.9275   21.5975   -6.0019 N   0  0  0  0  0  0  0  0  0  0  0  0
   33.3709   20.5683   -5.2391 C   0  0  0  0  0  0  0  0  0  0  0  0
   32.8891   20.9557   -4.0912 O   0  0  0  0  0  0  0  0  0  0  0  0
   33.2302   19.1484   -5.4801 C   0  0  0  0  0  0  0  0  0  0  0  0
   34.5034   18.4349   -5.2962 N   0  0  0  0  0  0  0  0  0  0  0  0
   34.4632   17.9811   -4.3323 H   0  0  0  0  0  0  0  0  0  0  0  0
   34.5505   17.6284   -5.9655 H   0  0  0  0  0  0  0  0  0  0  0  0
   32.1790   18.4134   -4.7145 C   0  0  0  0  0  0  0  0  0  0  0  0
   31.2687   17.5216   -5.4343 C   0  0  0  0  0  0  0  0  0  0  0  0
   30.0002   17.8472   -5.9468 C   0  0  0  0  0  0  0  0  0  0  0  0
   29.4494   16.7632   -6.5261 N   0  0  0  0  0  0  0  0  0  0  0  0
   30.3027   15.7327   -6.4172 C   0  0  0  0  0  0  0  0  0  0  0  0
   30.2369   14.4105   -6.8572 C   0  0  0  0  0  0  0  0  0  0  0  0
   31.2705   13.5363   -6.6425 C   0  0  0  0  0  0  0  0  0  0  0  0
   32.3977   13.9570   -5.9832 C   0  0  0  0  0  0  0  0  0  0  0  0
   32.4536   15.2540   -5.5540 C   0  0  0  0  0  0  0  0  0  0  0  0
   31.4395   16.1680   -5.7466 C   0  0  0  0  0  0  0  0  0  0  0  0
   28.5091   16.7777   -6.9720 H   0  0  0  0  0  0  0  0  0  0  0  0
   36.6938   15.9640  -10.8568 N   0  0  0  0  0  0  0  0  0  0  0  0
   37.6670   15.7561   -9.8725 C   0  0  0  0  0  0  0  0  0  0  0  0
   37.5370   14.8248   -9.0447 O   0  0  0  0  0  0  0  0  0  0  0  0
   36.8853   16.7816  -11.5172 H   0  0  0  0  0  0  0  0  0  0  0  0
   35.5064   15.2022  -11.0378 C   0  0  0  0  0  0  0  0  0  0  0  0
   35.6554   14.2820  -12.1644 C   0  0  0  0  0  0  0  0  0  0  0  0
   35.8783   13.0513  -11.8687 O   0  0  0  0  0  0  0  0  0  0  0  0
   35.5745   14.6351  -13.5272 N   0  0  0  0  0  0  0  0  0  0  0  0
   35.4183   15.6041  -13.8617 H   0  0  0  0  0  0  0  0  0  0  0  0
   35.7207   13.5994  -14.5438 C   0  0  0  0  0  0  0  0  0  0  0  0
   34.3671   12.9185  -14.6445 C   0  0  0  0  0  0  0  0  0  0  0  0
   33.1825   13.6467  -14.4277 N   0  0  0  0  0  0  0  0  0  0  0  0
   34.2779   11.6954  -14.9218 O   0  0  0  0  0  0  0  0  0  0  0  0
   33.0266   14.5447  -14.9143 H   0  0  0  0  0  0  0  0  0  0  0  0
   32.4644   13.2873  -13.7811 H   0  0  0  0  0  0  0  0  0  0  0  0
   36.7132   12.5394  -14.1449 C   0  0  0  0  0  0  0  0  0  0  0  0
   37.9348   12.5072  -14.9649 C   0  0  0  0  0  0  0  0  0  0  0  0
   38.0017   11.7468  -16.0981 C   0  0  0  0  0  0  0  0  0  0  0  0
   39.1587   11.7297  -16.8498 C   0  0  0  0  0  0  0  0  0  0  0  0
   40.2410   12.4799  -16.4504 C   0  0  0  0  0  0  0  0  0  0  0  0
   40.2034   13.2565  -15.3113 C   0  0  0  0  0  0  0  0  0  0  0  0
   39.0213   13.2573  -14.5706 C   0  0  0  0  0  0  0  0  0  0  0  0
   34.1870   15.8469  -10.8694 C   0  0  0  0  0  0  0  0  0  0  0  0
   32.0648   16.1107   -9.4557 C   0  0  0  0  0  0  0  0  0  0  0  0
   33.5000   15.7347   -9.5687 C   0  0  0  0  0  0  0  0  0  0  0  0
   34.2483   16.4515   -8.4448 C   0  0  0  0  0  0  0  0  0  0  0  0
   40.1527   15.8969   -9.5022 C   0  0  0  0  0  0  0  0  0  0  0  0
   41.0294   16.0475  -10.7068 C   0  0  0  0  0  0  0  0  0  0  0  0
   40.6017   16.0194  -12.0366 C   0  0  0  0  0  0  0  0  0  0  0  0
   41.6846   16.1981  -12.8153 N   0  0  0  0  0  0  0  0  0  0  0  0
   42.8053   16.3424  -12.0891 C   0  0  0  0  0  0  0  0  0  0  0  0
   44.1090   16.5426  -12.4634 C   0  0  0  0  0  0  0  0  0  0  0  0
   45.0423   16.6527  -11.4479 C   0  0  0  0  0  0  0  0  0  0  0  0
   44.6608   16.5630  -10.1336 C   0  0  0  0  0  0  0  0  0  0  0  0
   43.3516   16.3627   -9.7682 C   0  0  0  0  0  0  0  0  0  0  0  0
   42.3940   16.2485  -10.7565 C   0  0  0  0  0  0  0  0  0  0  0  0
   41.6931   16.2301  -13.8779 H   0  0  0  0  0  0  0  0  0  0  0  0
 56 57  1  0  0  0
 57 58  1  0  0  0
 57 55  1  0  0  0
 55 37  1  0  0  0
 37 33  1  0  0  0
 33 34  1  0  0  0
 34 35  2  0  0  0
 34  1  1  0  0  0
  1 59  1  0  0  0
 59 60  1  0  0  0
 60 61  2  0  0  0
 61 62  1  0  0  0
 62 63  1  0  0  0
 63 64  2  0  0  0
 64 65  1  0  0  0
 65 66  2  0  0  0
 66 67  1  0  0  0
 67 68  2  0  0  0
  1  2  1  0  0  0
  2  3  1  0  0  0
  3  4  2  0  0  0
  3  6  1  0  0  0
  6  7  1  0  0  0
  7  8  1  0  0  0
  8  9  2  0  0  0
  8 11  1  0  0  0
 11 12  1  0  0  0
 12 13  1  0  0  0
 13 14  1  0  0  0
 14 15  1  0  0  0
 15 16  1  0  0  0
 16 17  2  0  0  0
 16 18  1  0  0  0
 18 19  1  0  0  0
 18 22  1  0  0  0
 22 23  1  0  0  0
 23 24  2  0  0  0
 24 25  1  0  0  0
 25 26  1  0  0  0
 26 27  2  0  0  0
 27 28  1  0  0  0
 28 29  2  0  0  0
 29 30  1  0  0  0
 30 31  2  0  0  0
 37 38  1  0  0  0
 38 39  2  0  0  0
 38 40  1  0  0  0
 40 42  1  0  0  0
 42 48  1  0  0  0
 48 49  1  0  0  0
 49 50  2  0  0  0
 50 51  1  0  0  0
 51 52  2  0  0  0
 52 53  1  0  0  0
 53 54  2  0  0  0
 42 43  1  0  0  0
 43 44  1  0  0  0
 43 45  2  0  0  0
 68 60  1  0  0  0
 15 11  1  0  0  0
 31 23  1  0  0  0
 54 49  1  0  0  0
 68 63  1  0  0  0
 31 26  1  0  0  0
 33 36  1  0  0  0
 62 69  1  0  0  0
  2  5  1  0  0  0
  7 10  1  0  0  0
 19 20  1  0  0  0
 19 21  1  0  0  0
 25 32  1  0  0  0
 40 41  1  0  0  0
 44 46  1  0  0  0
 44 47  1  0  0  0
M  END
> <minimizedAffinity>
-10.24197

> <CNNscore>
0.3027265668

> <CNNaffinity>
7.6210222244

> <CNN_VS>
2.3070859909

> <CNNaffinity_variance>
0.7689903378

$$$$
[H]c1c([H])c([H])c(C([H])([H])[C@@]([H])(C(=O)N([H])[H])N([H])C(=O)[C@@]([H])(N([H])C(=O)[C@@]([H])(N([H])C(=O)C([H])([H])N([H])C(=O)[C@@]2([H])N(C(=O)[C@@]([H])(N([H])[H])C([H])([H])c3c([H])n([H])c4c([H])c([H])c([H])c([H])c34)C([H])([H])C([H])([H])C2([H])[H])C([H])([H])c2c([H])n([H])c3c([H])c([H])c([H])c([H])c23)C([H])([H])C([H])(C([H])([H])[H])C([H])([H])[H])c([H])c1[H]


 69 74  0  0  0  0  0  0  0  0999 V2000
   38.1441   14.1053  -13.7128 C   0  0  0  0  0  0  0  0  0  0  0  0
   38.4288   14.5291  -12.3467 N   0  0  0  0  0  0  0  0  0  0  0  0
   39.3284   15.5611  -12.0905 C   0  0  0  0  0  0  0  0  0  0  0  0
   39.8835   16.1091  -13.1104 O   0  0  0  0  0  0  0  0  0  0  0  0
   37.9489   14.0512  -11.5424 H   0  0  0  0  0  0  0  0  0  0  0  0
   39.6774   16.0577  -10.7628 C   0  0  0  0  0  0  0  0  0  0  0  0
   38.7197   15.8152   -9.7600 N   0  0  0  0  0  0  0  0  0  0  0  0
   39.1825   15.2351   -8.5167 C   0  0  0  0  0  0  0  0  0  0  0  0
   40.3881   14.9955   -8.3953 O   0  0  0  0  0  0  0  0  0  0  0  0
   37.7244   16.0160   -9.8395 H   0  0  0  0  0  0  0  0  0  0  0  0
   38.1871   14.9435   -7.4193 C   0  0  0  0  0  0  0  0  0  0  0  0
   36.9585   15.7577   -7.6850 C   0  0  0  0  0  0  0  0  0  0  0  0
   36.8332   16.6587   -6.4923 C   0  0  0  0  0  0  0  0  0  0  0  0
   38.1609   16.6191   -5.8056 C   0  0  0  0  0  0  0  0  0  0  0  0
   38.6599   15.2666   -6.1312 N   0  0  0  0  0  0  0  0  0  0  0  0
   39.4838   14.5622   -5.2505 C   0  0  0  0  0  0  0  0  0  0  0  0
   39.6633   15.1513   -4.1012 O   0  0  0  0  0  0  0  0  0  0  0  0
   40.1813   13.3002   -5.3728 C   0  0  0  0  0  0  0  0  0  0  0  0
   39.6529   12.4900   -6.4811 N   0  0  0  0  0  0  0  0  0  0  0  0
   40.3278   12.6112   -7.2975 H   0  0  0  0  0  0  0  0  0  0  0  0
   39.7203   11.4731   -6.2320 H   0  0  0  0  0  0  0  0  0  0  0  0
   41.6691   13.3370   -5.5017 C   0  0  0  0  0  0  0  0  0  0  0  0
   42.3972   12.0813   -5.6889 C   0  0  0  0  0  0  0  0  0  0  0  0
   43.2523   11.7542   -6.7564 C   0  0  0  0  0  0  0  0  0  0  0  0
   43.7230   10.5022   -6.5978 N   0  0  0  0  0  0  0  0  0  0  0  0
   43.2132    9.9873   -5.4678 C   0  0  0  0  0  0  0  0  0  0  0  0
   43.3885    8.7559   -4.8362 C   0  0  0  0  0  0  0  0  0  0  0  0
   42.7654    8.4691   -3.6495 C   0  0  0  0  0  0  0  0  0  0  0  0
   41.9506    9.4028   -3.0606 C   0  0  0  0  0  0  0  0  0  0  0  0
   41.7830   10.6066   -3.6869 C   0  0  0  0  0  0  0  0  0  0  0  0
   42.3882   10.9390   -4.8803 C   0  0  0  0  0  0  0  0  0  0  0  0
   44.3753   10.0544   -7.2738 H   0  0  0  0  0  0  0  0  0  0  0  0
   35.6541   13.6286  -13.5806 N   0  0  0  0  0  0  0  0  0  0  0  0
   36.7294   14.3842  -14.0624 C   0  0  0  0  0  0  0  0  0  0  0  0
   36.5248   15.3546  -14.8280 O   0  0  0  0  0  0  0  0  0  0  0  0
   35.9219   12.8194  -12.9367 H   0  0  0  0  0  0  0  0  0  0  0  0
   34.2791   13.8419  -13.8756 C   0  0  0  0  0  0  0  0  0  0  0  0
   33.5383   14.1645  -12.6569 C   0  0  0  0  0  0  0  0  0  0  0  0
   34.2432   14.4466  -11.6199 O   0  0  0  0  0  0  0  0  0  0  0  0
   32.1337   14.1898  -12.5340 N   0  0  0  0  0  0  0  0  0  0  0  0
   31.4846   13.9573  -13.3086 H   0  0  0  0  0  0  0  0  0  0  0  0
   31.5346   14.5546  -11.2552 C   0  0  0  0  0  0  0  0  0  0  0  0
   30.0349   14.3999  -11.4368 C   0  0  0  0  0  0  0  0  0  0  0  0
   29.4538   14.5129  -12.7135 N   0  0  0  0  0  0  0  0  0  0  0  0
   29.2853   14.1692  -10.4541 O   0  0  0  0  0  0  0  0  0  0  0  0
   29.8396   13.9804  -13.5105 H   0  0  0  0  0  0  0  0  0  0  0  0
   28.6401   15.1289  -12.8597 H   0  0  0  0  0  0  0  0  0  0  0  0
   31.7836   15.9954  -10.8947 C   0  0  0  0  0  0  0  0  0  0  0  0
   31.9798   16.2400   -9.4568 C   0  0  0  0  0  0  0  0  0  0  0  0
   33.1898   16.0150   -8.8635 C   0  0  0  0  0  0  0  0  0  0  0  0
   33.3497   16.2485   -7.5130 C   0  0  0  0  0  0  0  0  0  0  0  0
   32.2853   16.7063   -6.7707 C   0  0  0  0  0  0  0  0  0  0  0  0
   31.0521   16.9421   -7.3415 C   0  0  0  0  0  0  0  0  0  0  0  0
   30.9178   16.6996   -8.7087 C   0  0  0  0  0  0  0  0  0  0  0  0
   33.5979   12.9812  -14.8655 C   0  0  0  0  0  0  0  0  0  0  0  0
   35.3699   11.9146  -16.3804 C   0  0  0  0  0  0  0  0  0  0  0  0
   34.2933   11.7786  -15.3622 C   0  0  0  0  0  0  0  0  0  0  0  0
   33.3268   10.7050  -15.8623 C   0  0  0  0  0  0  0  0  0  0  0  0
   38.6716   12.7833  -14.0570 C   0  0  0  0  0  0  0  0  0  0  0  0
   39.4823   12.8901  -15.3115 C   0  0  0  0  0  0  0  0  0  0  0  0
   40.5700   13.7441  -15.5105 C   0  0  0  0  0  0  0  0  0  0  0  0
   41.0285   13.5337  -16.7581 N   0  0  0  0  0  0  0  0  0  0  0  0
   40.3153   12.5953  -17.4022 C   0  0  0  0  0  0  0  0  0  0  0  0
   40.4306   12.0771  -18.6663 C   0  0  0  0  0  0  0  0  0  0  0  0
   39.5187   11.1017  -19.0290 C   0  0  0  0  0  0  0  0  0  0  0  0
   38.5514   10.6860  -18.1501 C   0  0  0  0  0  0  0  0  0  0  0  0
   38.4440   11.2109  -16.8850 C   0  0  0  0  0  0  0  0  0  0  0  0
   39.3382   12.1863  -16.4901 C   0  0  0  0  0  0  0  0  0  0  0  0
   41.8528   14.0270  -17.2137 H   0  0  0  0  0  0  0  0  0  0  0  0
 56 57  1  0  0  0
 57 58  1  0  0  0
 57 55  1  0  0  0
 55 37  1  0  0  0
 37 33  1  0  0  0
 33 34  1  0  0  0
 34 35  2  0  0  0
 34  1  1  0  0  0
  1 59  1  0  0  0
 59 60  1  0  0  0
 60 61  2  0  0  0
 61 62  1  0  0  0
 62 63  1  0  0  0
 63 64  2  0  0  0
 64 65  1  0  0  0
 65 66  2  0  0  0
 66 67  1  0  0  0
 67 68  2  0  0  0
  1  2  1  0  0  0
  2  3  1  0  0  0
  3  4  2  0  0  0
  3  6  1  0  0  0
  6  7  1  0  0  0
  7  8  1  0  0  0
  8  9  2  0  0  0
  8 11  1  0  0  0
 11 12  1  0  0  0
 12 13  1  0  0  0
 13 14  1  0  0  0
 14 15  1  0  0  0
 15 16  1  0  0  0
 16 17  2  0  0  0
 16 18  1  0  0  0
 18 19  1  0  0  0
 18 22  1  0  0  0
 22 23  1  0  0  0
 23 24  2  0  0  0
 24 25  1  0  0  0
 25 26  1  0  0  0
 26 27  2  0  0  0
 27 28  1  0  0  0
 28 29  2  0  0  0
 29 30  1  0  0  0
 30 31  2  0  0  0
 37 38  1  0  0  0
 38 39  2  0  0  0
 38 40  1  0  0  0
 40 42  1  0  0  0
 42 48  1  0  0  0
 48 49  1  0  0  0
 49 50  2  0  0  0
 50 51  1  0  0  0
 51 52  2  0  0  0
 52 53  1  0  0  0
 53 54  2  0  0  0
 42 43  1  0  0  0
 43 44  1  0  0  0
 43 45  2  0  0  0
 68 60  1  0  0  0
 15 11  1  0  0  0
 31 23  1  0  0  0
 54 49  1  0  0  0
 68 63  1  0  0  0
 31 26  1  0  0  0
 33 36  1  0  0  0
 62 69  1  0  0  0
  2  5  1  0  0  0
  7 10  1  0  0  0
 19 20  1  0  0  0
 19 21  1  0  0  0
 25 32  1  0  0  0
 40 41  1  0  0  0
 44 46  1  0  0  0
 44 47  1  0  0  0
M  END
> <minimizedAffinity>
-10.71220

> <CNNscore>
0.2990843058

> <CNNaffinity>
7.7153177261

> <CNN_VS>
2.3075304031

> <CNNaffinity_variance>
0.6505356431

$$$$
[H]c1c([H])c([H])c(C([H])([H])[C@@]([H])(C(=O)N([H])[H])N([H])C(=O)[C@@]([H])(N([H])C(=O)[C@@]([H])(N([H])C(=O)C([H])([H])N([H])C(=O)[C@@]2([H])N(C(=O)[C@@]([H])(N([H])[H])C([H])([H])c3c([H])n([H])c4c([H])c([H])c([H])c([H])c34)C([H])([H])C([H])([H])C2([H])[H])C([H])([H])c2c([H])n([H])c3c([H])c([H])c([H])c([H])c23)C([H])([H])C([H])(C([H])([H])[H])C([H])([H])[H])c([H])c1[H]


 69 74  0  0  0  0  0  0  0  0999 V2000
   39.5074   14.3051  -13.7492 C   0  0  0  0  0  0  0  0  0  0  0  0
   40.7956   14.3910  -13.0711 N   0  0  0  0  0  0  0  0  0  0  0  0
   41.3236   15.6227  -12.6912 C   0  0  0  0  0  0  0  0  0  0  0  0
   40.6216   16.6614  -12.9681 O   0  0  0  0  0  0  0  0  0  0  0  0
   41.3349   13.5124  -12.8641 H   0  0  0  0  0  0  0  0  0  0  0  0
   42.5998   15.8121  -12.0080 C   0  0  0  0  0  0  0  0  0  0  0  0
   42.5068   16.2232  -10.6649 N   0  0  0  0  0  0  0  0  0  0  0  0
   42.8689   15.2634   -9.6431 C   0  0  0  0  0  0  0  0  0  0  0  0
   43.2503   14.1440   -9.9999 O   0  0  0  0  0  0  0  0  0  0  0  0
   42.2045   17.1446  -10.3539 H   0  0  0  0  0  0  0  0  0  0  0  0
   42.7693   15.6565   -8.1886 C   0  0  0  0  0  0  0  0  0  0  0  0
   43.7374   16.7732   -7.9470 C   0  0  0  0  0  0  0  0  0  0  0  0
   44.6977   16.2317   -6.9299 C   0  0  0  0  0  0  0  0  0  0  0  0
   44.4997   14.7496   -6.9255 C   0  0  0  0  0  0  0  0  0  0  0  0
   43.0773   14.6063   -7.3002 N   0  0  0  0  0  0  0  0  0  0  0  0
   42.3017   13.5463   -6.8250 C   0  0  0  0  0  0  0  0  0  0  0  0
   42.9084   12.7904   -5.9530 O   0  0  0  0  0  0  0  0  0  0  0  0
   40.9494   13.1243   -7.1202 C   0  0  0  0  0  0  0  0  0  0  0  0
   40.9243   11.8647   -7.8796 N   0  0  0  0  0  0  0  0  0  0  0  0
   40.7045   11.0904   -7.1804 H   0  0  0  0  0  0  0  0  0  0  0  0
   40.1048   11.8691   -8.5344 H   0  0  0  0  0  0  0  0  0  0  0  0
   39.9975   12.9884   -5.9770 C   0  0  0  0  0  0  0  0  0  0  0  0
   39.1975   14.1468   -5.5771 C   0  0  0  0  0  0  0  0  0  0  0  0
   39.6128   15.2185   -4.7667 C   0  0  0  0  0  0  0  0  0  0  0  0
   38.5957   16.0853   -4.5986 N   0  0  0  0  0  0  0  0  0  0  0  0
   37.5233   15.6299   -5.2654 C   0  0  0  0  0  0  0  0  0  0  0  0
   36.2379   16.1442   -5.4366 C   0  0  0  0  0  0  0  0  0  0  0  0
   35.3061   15.4922   -6.2018 C   0  0  0  0  0  0  0  0  0  0  0  0
   35.6312   14.3097   -6.8169 C   0  0  0  0  0  0  0  0  0  0  0  0
   36.8926   13.8118   -6.6427 C   0  0  0  0  0  0  0  0  0  0  0  0
   37.8617   14.4316   -5.8827 C   0  0  0  0  0  0  0  0  0  0  0  0
   38.6819   16.9539   -4.0319 H   0  0  0  0  0  0  0  0  0  0  0  0
   38.4328   14.9652  -11.5460 N   0  0  0  0  0  0  0  0  0  0  0  0
   38.4487   14.9646  -12.9456 C   0  0  0  0  0  0  0  0  0  0  0  0
   37.5405   15.5425  -13.5864 O   0  0  0  0  0  0  0  0  0  0  0  0
   39.2443   14.4463  -11.0838 H   0  0  0  0  0  0  0  0  0  0  0  0
   37.4512   15.5763  -10.7177 C   0  0  0  0  0  0  0  0  0  0  0  0
   36.1474   14.9454  -10.9185 C   0  0  0  0  0  0  0  0  0  0  0  0
   35.8826   13.9348  -10.1699 O   0  0  0  0  0  0  0  0  0  0  0  0
   35.1748   15.3537  -11.8544 N   0  0  0  0  0  0  0  0  0  0  0  0
   35.3067   16.1435  -12.5132 H   0  0  0  0  0  0  0  0  0  0  0  0
   33.9054   14.6387  -11.9239 C   0  0  0  0  0  0  0  0  0  0  0  0
   33.9421   13.8468  -13.2191 C   0  0  0  0  0  0  0  0  0  0  0  0
   33.5604   14.4453  -14.4343 N   0  0  0  0  0  0  0  0  0  0  0  0
   34.3120   12.6452  -13.2317 O   0  0  0  0  0  0  0  0  0  0  0  0
   33.9541   15.3597  -14.7108 H   0  0  0  0  0  0  0  0  0  0  0  0
   32.8849   13.9740  -15.0543 H   0  0  0  0  0  0  0  0  0  0  0  0
   32.7259   15.5704  -12.0160 C   0  0  0  0  0  0  0  0  0  0  0  0
   31.7382   15.4136  -10.9363 C   0  0  0  0  0  0  0  0  0  0  0  0
   31.9467   15.9698   -9.7058 C   0  0  0  0  0  0  0  0  0  0  0  0
   31.0081   15.8072   -8.7075 C   0  0  0  0  0  0  0  0  0  0  0  0
   29.8657   15.0823   -8.9588 C   0  0  0  0  0  0  0  0  0  0  0  0
   29.6279   14.5089  -10.1905 C   0  0  0  0  0  0  0  0  0  0  0  0
   30.5918   14.6899  -11.1825 C   0  0  0  0  0  0  0  0  0  0  0  0
   37.4634   17.0414  -10.5225 C   0  0  0  0  0  0  0  0  0  0  0  0
   39.0016   16.7321   -8.4950 C   0  0  0  0  0  0  0  0  0  0  0  0
   38.1098   17.5941   -9.3170 C   0  0  0  0  0  0  0  0  0  0  0  0
   37.1123   18.2551   -8.3657 C   0  0  0  0  0  0  0  0  0  0  0  0
   39.2037   12.9839  -14.3030 C   0  0  0  0  0  0  0  0  0  0  0  0
   39.8205   12.8683  -15.6627 C   0  0  0  0  0  0  0  0  0  0  0  0
   40.9910   13.5035  -16.0849 C   0  0  0  0  0  0  0  0  0  0  0  0
   41.2134   13.1387  -17.3610 N   0  0  0  0  0  0  0  0  0  0  0  0
   40.2655   12.3023  -17.8152 C   0  0  0  0  0  0  0  0  0  0  0  0
   40.1002   11.6944  -19.0329 C   0  0  0  0  0  0  0  0  0  0  0  0
   38.9955   10.8742  -19.1786 C   0  0  0  0  0  0  0  0  0  0  0  0
   38.1180   10.6905  -18.1407 C   0  0  0  0  0  0  0  0  0  0  0  0
   38.2923   11.3037  -16.9236 C   0  0  0  0  0  0  0  0  0  0  0  0
   39.3847   12.1291  -16.7437 C   0  0  0  0  0  0  0  0  0  0  0  0
   42.0287   13.4500  -17.9681 H   0  0  0  0  0  0  0  0  0  0  0  0
 56 57  1  0  0  0
 57 58  1  0  0  0
 57 55  1  0  0  0
 55 37  1  0  0  0
 37 33  1  0  0  0
 33 34  1  0  0  0
 34 35  2  0  0  0
 34  1  1  0  0  0
  1 59  1  0  0  0
 59 60  1  0  0  0
 60 61  2  0  0  0
 61 62  1  0  0  0
 62 63  1  0  0  0
 63 64  2  0  0  0
 64 65  1  0  0  0
 65 66  2  0  0  0
 66 67  1  0  0  0
 67 68  2  0  0  0
  1  2  1  0  0  0
  2  3  1  0  0  0
  3  4  2  0  0  0
  3  6  1  0  0  0
  6  7  1  0  0  0
  7  8  1  0  0  0
  8  9  2  0  0  0
  8 11  1  0  0  0
 11 12  1  0  0  0
 12 13  1  0  0  0
 13 14  1  0  0  0
 14 15  1  0  0  0
 15 16  1  0  0  0
 16 17  2  0  0  0
 16 18  1  0  0  0
 18 19  1  0  0  0
 18 22  1  0  0  0
 22 23  1  0  0  0
 23 24  2  0  0  0
 24 25  1  0  0  0
 25 26  1  0  0  0
 26 27  2  0  0  0
 27 28  1  0  0  0
 28 29  2  0  0  0
 29 30  1  0  0  0
 30 31  2  0  0  0
 37 38  1  0  0  0
 38 39  2  0  0  0
 38 40  1  0  0  0
 40 42  1  0  0  0
 42 48  1  0  0  0
 48 49  1  0  0  0
 49 50  2  0  0  0
 50 51  1  0  0  0
 51 52  2  0  0  0
 52 53  1  0  0  0
 53 54  2  0  0  0
 42 43  1  0  0  0
 43 44  1  0  0  0
 43 45  2  0  0  0
 68 60  1  0  0  0
 15 11  1  0  0  0
 31 23  1  0  0  0
 54 49  1  0  0  0
 68 63  1  0  0  0
 31 26  1  0  0  0
 33 36  1  0  0  0
 62 69  1  0  0  0
  2  5  1  0  0  0
  7 10  1  0  0  0
 19 20  1  0  0  0
 19 21  1  0  0  0
 25 32  1  0  0  0
 40 41  1  0  0  0
 44 46  1  0  0  0
 44 47  1  0  0  0
M  END
> <minimizedAffinity>
-9.78974

> <CNNscore>
0.2926481068

> <CNNaffinity>
7.5784101486

> <CNN_VS>
2.2178072929

> <CNNaffinity_variance>
1.5507569313

$$$$
[H]c1c([H])c([H])c(C([H])([H])[C@@]([H])(C(=O)N([H])[H])N([H])C(=O)[C@@]([H])(N([H])C(=O)[C@@]([H])(N([H])C(=O)C([H])([H])N([H])C(=O)[C@@]2([H])N(C(=O)[C@@]([H])(N([H])[H])C([H])([H])c3c([H])n([H])c4c([H])c([H])c([H])c([H])c34)C([H])([H])C([H])([H])C2([H])[H])C([H])([H])c2c([H])n([H])c3c([H])c([H])c([H])c([H])c23)C([H])([H])C([H])(C([H])([H])[H])C([H])([H])[H])c([H])c1[H]


 69 74  0  0  0  0  0  0  0  0999 V2000
   41.1331   14.5446  -13.5699 C   0  0  0  0  0  0  0  0  0  0  0  0
   41.7937   14.8298  -12.3014 N   0  0  0  0  0  0  0  0  0  0  0  0
   42.2106   16.1208  -11.9861 C   0  0  0  0  0  0  0  0  0  0  0  0
   41.9832   17.0308  -12.8629 O   0  0  0  0  0  0  0  0  0  0  0  0
   41.9578   14.0519  -11.6132 H   0  0  0  0  0  0  0  0  0  0  0  0
   42.8764   16.5064  -10.7454 C   0  0  0  0  0  0  0  0  0  0  0  0
   42.1260   16.3010   -9.5723 N   0  0  0  0  0  0  0  0  0  0  0  0
   42.2501   15.0181   -8.9127 C   0  0  0  0  0  0  0  0  0  0  0  0
   43.0125   14.1789   -9.4029 O   0  0  0  0  0  0  0  0  0  0  0  0
   41.5012   16.9850   -9.1492 H   0  0  0  0  0  0  0  0  0  0  0  0
   41.4514   14.7486   -7.6599 C   0  0  0  0  0  0  0  0  0  0  0  0
   40.0006   14.9042   -7.9975 C   0  0  0  0  0  0  0  0  0  0  0  0
   39.5246   16.0275   -7.1248 C   0  0  0  0  0  0  0  0  0  0  0  0
   40.7569   16.7182   -6.6348 C   0  0  0  0  0  0  0  0  0  0  0  0
   41.7540   15.6278   -6.6004 N   0  0  0  0  0  0  0  0  0  0  0  0
   42.7888   15.6159   -5.6624 C   0  0  0  0  0  0  0  0  0  0  0  0
   42.7166   16.5696   -4.7763 O   0  0  0  0  0  0  0  0  0  0  0  0
   43.9315   14.7452   -5.4887 C   0  0  0  0  0  0  0  0  0  0  0  0
   45.1385   15.4974   -5.1127 N   0  0  0  0  0  0  0  0  0  0  0  0
   45.2554   15.3814   -4.0593 H   0  0  0  0  0  0  0  0  0  0  0  0
   45.9825   15.0301   -5.5247 H   0  0  0  0  0  0  0  0  0  0  0  0
   43.7944   13.5974   -4.5425 C   0  0  0  0  0  0  0  0  0  0  0  0
   43.4727   12.2726   -5.0746 C   0  0  0  0  0  0  0  0  0  0  0  0
   42.7406   11.9881   -6.2412 C   0  0  0  0  0  0  0  0  0  0  0  0
   42.6289   10.6548   -6.3968 N   0  0  0  0  0  0  0  0  0  0  0  0
   43.2578   10.0454   -5.3795 C   0  0  0  0  0  0  0  0  0  0  0  0
   43.4588    8.6993   -5.0732 C   0  0  0  0  0  0  0  0  0  0  0  0
   44.1728    8.3198   -3.9665 C   0  0  0  0  0  0  0  0  0  0  0  0
   44.7055    9.2724   -3.1352 C   0  0  0  0  0  0  0  0  0  0  0  0
   44.5025   10.5894   -3.4417 C   0  0  0  0  0  0  0  0  0  0  0  0
   43.7916   11.0180   -4.5425 C   0  0  0  0  0  0  0  0  0  0  0  0
   42.1244   10.2201   -7.1966 H   0  0  0  0  0  0  0  0  0  0  0  0
   38.9382   14.4483  -12.2980 N   0  0  0  0  0  0  0  0  0  0  0  0
   39.6681   14.7490  -13.4538 C   0  0  0  0  0  0  0  0  0  0  0  0
   39.0889   15.2188  -14.4605 O   0  0  0  0  0  0  0  0  0  0  0  0
   39.5129   14.0496  -11.4905 H   0  0  0  0  0  0  0  0  0  0  0  0
   37.5373   14.6199  -12.1212 C   0  0  0  0  0  0  0  0  0  0  0  0
   36.7966   13.8145  -13.0913 C   0  0  0  0  0  0  0  0  0  0  0  0
   36.5430   12.6019  -12.7491 O   0  0  0  0  0  0  0  0  0  0  0  0
   36.3467   14.2586  -14.3517 N   0  0  0  0  0  0  0  0  0  0  0  0
   36.5213   15.2115  -14.7215 H   0  0  0  0  0  0  0  0  0  0  0  0
   35.5959   13.3446  -15.2053 C   0  0  0  0  0  0  0  0  0  0  0  0
   34.1872   13.3063  -14.6395 C   0  0  0  0  0  0  0  0  0  0  0  0
   33.5160   14.4987  -14.3106 N   0  0  0  0  0  0  0  0  0  0  0  0
   33.5949   12.2129  -14.4537 O   0  0  0  0  0  0  0  0  0  0  0  0
   33.4715   15.2758  -14.9900 H   0  0  0  0  0  0  0  0  0  0  0  0
   33.0660   14.6026  -13.3889 H   0  0  0  0  0  0  0  0  0  0  0  0
   36.1276   11.9369  -15.1468 C   0  0  0  0  0  0  0  0  0  0  0  0
   37.1685   11.6355  -16.1425 C   0  0  0  0  0  0  0  0  0  0  0  0
   38.4680   12.0036  -15.9353 C   0  0  0  0  0  0  0  0  0  0  0  0
   39.4266   11.7131  -16.8843 C   0  0  0  0  0  0  0  0  0  0  0  0
   39.0655   11.0539  -18.0370 C   0  0  0  0  0  0  0  0  0  0  0  0
   37.7621   10.6703  -18.2742 C   0  0  0  0  0  0  0  0  0  0  0  0
   36.8131   10.9746  -17.2981 C   0  0  0  0  0  0  0  0  0  0  0  0
   36.9948   15.9588  -11.8087 C   0  0  0  0  0  0  0  0  0  0  0  0
   35.3524   16.3571   -9.8810 C   0  0  0  0  0  0  0  0  0  0  0  0
   36.7467   16.3158  -10.3989 C   0  0  0  0  0  0  0  0  0  0  0  0
   37.4206   17.6278   -9.9974 C   0  0  0  0  0  0  0  0  0  0  0  0
   41.5889   13.3168  -14.2252 C   0  0  0  0  0  0  0  0  0  0  0  0
   43.0229   13.4776  -14.6254 C   0  0  0  0  0  0  0  0  0  0  0  0
   43.4819   13.8074  -15.9031 C   0  0  0  0  0  0  0  0  0  0  0  0
   44.8254   13.8639  -15.8499 N   0  0  0  0  0  0  0  0  0  0  0  0
   45.2897   13.5920  -14.6191 C   0  0  0  0  0  0  0  0  0  0  0  0
   46.5667   13.5386  -14.1229 C   0  0  0  0  0  0  0  0  0  0  0  0
   46.7051   13.2244  -12.7826 C   0  0  0  0  0  0  0  0  0  0  0  0
   45.6032   12.9811  -12.0030 C   0  0  0  0  0  0  0  0  0  0  0  0
   44.3272   13.0374  -12.5092 C   0  0  0  0  0  0  0  0  0  0  0  0
   44.1527   13.3484  -13.8433 C   0  0  0  0  0  0  0  0  0  0  0  0
   45.4748   14.0945  -16.6594 H   0  0  0  0  0  0  0  0  0  0  0  0
 56 57  1  0  0  0
 57 58  1  0  0  0
 57 55  1  0  0  0
 55 37  1  0  0  0
 37 33  1  0  0  0
 33 34  1  0  0  0
 34 35  2  0  0  0
 34  1  1  0  0  0
  1 59  1  0  0  0
 59 60  1  0  0  0
 60 61  2  0  0  0
 61 62  1  0  0  0
 62 63  1  0  0  0
 63 64  2  0  0  0
 64 65  1  0  0  0
 65 66  2  0  0  0
 66 67  1  0  0  0
 67 68  2  0  0  0
  1  2  1  0  0  0
  2  3  1  0  0  0
  3  4  2  0  0  0
  3  6  1  0  0  0
  6  7  1  0  0  0
  7  8  1  0  0  0
  8  9  2  0  0  0
  8 11  1  0  0  0
 11 12  1  0  0  0
 12 13  1  0  0  0
 13 14  1  0  0  0
 14 15  1  0  0  0
 15 16  1  0  0  0
 16 17  2  0  0  0
 16 18  1  0  0  0
 18 19  1  0  0  0
 18 22  1  0  0  0
 22 23  1  0  0  0
 23 24  2  0  0  0
 24 25  1  0  0  0
 25 26  1  0  0  0
 26 27  2  0  0  0
 27 28  1  0  0  0
 28 29  2  0  0  0
 29 30  1  0  0  0
 30 31  2  0  0  0
 37 38  1  0  0  0
 38 39  2  0  0  0
 38 40  1  0  0  0
 40 42  1  0  0  0
 42 48  1  0  0  0
 48 49  1  0  0  0
 49 50  2  0  0  0
 50 51  1  0  0  0
 51 52  2  0  0  0
 52 53  1  0  0  0
 53 54  2  0  0  0
 42 43  1  0  0  0
 43 44  1  0  0  0
 43 45  2  0  0  0
 68 60  1  0  0  0
 15 11  1  0  0  0
 31 23  1  0  0  0
 54 49  1  0  0  0
 68 63  1  0  0  0
 31 26  1  0  0  0
 33 36  1  0  0  0
 62 69  1  0  0  0
  2  5  1  0  0  0
  7 10  1  0  0  0
 19 20  1  0  0  0
 19 21  1  0  0  0
 25 32  1  0  0  0
 40 41  1  0  0  0
 44 46  1  0  0  0
 44 47  1  0  0  0
M  END
> <minimizedAffinity>
-9.84540

> <CNNscore>
0.2799049020

> <CNNaffinity>
7.6400628090

> <CNN_VS>
2.1384909153

> <CNNaffinity_variance>
0.8821669817

$$$$
[H]c1c([H])c([H])c(C([H])([H])[C@@]([H])(C(=O)N([H])[H])N([H])C(=O)[C@@]([H])(N([H])C(=O)[C@@]([H])(N([H])C(=O)C([H])([H])N([H])C(=O)[C@@]2([H])N(C(=O)[C@@]([H])(N([H])[H])C([H])([H])c3c([H])n([H])c4c([H])c([H])c([H])c([H])c34)C([H])([H])C([H])([H])C2([H])[H])C([H])([H])c2c([H])n([H])c3c([H])c([H])c([H])c([H])c23)C([H])([H])C([H])(C([H])([H])[H])C([H])([H])[H])c([H])c1[H]


 69 74  0  0  0  0  0  0  0  0999 V2000
   37.3528   14.0899  -13.3262 C   0  0  0  0  0  0  0  0  0  0  0  0
   37.7693   15.0118  -12.2757 N   0  0  0  0  0  0  0  0  0  0  0  0
   37.1835   14.9694  -11.0128 C   0  0  0  0  0  0  0  0  0  0  0  0
   36.2702   14.0857  -10.8299 O   0  0  0  0  0  0  0  0  0  0  0  0
   38.5227   15.7186  -12.4717 H   0  0  0  0  0  0  0  0  0  0  0  0
   37.5319   15.8453   -9.8981 C   0  0  0  0  0  0  0  0  0  0  0  0
   36.4419   16.3227   -9.1460 N   0  0  0  0  0  0  0  0  0  0  0  0
   36.6952   17.3899   -8.2009 C   0  0  0  0  0  0  0  0  0  0  0  0
   37.8449   17.8327   -8.1119 O   0  0  0  0  0  0  0  0  0  0  0  0
   35.4866   15.9764   -9.2141 H   0  0  0  0  0  0  0  0  0  0  0  0
   35.5582   17.9219   -7.3617 C   0  0  0  0  0  0  0  0  0  0  0  0
   35.9355   19.2934   -6.8931 C   0  0  0  0  0  0  0  0  0  0  0  0
   35.9622   19.1910   -5.3969 C   0  0  0  0  0  0  0  0  0  0  0  0
   35.9974   17.7290   -5.0853 C   0  0  0  0  0  0  0  0  0  0  0  0
   35.2776   17.1310   -6.2291 N   0  0  0  0  0  0  0  0  0  0  0  0
   34.5263   15.9622   -6.0868 C   0  0  0  0  0  0  0  0  0  0  0  0
   34.4319   15.5349   -4.8586 O   0  0  0  0  0  0  0  0  0  0  0  0
   33.8334   15.1306   -7.0472 C   0  0  0  0  0  0  0  0  0  0  0  0
   34.7696   14.3341   -7.8552 N   0  0  0  0  0  0  0  0  0  0  0  0
   34.7718   13.3517   -7.4411 H   0  0  0  0  0  0  0  0  0  0  0  0
   34.3792   14.2121   -8.8213 H   0  0  0  0  0  0  0  0  0  0  0  0
   32.7739   14.2106   -6.5348 C   0  0  0  0  0  0  0  0  0  0  0  0
   31.3803   14.4526   -6.9105 C   0  0  0  0  0  0  0  0  0  0  0  0
   30.5796   13.6485   -7.7412 C   0  0  0  0  0  0  0  0  0  0  0  0
   29.3595   14.2030   -7.8756 N   0  0  0  0  0  0  0  0  0  0  0  0
   29.3207   15.3425   -7.1671 C   0  0  0  0  0  0  0  0  0  0  0  0
   28.3086   16.2779   -6.9508 C   0  0  0  0  0  0  0  0  0  0  0  0
   28.5087   17.3708   -6.1483 C   0  0  0  0  0  0  0  0  0  0  0  0
   29.7237   17.5605   -5.5398 C   0  0  0  0  0  0  0  0  0  0  0  0
   30.7107   16.6399   -5.7582 C   0  0  0  0  0  0  0  0  0  0  0  0
   30.5556   15.5268   -6.5569 C   0  0  0  0  0  0  0  0  0  0  0  0
   28.6046   13.7742   -8.4495 H   0  0  0  0  0  0  0  0  0  0  0  0
   39.6762   14.0066  -14.3457 N   0  0  0  0  0  0  0  0  0  0  0  0
   38.5231   13.3647  -13.8793 C   0  0  0  0  0  0  0  0  0  0  0  0
   38.4403   12.1151  -13.9126 O   0  0  0  0  0  0  0  0  0  0  0  0
   39.6582   15.0728  -14.2818 H   0  0  0  0  0  0  0  0  0  0  0  0
   40.8295   13.3731  -14.8859 C   0  0  0  0  0  0  0  0  0  0  0  0
   42.0227   13.7514  -14.1299 C   0  0  0  0  0  0  0  0  0  0  0  0
   43.1303   13.7611  -14.7818 O   0  0  0  0  0  0  0  0  0  0  0  0
   42.0509   14.1006  -12.7641 N   0  0  0  0  0  0  0  0  0  0  0  0
   41.2128   14.1017  -12.1535 H   0  0  0  0  0  0  0  0  0  0  0  0
   43.3180   14.4804  -12.1495 C   0  0  0  0  0  0  0  0  0  0  0  0
   43.6123   13.4166  -11.1066 C   0  0  0  0  0  0  0  0  0  0  0  0
   43.0874   13.5263   -9.8054 N   0  0  0  0  0  0  0  0  0  0  0  0
   44.3283   12.4208  -11.3832 O   0  0  0  0  0  0  0  0  0  0  0  0
   42.0820   13.7175   -9.6637 H   0  0  0  0  0  0  0  0  0  0  0  0
   43.7046   13.4170   -8.9869 H   0  0  0  0  0  0  0  0  0  0  0  0
   43.2310   15.7945  -11.4192 C   0  0  0  0  0  0  0  0  0  0  0  0
   44.2577   16.7761  -11.8040 C   0  0  0  0  0  0  0  0  0  0  0  0
   45.3724   16.9656  -11.0370 C   0  0  0  0  0  0  0  0  0  0  0  0
   46.3205   17.8938  -11.4158 C   0  0  0  0  0  0  0  0  0  0  0  0
   46.1350   18.6255  -12.5664 C   0  0  0  0  0  0  0  0  0  0  0  0
   45.0200   18.4567  -13.3604 C   0  0  0  0  0  0  0  0  0  0  0  0
   44.0779   17.5108  -12.9557 C   0  0  0  0  0  0  0  0  0  0  0  0
   40.9780   13.2429  -16.3507 C   0  0  0  0  0  0  0  0  0  0  0  0
   41.3365   11.5564  -18.2480 C   0  0  0  0  0  0  0  0  0  0  0  0
   40.6514   11.9531  -16.9881 C   0  0  0  0  0  0  0  0  0  0  0  0
   39.1499   11.7701  -17.2093 C   0  0  0  0  0  0  0  0  0  0  0  0
   36.4012   14.6566  -14.2842 C   0  0  0  0  0  0  0  0  0  0  0  0
   35.2395   13.7232  -14.4322 C   0  0  0  0  0  0  0  0  0  0  0  0
   34.0429   13.7888  -13.7142 C   0  0  0  0  0  0  0  0  0  0  0  0
   33.2564   12.7846  -14.1431 N   0  0  0  0  0  0  0  0  0  0  0  0
   33.8533   12.0546  -15.0997 C   0  0  0  0  0  0  0  0  0  0  0  0
   33.4250   10.9593  -15.8046 C   0  0  0  0  0  0  0  0  0  0  0  0
   34.3000   10.4348  -16.7393 C   0  0  0  0  0  0  0  0  0  0  0  0
   35.5344   10.9989  -16.9368 C   0  0  0  0  0  0  0  0  0  0  0  0
   35.9546   12.0969  -16.2259 C   0  0  0  0  0  0  0  0  0  0  0  0
   35.1062   12.6461  -15.2849 C   0  0  0  0  0  0  0  0  0  0  0  0
   32.2762   12.5646  -13.7950 H   0  0  0  0  0  0  0  0  0  0  0  0
 56 57  1  0  0  0
 57 58  1  0  0  0
 57 55  1  0  0  0
 55 37  1  0  0  0
 37 33  1  0  0  0
 33 34  1  0  0  0
 34 35  2  0  0  0
 34  1  1  0  0  0
  1 59  1  0  0  0
 59 60  1  0  0  0
 60 61  2  0  0  0
 61 62  1  0  0  0
 62 63  1  0  0  0
 63 64  2  0  0  0
 64 65  1  0  0  0
 65 66  2  0  0  0
 66 67  1  0  0  0
 67 68  2  0  0  0
  1  2  1  0  0  0
  2  3  1  0  0  0
  3  4  2  0  0  0
  3  6  1  0  0  0
  6  7  1  0  0  0
  7  8  1  0  0  0
  8  9  2  0  0  0
  8 11  1  0  0  0
 11 12  1  0  0  0
 12 13  1  0  0  0
 13 14  1  0  0  0
 14 15  1  0  0  0
 15 16  1  0  0  0
 16 17  2  0  0  0
 16 18  1  0  0  0
 18 19  1  0  0  0
 18 22  1  0  0  0
 22 23  1  0  0  0
 23 24  2  0  0  0
 24 25  1  0  0  0
 25 26  1  0  0  0
 26 27  2  0  0  0
 27 28  1  0  0  0
 28 29  2  0  0  0
 29 30  1  0  0  0
 30 31  2  0  0  0
 37 38  1  0  0  0
 38 39  2  0  0  0
 38 40  1  0  0  0
 40 42  1  0  0  0
 42 48  1  0  0  0
 48 49  1  0  0  0
 49 50  2  0  0  0
 50 51  1  0  0  0
 51 52  2  0  0  0
 52 53  1  0  0  0
 53 54  2  0  0  0
 42 43  1  0  0  0
 43 44  1  0  0  0
 43 45  2  0  0  0
 68 60  1  0  0  0
 15 11  1  0  0  0
 31 23  1  0  0  0
 54 49  1  0  0  0
 68 63  1  0  0  0
 31 26  1  0  0  0
 33 36  1  0  0  0
 62 69  1  0  0  0
  2  5  1  0  0  0
  7 10  1  0  0  0
 19 20  1  0  0  0
 19 21  1  0  0  0
 25 32  1  0  0  0
 40 41  1  0  0  0
 44 46  1  0  0  0
 44 47  1  0  0  0
M  END
> <minimizedAffinity>
-9.89079

> <CNNscore>
0.2300983965

> <CNNaffinity>
7.3186922073

> <CNN_VS>
1.6840193272

> <CNNaffinity_variance>
0.9846549034

$$$$
[H]c1c([H])c([H])c(C([H])([H])[C@@]([H])(C(=O)N([H])[H])N([H])C(=O)[C@@]([H])(N([H])C(=O)[C@@]([H])(N([H])C(=O)C([H])([H])N([H])C(=O)[C@@]2([H])N(C(=O)[C@@]([H])(N([H])[H])C([H])([H])c3c([H])n([H])c4c([H])c([H])c([H])c([H])c34)C([H])([H])C([H])([H])C2([H])[H])C([H])([H])c2c([H])n([H])c3c([H])c([H])c([H])c([H])c23)C([H])([H])C([H])(C([H])([H])[H])C([H])([H])[H])c([H])c1[H]


 69 74  0  0  0  0  0  0  0  0999 V2000
   42.4120   15.3953  -13.0916 C   0  0  0  0  0  0  0  0  0  0  0  0
   43.5339   16.1754  -12.5823 N   0  0  0  0  0  0  0  0  0  0  0  0
   43.8558   16.1653  -11.2272 C   0  0  0  0  0  0  0  0  0  0  0  0
   43.1194   15.4410  -10.4646 O   0  0  0  0  0  0  0  0  0  0  0  0
   44.1100   16.7535  -13.2453 H   0  0  0  0  0  0  0  0  0  0  0  0
   44.9574   16.9083  -10.6225 C   0  0  0  0  0  0  0  0  0  0  0  0
   45.5632   16.2877   -9.5136 N   0  0  0  0  0  0  0  0  0  0  0  0
   45.4396   16.9425   -8.2282 C   0  0  0  0  0  0  0  0  0  0  0  0
   44.8027   17.9991   -8.1680 O   0  0  0  0  0  0  0  0  0  0  0  0
   46.0827   15.4123   -9.5436 H   0  0  0  0  0  0  0  0  0  0  0  0
   46.0872   16.3203   -7.0144 C   0  0  0  0  0  0  0  0  0  0  0  0
   46.9477   17.3617   -6.3678 C   0  0  0  0  0  0  0  0  0  0  0  0
   48.3376   16.8013   -6.4321 C   0  0  0  0  0  0  0  0  0  0  0  0
   48.2876   15.6914   -7.4329 C   0  0  0  0  0  0  0  0  0  0  0  0
   46.8963   15.2065   -7.3177 N   0  0  0  0  0  0  0  0  0  0  0  0
   46.5707   13.8667   -7.5410 C   0  0  0  0  0  0  0  0  0  0  0  0
   47.6015   13.0928   -7.7374 O   0  0  0  0  0  0  0  0  0  0  0  0
   45.3022   13.1727   -7.5994 C   0  0  0  0  0  0  0  0  0  0  0  0
   44.6466   13.3431   -8.9051 N   0  0  0  0  0  0  0  0  0  0  0  0
   44.8310   12.4509   -9.4588 H   0  0  0  0  0  0  0  0  0  0  0  0
   43.6061   13.3609   -8.7727 H   0  0  0  0  0  0  0  0  0  0  0  0
   45.2899   11.7162   -7.2678 C   0  0  0  0  0  0  0  0  0  0  0  0
   45.2532   11.3077   -5.8630 C   0  0  0  0  0  0  0  0  0  0  0  0
   46.3475   11.2096   -4.9851 C   0  0  0  0  0  0  0  0  0  0  0  0
   45.9288   10.7802   -3.7790 N   0  0  0  0  0  0  0  0  0  0  0  0
   44.6007   10.5899   -3.8237 C   0  0  0  0  0  0  0  0  0  0  0  0
   43.6797   10.1786   -2.8600 C   0  0  0  0  0  0  0  0  0  0  0  0
   42.3428   10.0843   -3.1472 C   0  0  0  0  0  0  0  0  0  0  0  0
   41.8883   10.3976   -4.4032 C   0  0  0  0  0  0  0  0  0  0  0  0
   42.7977   10.7984   -5.3423 C   0  0  0  0  0  0  0  0  0  0  0  0
   44.1505   10.9075   -5.0996 C   0  0  0  0  0  0  0  0  0  0  0  0
   46.5744   10.6359   -2.9757 H   0  0  0  0  0  0  0  0  0  0  0  0
   40.2553   15.1216  -11.7806 N   0  0  0  0  0  0  0  0  0  0  0  0
   41.1303   15.9037  -12.5435 C   0  0  0  0  0  0  0  0  0  0  0  0
   40.8513   17.0990  -12.7943 O   0  0  0  0  0  0  0  0  0  0  0  0
   40.5723   14.1143  -11.6190 H   0  0  0  0  0  0  0  0  0  0  0  0
   39.0157   15.5458  -11.2270 C   0  0  0  0  0  0  0  0  0  0  0  0
   37.9049   15.1356  -12.0849 C   0  0  0  0  0  0  0  0  0  0  0  0
   38.1080   15.2062  -13.3520 O   0  0  0  0  0  0  0  0  0  0  0  0
   36.6495   14.6761  -11.6365 N   0  0  0  0  0  0  0  0  0  0  0  0
   36.3873   14.6046  -10.6357 H   0  0  0  0  0  0  0  0  0  0  0  0
   35.6432   14.2778  -12.6144 C   0  0  0  0  0  0  0  0  0  0  0  0
   34.3280   14.8524  -12.1186 C   0  0  0  0  0  0  0  0  0  0  0  0
   34.2358   15.4249  -10.8363 N   0  0  0  0  0  0  0  0  0  0  0  0
   33.2988   14.8278  -12.8405 O   0  0  0  0  0  0  0  0  0  0  0  0
   34.9265   16.1294  -10.5295 H   0  0  0  0  0  0  0  0  0  0  0  0
   33.4784   15.1429  -10.1962 H   0  0  0  0  0  0  0  0  0  0  0  0
   35.4681   12.7836  -12.6821 C   0  0  0  0  0  0  0  0  0  0  0  0
   35.2477   12.2554  -14.0379 C   0  0  0  0  0  0  0  0  0  0  0  0
   36.2647   12.2098  -14.9491 C   0  0  0  0  0  0  0  0  0  0  0  0
   36.0341   11.7132  -16.2157 C   0  0  0  0  0  0  0  0  0  0  0  0
   34.7767   11.2674  -16.5535 C   0  0  0  0  0  0  0  0  0  0  0  0
   33.7306   11.3013  -15.6553 C   0  0  0  0  0  0  0  0  0  0  0  0
   33.9911   11.8064  -14.3813 C   0  0  0  0  0  0  0  0  0  0  0  0
   38.9129   16.8745  -10.5876 C   0  0  0  0  0  0  0  0  0  0  0  0
   38.7614   15.8474   -8.2435 C   0  0  0  0  0  0  0  0  0  0  0  0
   38.4580   16.9577   -9.1866 C   0  0  0  0  0  0  0  0  0  0  0  0
   36.9637   17.2581   -9.0706 C   0  0  0  0  0  0  0  0  0  0  0  0
   42.6237   13.9465  -13.0676 C   0  0  0  0  0  0  0  0  0  0  0  0
   42.6717   13.4343  -14.4739 C   0  0  0  0  0  0  0  0  0  0  0  0
   43.8297   13.2186  -15.2252 C   0  0  0  0  0  0  0  0  0  0  0  0
   43.4516   12.7491  -16.4283 N   0  0  0  0  0  0  0  0  0  0  0  0
   42.1164   12.6394  -16.5261 C   0  0  0  0  0  0  0  0  0  0  0  0
   41.3143   12.2125  -17.5528 C   0  0  0  0  0  0  0  0  0  0  0  0
   39.9494   12.2213  -17.3263 C   0  0  0  0  0  0  0  0  0  0  0  0
   39.4418   12.6413  -16.1234 C   0  0  0  0  0  0  0  0  0  0  0  0
   40.2538   13.0670  -15.1002 C   0  0  0  0  0  0  0  0  0  0  0  0
   41.6213   13.0710  -15.2922 C   0  0  0  0  0  0  0  0  0  0  0  0
   44.0993   12.4834  -17.2284 H   0  0  0  0  0  0  0  0  0  0  0  0
 56 57  1  0  0  0
 57 58  1  0  0  0
 57 55  1  0  0  0
 55 37  1  0  0  0
 37 33  1  0  0  0
 33 34  1  0  0  0
 34 35  2  0  0  0
 34  1  1  0  0  0
  1 59  1  0  0  0
 59 60  1  0  0  0
 60 61  2  0  0  0
 61 62  1  0  0  0
 62 63  1  0  0  0
 63 64  2  0  0  0
 64 65  1  0  0  0
 65 66  2  0  0  0
 66 67  1  0  0  0
 67 68  2  0  0  0
  1  2  1  0  0  0
  2  3  1  0  0  0
  3  4  2  0  0  0
  3  6  1  0  0  0
  6  7  1  0  0  0
  7  8  1  0  0  0
  8  9  2  0  0  0
  8 11  1  0  0  0
 11 12  1  0  0  0
 12 13  1  0  0  0
 13 14  1  0  0  0
 14 15  1  0  0  0
 15 16  1  0  0  0
 16 17  2  0  0  0
 16 18  1  0  0  0
 18 19  1  0  0  0
 18 22  1  0  0  0
 22 23  1  0  0  0
 23 24  2  0  0  0
 24 25  1  0  0  0
 25 26  1  0  0  0
 26 27  2  0  0  0
 27 28  1  0  0  0
 28 29  2  0  0  0
 29 30  1  0  0  0
 30 31  2  0  0  0
 37 38  1  0  0  0
 38 39  2  0  0  0
 38 40  1  0  0  0
 40 42  1  0  0  0
 42 48  1  0  0  0
 48 49  1  0  0  0
 49 50  2  0  0  0
 50 51  1  0  0  0
 51 52  2  0  0  0
 52 53  1  0  0  0
 53 54  2  0  0  0
 42 43  1  0  0  0
 43 44  1  0  0  0
 43 45  2  0  0  0
 68 60  1  0  0  0
 15 11  1  0  0  0
 31 23  1  0  0  0
 54 49  1  0  0  0
 68 63  1  0  0  0
 31 26  1  0  0  0
 33 36  1  0  0  0
 62 69  1  0  0  0
  2  5  1  0  0  0
  7 10  1  0  0  0
 19 20  1  0  0  0
 19 21  1  0  0  0
 25 32  1  0  0  0
 40 41  1  0  0  0
 44 46  1  0  0  0
 44 47  1  0  0  0
M  END
> <minimizedAffinity>
-9.09521

> <CNNscore>
0.1997998059

> <CNNaffinity>
7.1761598587

> <CNN_VS>
1.4337953329

> <CNNaffinity_variance>
0.6259394884

$$$$
[H]c1c([H])c([H])c(C([H])([H])[C@@]([H])(C(=O)N([H])[H])N([H])C(=O)[C@@]([H])(N([H])C(=O)[C@@]([H])(N([H])C(=O)C([H])([H])N([H])C(=O)[C@@]2([H])N(C(=O)[C@@]([H])(N([H])[H])C([H])([H])c3c([H])n([H])c4c([H])c([H])c([H])c([H])c34)C([H])([H])C([H])([H])C2([H])[H])C([H])([H])c2c([H])n([H])c3c([H])c([H])c([H])c([H])c23)C([H])([H])C([H])(C([H])([H])[H])C([H])([H])[H])c([H])c1[H]


 69 74  0  0  0  0  0  0  0  0999 V2000
   36.5885   14.4508  -13.3577 C   0  0  0  0  0  0  0  0  0  0  0  0
   36.9559   15.6603  -12.6305 N   0  0  0  0  0  0  0  0  0  0  0  0
   36.5490   15.8543  -11.3126 C   0  0  0  0  0  0  0  0  0  0  0  0
   35.8431   14.9215  -10.7835 O   0  0  0  0  0  0  0  0  0  0  0  0
   37.5368   16.3972  -13.1051 H   0  0  0  0  0  0  0  0  0  0  0  0
   36.8665   17.0261  -10.5019 C   0  0  0  0  0  0  0  0  0  0  0  0
   36.0857   17.1829   -9.3412 N   0  0  0  0  0  0  0  0  0  0  0  0
   36.6276   17.9963   -8.2730 C   0  0  0  0  0  0  0  0  0  0  0  0
   37.7350   18.5179   -8.4383 O   0  0  0  0  0  0  0  0  0  0  0  0
   35.1672   16.7687   -9.1926 H   0  0  0  0  0  0  0  0  0  0  0  0
   35.8310   18.1786   -7.0033 C   0  0  0  0  0  0  0  0  0  0  0  0
   36.2869   19.4484   -6.3531 C   0  0  0  0  0  0  0  0  0  0  0  0
   36.8364   19.0203   -5.0247 C   0  0  0  0  0  0  0  0  0  0  0  0
   37.0421   17.5425   -5.1216 C   0  0  0  0  0  0  0  0  0  0  0  0
   35.9966   17.1266   -6.0798 N   0  0  0  0  0  0  0  0  0  0  0  0
   35.3937   15.8691   -6.0003 C   0  0  0  0  0  0  0  0  0  0  0  0
   35.7510   15.1712   -4.9586 O   0  0  0  0  0  0  0  0  0  0  0  0
   34.4475   15.1903   -6.8592 C   0  0  0  0  0  0  0  0  0  0  0  0
   35.1235   14.4180   -7.9130 N   0  0  0  0  0  0  0  0  0  0  0  0
   35.1232   13.4005   -7.5946 H   0  0  0  0  0  0  0  0  0  0  0  0
   34.5341   14.4229   -8.7809 H   0  0  0  0  0  0  0  0  0  0  0  0
   33.4380   14.2979   -6.2142 C   0  0  0  0  0  0  0  0  0  0  0  0
   32.0167   14.6213   -6.3457 C   0  0  0  0  0  0  0  0  0  0  0  0
   31.0195   13.8165   -6.9249 C   0  0  0  0  0  0  0  0  0  0  0  0
   29.8352   14.4569   -6.8853 N   0  0  0  0  0  0  0  0  0  0  0  0
   30.0089   15.6540   -6.3032 C   0  0  0  0  0  0  0  0  0  0  0  0
   29.1210   16.6861   -5.9990 C   0  0  0  0  0  0  0  0  0  0  0  0
   29.5438   17.8253   -5.3649 C   0  0  0  0  0  0  0  0  0  0  0  0
   30.8635   17.9659   -5.0169 C   0  0  0  0  0  0  0  0  0  0  0  0
   31.7274   16.9503   -5.3200 C   0  0  0  0  0  0  0  0  0  0  0  0
   31.3481   15.7877   -5.9567 C   0  0  0  0  0  0  0  0  0  0  0  0
   28.9569   14.0436   -7.2608 H   0  0  0  0  0  0  0  0  0  0  0  0
   38.8662   13.8874  -14.3268 N   0  0  0  0  0  0  0  0  0  0  0  0
   37.7658   13.5634  -13.5248 C   0  0  0  0  0  0  0  0  0  0  0  0
   37.7398   12.4783  -12.8991 O   0  0  0  0  0  0  0  0  0  0  0  0
   38.8014   14.8303  -14.8249 H   0  0  0  0  0  0  0  0  0  0  0  0
   40.0228   13.0848  -14.5295 C   0  0  0  0  0  0  0  0  0  0  0  0
   41.2325   13.8382  -14.2019 C   0  0  0  0  0  0  0  0  0  0  0  0
   41.0615   15.0578  -13.8343 O   0  0  0  0  0  0  0  0  0  0  0  0
   42.5497   13.3380  -14.2573 N   0  0  0  0  0  0  0  0  0  0  0  0
   42.7868   12.3753  -14.5611 H   0  0  0  0  0  0  0  0  0  0  0  0
   43.6598   14.2042  -13.8765 C   0  0  0  0  0  0  0  0  0  0  0  0
   44.6722   14.1065  -15.0041 C   0  0  0  0  0  0  0  0  0  0  0  0
   44.2579   13.7920  -16.3118 N   0  0  0  0  0  0  0  0  0  0  0  0
   45.8959   14.3031  -14.7928 O   0  0  0  0  0  0  0  0  0  0  0  0
   43.4748   14.3058  -16.7478 H   0  0  0  0  0  0  0  0  0  0  0  0
   44.7341   13.0462  -16.8409 H   0  0  0  0  0  0  0  0  0  0  0  0
   44.3533   13.7324  -12.6259 C   0  0  0  0  0  0  0  0  0  0  0  0
   43.7822   14.2580  -11.3756 C   0  0  0  0  0  0  0  0  0  0  0  0
   43.6660   13.4666  -10.2678 C   0  0  0  0  0  0  0  0  0  0  0  0
   43.1245   13.9801   -9.1072 C   0  0  0  0  0  0  0  0  0  0  0  0
   42.7025   15.2895   -9.0742 C   0  0  0  0  0  0  0  0  0  0  0  0
   42.8065   16.1121  -10.1762 C   0  0  0  0  0  0  0  0  0  0  0  0
   43.3591   15.5688  -11.3362 C   0  0  0  0  0  0  0  0  0  0  0  0
   40.0932   12.1785  -15.6950 C   0  0  0  0  0  0  0  0  0  0  0  0
   40.0453   11.8668  -18.2392 C   0  0  0  0  0  0  0  0  0  0  0  0
   39.8586   12.7313  -17.0426 C   0  0  0  0  0  0  0  0  0  0  0  0
   40.6339   14.0253  -17.2904 C   0  0  0  0  0  0  0  0  0  0  0  0
   35.7534   14.6860  -14.5375 C   0  0  0  0  0  0  0  0  0  0  0  0
   34.9754   13.4436  -14.8434 C   0  0  0  0  0  0  0  0  0  0  0  0
   33.7182   13.1196  -14.3272 C   0  0  0  0  0  0  0  0  0  0  0  0
   33.3588   11.9323  -14.8486 N   0  0  0  0  0  0  0  0  0  0  0  0
   34.2964   11.4450  -15.6779 C   0  0  0  0  0  0  0  0  0  0  0  0
   34.3451   10.2882  -16.4121 C   0  0  0  0  0  0  0  0  0  0  0  0
   35.4766   10.0816  -17.1810 C   0  0  0  0  0  0  0  0  0  0  0  0
   36.4919   11.0036  -17.1946 C   0  0  0  0  0  0  0  0  0  0  0  0
   36.4339   12.1604  -16.4557 C   0  0  0  0  0  0  0  0  0  0  0  0
   35.3186   12.3985  -15.6770 C   0  0  0  0  0  0  0  0  0  0  0  0
   32.4518   11.4124  -14.6553 H   0  0  0  0  0  0  0  0  0  0  0  0
 56 57  1  0  0  0
 57 58  1  0  0  0
 57 55  1  0  0  0
 55 37  1  0  0  0
 37 33  1  0  0  0
 33 34  1  0  0  0
 34 35  2  0  0  0
 34  1  1  0  0  0
  1 59  1  0  0  0
 59 60  1  0  0  0
 60 61  2  0  0  0
 61 62  1  0  0  0
 62 63  1  0  0  0
 63 64  2  0  0  0
 64 65  1  0  0  0
 65 66  2  0  0  0
 66 67  1  0  0  0
 67 68  2  0  0  0
  1  2  1  0  0  0
  2  3  1  0  0  0
  3  4  2  0  0  0
  3  6  1  0  0  0
  6  7  1  0  0  0
  7  8  1  0  0  0
  8  9  2  0  0  0
  8 11  1  0  0  0
 11 12  1  0  0  0
 12 13  1  0  0  0
 13 14  1  0  0  0
 14 15  1  0  0  0
 15 16  1  0  0  0
 16 17  2  0  0  0
 16 18  1  0  0  0
 18 19  1  0  0  0
 18 22  1  0  0  0
 22 23  1  0  0  0
 23 24  2  0  0  0
 24 25  1  0  0  0
 25 26  1  0  0  0
 26 27  2  0  0  0
 27 28  1  0  0  0
 28 29  2  0  0  0
 29 30  1  0  0  0
 30 31  2  0  0  0
 37 38  1  0  0  0
 38 39  2  0  0  0
 38 40  1  0  0  0
 40 42  1  0  0  0
 42 48  1  0  0  0
 48 49  1  0  0  0
 49 50  2  0  0  0
 50 51  1  0  0  0
 51 52  2  0  0  0
 52 53  1  0  0  0
 53 54  2  0  0  0
 42 43  1  0  0  0
 43 44  1  0  0  0
 43 45  2  0  0  0
 68 60  1  0  0  0
 15 11  1  0  0  0
 31 23  1  0  0  0
 54 49  1  0  0  0
 68 63  1  0  0  0
 31 26  1  0  0  0
 33 36  1  0  0  0
 62 69  1  0  0  0
  2  5  1  0  0  0
  7 10  1  0  0  0
 19 20  1  0  0  0
 19 21  1  0  0  0
 25 32  1  0  0  0
 40 41  1  0  0  0
 44 46  1  0  0  0
 44 47  1  0  0  0
M  END
> <minimizedAffinity>
-9.50948

> <CNNscore>
0.1853877753

> <CNNaffinity>
7.3905906677

> <CNN_VS>
1.3701251745

> <CNNaffinity_variance>
1.0117648840

$$$$
[H]c1nc(N2C([H])([H])C([H])([H])c3nc(N4C([H])([H])C([H])([H])C([H])([H])C([H])([H])C4([H])[H])nc(N([H])c4nc([H])c(C(F)(F)F)c([H])c4[H])c3C([H])([H])C2([H])[H])c(C(F)(F)F)c([H])c1[H]


 39 43  0  0  0  0  0  0  0  0999 V2000
   40.8498   15.8040  -12.5617 C   0  0  0  0  0  0  0  0  0  0  0  0
   41.9649   16.1192  -11.9100 N   0  0  0  0  0  0  0  0  0  0  0  0
   43.1199   15.4144  -12.0859 C   0  0  0  0  0  0  0  0  0  0  0  0
   43.2036   14.3616  -12.9412 N   0  0  0  0  0  0  0  0  0  0  0  0
   42.1141   14.0139  -13.6273 C   0  0  0  0  0  0  0  0  0  0  0  0
   42.3937   12.8918  -14.5948 C   0  0  0  0  0  0  0  0  0  0  0  0
   42.0576   13.4516  -15.9760 C   0  0  0  0  0  0  0  0  0  0  0  0
   40.6514   13.6596  -16.1305 N   0  0  0  0  0  0  0  0  0  0  0  0
   39.8335   14.7557  -15.6445 C   0  0  0  0  0  0  0  0  0  0  0  0
   39.6535   14.5674  -14.1062 C   0  0  0  0  0  0  0  0  0  0  0  0
   40.9594   14.7145  -13.4382 C   0  0  0  0  0  0  0  0  0  0  0  0
   39.9262   12.6669  -16.8305 C   0  0  0  0  0  0  0  0  0  0  0  0
   40.3725   12.3088  -18.0968 N   0  0  0  0  0  0  0  0  0  0  0  0
   39.7595   11.3989  -18.8447 C   0  0  0  0  0  0  0  0  0  0  0  0
   38.6346   10.8119  -18.3152 C   0  0  0  0  0  0  0  0  0  0  0  0
   38.1684   11.1466  -17.0686 C   0  0  0  0  0  0  0  0  0  0  0  0
   38.8127   12.0964  -16.2776 C   0  0  0  0  0  0  0  0  0  0  0  0
   38.3107   12.3960  -14.9438 C   0  0  0  0  0  0  0  0  0  0  0  0
   37.6423   13.5686  -14.7876 F   0  0  0  0  0  0  0  0  0  0  0  0
   39.2092   12.2180  -13.9034 F   0  0  0  0  0  0  0  0  0  0  0  0
   37.3152   11.4089  -14.6494 F   0  0  0  0  0  0  0  0  0  0  0  0
   44.2990   15.5937  -11.2793 N   0  0  0  0  0  0  0  0  0  0  0  0
   45.1149   14.3968  -11.0767 C   0  0  0  0  0  0  0  0  0  0  0  0
   46.4581   14.7886  -10.5067 C   0  0  0  0  0  0  0  0  0  0  0  0
   46.2806   15.5922   -9.2274 C   0  0  0  0  0  0  0  0  0  0  0  0
   45.4185   16.7868   -9.4234 C   0  0  0  0  0  0  0  0  0  0  0  0
   44.6979   16.8295  -10.7226 C   0  0  0  0  0  0  0  0  0  0  0  0
   39.6039   16.3312  -12.2258 N   0  0  0  0  0  0  0  0  0  0  0  0
   39.3214   17.1733  -12.8744 H   0  0  0  0  0  0  0  0  0  0  0  0
   36.5198   15.5364   -9.5205 C   0  0  0  0  0  0  0  0  0  0  0  0
   37.8340   15.2976   -9.1522 C   0  0  0  0  0  0  0  0  0  0  0  0
   38.8715   15.5081  -10.0340 C   0  0  0  0  0  0  0  0  0  0  0  0
   38.6242   15.9707  -11.3079 C   0  0  0  0  0  0  0  0  0  0  0  0
   37.3137   16.1849  -11.6419 N   0  0  0  0  0  0  0  0  0  0  0  0
   36.2871   15.9841  -10.8074 C   0  0  0  0  0  0  0  0  0  0  0  0
   34.1897   15.5500   -9.2666 F   0  0  0  0  0  0  0  0  0  0  0  0
   35.3917   15.3606   -8.5964 C   0  0  0  0  0  0  0  0  0  0  0  0
   35.3690   14.1778   -7.9434 F   0  0  0  0  0  0  0  0  0  0  0  0
   35.4811   16.4273   -7.6924 F   0  0  0  0  0  0  0  0  0  0  0  0
 36 37  1  0  0  0
 37 38  1  0  0  0
 37 39  1  0  0  0
 37 30  1  0  0  0
 30 31  2  0  0  0
 31 32  1  0  0  0
 32 33  2  0  0  0
 33 28  1  0  0  0
 28  1  1  0  0  0
  1  2  2  0  0  0
  2  3  1  0  0  0
  3  4  2  0  0  0
  4  5  1  0  0  0
  5  6  1  0  0  0
  6  7  1  0  0  0
  7  8  1  0  0  0
  8  9  1  0  0  0
  9 10  1  0  0  0
 10 11  1  0  0  0
  8 12  1  0  0  0
 12 13  2  0  0  0
 13 14  1  0  0  0
 14 15  2  0  0  0
 15 16  1  0  0  0
 16 17  2  0  0  0
 17 18  1  0  0  0
 18 19  1  0  0  0
 18 20  1  0  0  0
 18 21  1  0  0  0
  3 22  1  0  0  0
 22 23  1  0  0  0
 23 24  1  0  0  0
 24 25  1  0  0  0
 25 26  1  0  0  0
 26 27  1  0  0  0
 33 34  1  0  0  0
 34 35  2  0  0  0
 35 30  1  0  0  0
 11  1  1  0  0  0
 17 12  1  0  0  0
 27 22  1  0  0  0
 11  5  2  0  0  0
 28 29  1  0  0  0
M  END
> <minimizedAffinity>
-8.08585

> <CNNscore>
0.0522561893

> <CNNaffinity>
6.6116476059

> <CNN_VS>
0.3454995155

> <CNNaffinity_variance>
0.1174919978

$$$$
[H]c1nc(N2C([H])([H])C([H])([H])c3nc(N4C([H])([H])C([H])([H])C([H])([H])C([H])([H])C4([H])[H])nc(N([H])c4nc([H])c(C(F)(F)F)c([H])c4[H])c3C([H])([H])C2([H])[H])c(C(F)(F)F)c([H])c1[H]


 39 43  0  0  0  0  0  0  0  0999 V2000
   39.4209   16.3341   -8.9975 C   0  0  0  0  0  0  0  0  0  0  0  0
   38.1302   16.5497   -8.7629 N   0  0  0  0  0  0  0  0  0  0  0  0
   37.4864   15.9637   -7.7122 C   0  0  0  0  0  0  0  0  0  0  0  0
   38.1238   15.1388   -6.8403 N   0  0  0  0  0  0  0  0  0  0  0  0
   39.4227   14.9007   -7.0268 C   0  0  0  0  0  0  0  0  0  0  0  0
   40.0001   14.0439   -5.9287 C   0  0  0  0  0  0  0  0  0  0  0  0
   41.1069   14.8851   -5.2950 C   0  0  0  0  0  0  0  0  0  0  0  0
   42.2151   15.0503   -6.1835 N   0  0  0  0  0  0  0  0  0  0  0  0
   42.3578   15.9636   -7.3025 C   0  0  0  0  0  0  0  0  0  0  0  0
   41.4793   15.4214   -8.4722 C   0  0  0  0  0  0  0  0  0  0  0  0
   40.0579   15.4796   -8.0857 C   0  0  0  0  0  0  0  0  0  0  0  0
   43.3331   14.2069   -5.9829 C   0  0  0  0  0  0  0  0  0  0  0  0
   43.3685   13.0011   -6.6728 N   0  0  0  0  0  0  0  0  0  0  0  0
   44.3631   12.1304   -6.5483 C   0  0  0  0  0  0  0  0  0  0  0  0
   45.3806   12.4652   -5.6862 C   0  0  0  0  0  0  0  0  0  0  0  0
   45.3721   13.6475   -4.9894 C   0  0  0  0  0  0  0  0  0  0  0  0
   44.3332   14.5672   -5.1223 C   0  0  0  0  0  0  0  0  0  0  0  0
   44.3792   15.8289   -4.3963 C   0  0  0  0  0  0  0  0  0  0  0  0
   43.3879   16.0563   -3.4955 F   0  0  0  0  0  0  0  0  0  0  0  0
   44.5942   16.9629   -5.1640 F   0  0  0  0  0  0  0  0  0  0  0  0
   45.5586   15.7914   -3.5841 F   0  0  0  0  0  0  0  0  0  0  0  0
   36.0610   16.0152   -7.5161 N   0  0  0  0  0  0  0  0  0  0  0  0
   35.3172   14.8403   -7.9696 C   0  0  0  0  0  0  0  0  0  0  0  0
   33.9120   14.8843   -7.4164 C   0  0  0  0  0  0  0  0  0  0  0  0
   33.2280   16.1873   -7.8013 C   0  0  0  0  0  0  0  0  0  0  0  0
   34.0033   17.3817   -7.3761 C   0  0  0  0  0  0  0  0  0  0  0  0
   35.3834   17.0943   -6.9055 C   0  0  0  0  0  0  0  0  0  0  0  0
   40.0449   16.7063  -10.1871 N   0  0  0  0  0  0  0  0  0  0  0  0
   40.5625   17.6728  -10.0992 H   0  0  0  0  0  0  0  0  0  0  0  0
   40.3501   14.6040  -13.7855 C   0  0  0  0  0  0  0  0  0  0  0  0
   41.4985   15.0547  -13.1548 C   0  0  0  0  0  0  0  0  0  0  0  0
   41.4318   15.7875  -11.9900 C   0  0  0  0  0  0  0  0  0  0  0  0
   40.2137   16.0842  -11.4187 C   0  0  0  0  0  0  0  0  0  0  0  0
   39.0995   15.6333  -12.0746 N   0  0  0  0  0  0  0  0  0  0  0  0
   39.1354   14.9245  -13.2089 C   0  0  0  0  0  0  0  0  0  0  0  0
   40.1866   14.5902  -16.1237 F   0  0  0  0  0  0  0  0  0  0  0  0
   40.3830   13.7881  -15.0066 C   0  0  0  0  0  0  0  0  0  0  0  0
   41.5016   13.0475  -15.1671 F   0  0  0  0  0  0  0  0  0  0  0  0
   39.2484   12.9689  -14.9377 F   0  0  0  0  0  0  0  0  0  0  0  0
 36 37  1  0  0  0
 37 38  1  0  0  0
 37 39  1  0  0  0
 37 30  1  0  0  0
 30 31  2  0  0  0
 31 32  1  0  0  0
 32 33  2  0  0  0
 33 28  1  0  0  0
 28  1  1  0  0  0
  1  2  2  0  0  0
  2  3  1  0  0  0
  3  4  2  0  0  0
  4  5  1  0  0  0
  5  6  1  0  0  0
  6  7  1  0  0  0
  7  8  1  0  0  0
  8  9  1  0  0  0
  9 10  1  0  0  0
 10 11  1  0  0  0
  8 12  1  0  0  0
 12 13  2  0  0  0
 13 14  1  0  0  0
 14 15  2  0  0  0
 15 16  1  0  0  0
 16 17  2  0  0  0
 17 18  1  0  0  0
 18 19  1  0  0  0
 18 20  1  0  0  0
 18 21  1  0  0  0
  3 22  1  0  0  0
 22 23  1  0  0  0
 23 24  1  0  0  0
 24 25  1  0  0  0
 25 26  1  0  0  0
 26 27  1  0  0  0
 33 34  1  0  0  0
 34 35  2  0  0  0
 35 30  1  0  0  0
 11  1  1  0  0  0
 17 12  1  0  0  0
 27 22  1  0  0  0
 11  5  2  0  0  0
 28 29  1  0  0  0
M  END
> <minimizedAffinity>
-6.57921

> <CNNscore>
0.0375019126

> <CNNaffinity>
5.9239845276

> <CNN_VS>
0.2221607566

> <CNNaffinity_variance>
0.0717391074

$$$$
[H]c1nc(N2C([H])([H])C([H])([H])c3nc(N4C([H])([H])C([H])([H])C([H])([H])C([H])([H])C4([H])[H])nc(N([H])c4nc([H])c(C(F)(F)F)c([H])c4[H])c3C([H])([H])C2([H])[H])c(C(F)(F)F)c([H])c1[H]


 39 43  0  0  0  0  0  0  0  0999 V2000
   41.2479   14.1841  -14.0540 C   0  0  0  0  0  0  0  0  0  0  0  0
   40.0720   14.6025  -13.5962 N   0  0  0  0  0  0  0  0  0  0  0  0
   39.9696   15.3289  -12.4456 C   0  0  0  0  0  0  0  0  0  0  0  0
   41.0572   15.6769  -11.7088 N   0  0  0  0  0  0  0  0  0  0  0  0
   42.2609   15.2906  -12.1336 C   0  0  0  0  0  0  0  0  0  0  0  0
   43.3649   15.8307  -11.2602 C   0  0  0  0  0  0  0  0  0  0  0  0
   44.2395   16.6756  -12.1850 C   0  0  0  0  0  0  0  0  0  0  0  0
   44.9481   15.8634  -13.1247 N   0  0  0  0  0  0  0  0  0  0  0  0
   44.4682   15.2673  -14.3580 C   0  0  0  0  0  0  0  0  0  0  0  0
   43.5555   14.0605  -13.9777 C   0  0  0  0  0  0  0  0  0  0  0  0
   42.3559   14.5544  -13.2777 C   0  0  0  0  0  0  0  0  0  0  0  0
   46.2987   15.5645  -12.8285 C   0  0  0  0  0  0  0  0  0  0  0  0
   46.5627   14.4178  -12.0893 N   0  0  0  0  0  0  0  0  0  0  0  0
   47.7915   14.0512  -11.7452 C   0  0  0  0  0  0  0  0  0  0  0  0
   48.8217   14.8680  -12.1479 C   0  0  0  0  0  0  0  0  0  0  0  0
   48.5919   16.0079  -12.8767 C   0  0  0  0  0  0  0  0  0  0  0  0
   47.3041   16.3929  -13.2456 C   0  0  0  0  0  0  0  0  0  0  0  0
   47.1037   17.5882  -14.0532 C   0  0  0  0  0  0  0  0  0  0  0  0
   46.3976   18.6014  -13.4868 F   0  0  0  0  0  0  0  0  0  0  0  0
   46.6728   17.3764  -15.3535 F   0  0  0  0  0  0  0  0  0  0  0  0
   48.3985   18.1653  -14.2590 F   0  0  0  0  0  0  0  0  0  0  0  0
   38.7186   15.6509  -11.8099 N   0  0  0  0  0  0  0  0  0  0  0  0
   37.5166   15.2326  -12.5307 C   0  0  0  0  0  0  0  0  0  0  0  0
   36.3166   15.3333  -11.6184 C   0  0  0  0  0  0  0  0  0  0  0  0
   36.1932   16.7402  -11.0531 C   0  0  0  0  0  0  0  0  0  0  0  0
   37.4289   17.1812  -10.3552 C   0  0  0  0  0  0  0  0  0  0  0  0
   38.6088   16.3010  -10.5602 C   0  0  0  0  0  0  0  0  0  0  0  0
   41.3696   13.2398  -15.0721 N   0  0  0  0  0  0  0  0  0  0  0  0
   42.3797   12.8071  -15.1178 H   0  0  0  0  0  0  0  0  0  0  0  0
   38.5866   11.3569  -17.5563 C   0  0  0  0  0  0  0  0  0  0  0  0
   39.8726   11.5874  -18.0177 C   0  0  0  0  0  0  0  0  0  0  0  0
   40.8022   12.2437  -17.2409 C   0  0  0  0  0  0  0  0  0  0  0  0
   40.4736   12.6818  -15.9767 C   0  0  0  0  0  0  0  0  0  0  0  0
   39.1914   12.4476  -15.5575 N   0  0  0  0  0  0  0  0  0  0  0  0
   38.2678   11.8176  -16.2927 C   0  0  0  0  0  0  0  0  0  0  0  0
   36.3360   11.2278  -18.1983 F   0  0  0  0  0  0  0  0  0  0  0  0
   37.5808   10.6275  -18.3399 C   0  0  0  0  0  0  0  0  0  0  0  0
   37.8730   10.4860  -19.6515 F   0  0  0  0  0  0  0  0  0  0  0  0
   37.4594    9.3776  -17.7186 F   0  0  0  0  0  0  0  0  0  0  0  0
 36 37  1  0  0  0
 37 38  1  0  0  0
 37 39  1  0  0  0
 37 30  1  0  0  0
 30 31  2  0  0  0
 31 32  1  0  0  0
 32 33  2  0  0  0
 33 28  1  0  0  0
 28  1  1  0  0  0
  1  2  2  0  0  0
  2  3  1  0  0  0
  3  4  2  0  0  0
  4  5  1  0  0  0
  5  6  1  0  0  0
  6  7  1  0  0  0
  7  8  1  0  0  0
  8  9  1  0  0  0
  9 10  1  0  0  0
 10 11  1  0  0  0
  8 12  1  0  0  0
 12 13  2  0  0  0
 13 14  1  0  0  0
 14 15  2  0  0  0
 15 16  1  0  0  0
 16 17  2  0  0  0
 17 18  1  0  0  0
 18 19  1  0  0  0
 18 20  1  0  0  0
 18 21  1  0  0  0
  3 22  1  0  0  0
 22 23  1  0  0  0
 23 24  1  0  0  0
 24 25  1  0  0  0
 25 26  1  0  0  0
 26 27  1  0  0  0
 33 34  1  0  0  0
 34 35  2  0  0  0
 35 30  1  0  0  0
 11  1  1  0  0  0
 17 12  1  0  0  0
 27 22  1  0  0  0
 11  5  2  0  0  0
 28 29  1  0  0  0
M  END
> <minimizedAffinity>
-8.43314

> <CNNscore>
0.0351665542

> <CNNaffinity>
6.5938425064

> <CNN_VS>
0.2318827212

> <CNNaffinity_variance>
0.0441773757

$$$$
[H]c1nc(N2C([H])([H])C([H])([H])c3nc(N4C([H])([H])C([H])([H])C([H])([H])C([H])([H])C4([H])[H])nc(N([H])c4nc([H])c(C(F)(F)F)c([H])c4[H])c3C([H])([H])C2([H])[H])c(C(F)(F)F)c([H])c1[H]


 39 43  0  0  0  0  0  0  0  0999 V2000
   38.8884   14.5238  -13.6960 C   0  0  0  0  0  0  0  0  0  0  0  0
   39.9420   13.9656  -14.2840 N   0  0  0  0  0  0  0  0  0  0  0  0
   41.2129   14.1984  -13.8451 C   0  0  0  0  0  0  0  0  0  0  0  0
   41.4765   15.0002  -12.7800 N   0  0  0  0  0  0  0  0  0  0  0  0
   40.4512   15.5739  -12.1491 C   0  0  0  0  0  0  0  0  0  0  0  0
   40.9011   16.3547  -10.9402 C   0  0  0  0  0  0  0  0  0  0  0  0
   40.1832   15.7161   -9.7524 C   0  0  0  0  0  0  0  0  0  0  0  0
   38.7768   15.9723   -9.7891 N   0  0  0  0  0  0  0  0  0  0  0  0
   37.7513   15.3159  -10.5791 C   0  0  0  0  0  0  0  0  0  0  0  0
   37.8969   15.8114  -12.0513 C   0  0  0  0  0  0  0  0  0  0  0  0
   39.1841   15.3472  -12.5998 C   0  0  0  0  0  0  0  0  0  0  0  0
   38.2907   17.0179   -8.9696 C   0  0  0  0  0  0  0  0  0  0  0  0
   38.1774   18.2838   -9.5314 N   0  0  0  0  0  0  0  0  0  0  0  0
   37.7453   19.3375   -8.8487 C   0  0  0  0  0  0  0  0  0  0  0  0
   37.4115   19.1323   -7.5308 C   0  0  0  0  0  0  0  0  0  0  0  0
   37.5151   17.8943   -6.9477 C   0  0  0  0  0  0  0  0  0  0  0  0
   37.9619   16.7843   -7.6625 C   0  0  0  0  0  0  0  0  0  0  0  0
   38.0206   15.4787   -7.0200 C   0  0  0  0  0  0  0  0  0  0  0  0
   39.2544   14.9438   -6.8263 F   0  0  0  0  0  0  0  0  0  0  0  0
   37.1580   14.5165   -7.5218 F   0  0  0  0  0  0  0  0  0  0  0  0
   37.5263   15.6554   -5.6872 F   0  0  0  0  0  0  0  0  0  0  0  0
   42.3944   13.7707  -14.5480 N   0  0  0  0  0  0  0  0  0  0  0  0
   42.1672   12.8679  -15.6761 C   0  0  0  0  0  0  0  0  0  0  0  0
   43.4256   12.7658  -16.5060 C   0  0  0  0  0  0  0  0  0  0  0  0
   44.5999   12.3303  -15.6426 C   0  0  0  0  0  0  0  0  0  0  0  0
   44.8063   13.2244  -14.4735 C   0  0  0  0  0  0  0  0  0  0  0  0
   43.7043   14.1902  -14.2248 C   0  0  0  0  0  0  0  0  0  0  0  0
   37.6143   14.5133  -14.2614 N   0  0  0  0  0  0  0  0  0  0  0  0
   37.2534   15.5269  -14.4895 H   0  0  0  0  0  0  0  0  0  0  0  0
   35.0431   11.5866  -15.7731 C   0  0  0  0  0  0  0  0  0  0  0  0
   34.6837   12.2956  -14.6382 C   0  0  0  0  0  0  0  0  0  0  0  0
   35.5263   13.2371  -14.0887 C   0  0  0  0  0  0  0  0  0  0  0  0
   36.7502   13.5013  -14.6635 C   0  0  0  0  0  0  0  0  0  0  0  0
   37.0777   12.7744  -15.7767 N   0  0  0  0  0  0  0  0  0  0  0  0
   36.2811   11.8514  -16.3278 C   0  0  0  0  0  0  0  0  0  0  0  0
   33.5975   11.1391  -17.5630 F   0  0  0  0  0  0  0  0  0  0  0  0
   34.1560   10.6037  -16.4092 C   0  0  0  0  0  0  0  0  0  0  0  0
   34.7319    9.4141  -16.6901 F   0  0  0  0  0  0  0  0  0  0  0  0
   33.0835   10.4412  -15.5224 F   0  0  0  0  0  0  0  0  0  0  0  0
 36 37  1  0  0  0
 37 38  1  0  0  0
 37 39  1  0  0  0
 37 30  1  0  0  0
 30 31  2  0  0  0
 31 32  1  0  0  0
 32 33  2  0  0  0
 33 28  1  0  0  0
 28  1  1  0  0  0
  1  2  2  0  0  0
  2  3  1  0  0  0
  3  4  2  0  0  0
  4  5  1  0  0  0
  5  6  1  0  0  0
  6  7  1  0  0  0
  7  8  1  0  0  0
  8  9  1  0  0  0
  9 10  1  0  0  0
 10 11  1  0  0  0
  8 12  1  0  0  0
 12 13  2  0  0  0
 13 14  1  0  0  0
 14 15  2  0  0  0
 15 16  1  0  0  0
 16 17  2  0  0  0
 17 18  1  0  0  0
 18 19  1  0  0  0
 18 20  1  0  0  0
 18 21  1  0  0  0
  3 22  1  0  0  0
 22 23  1  0  0  0
 23 24  1  0  0  0
 24 25  1  0  0  0
 25 26  1  0  0  0
 26 27  1  0  0  0
 33 34  1  0  0  0
 34 35  2  0  0  0
 35 30  1  0  0  0
 11  1  1  0  0  0
 17 12  1  0  0  0
 27 22  1  0  0  0
 11  5  2  0  0  0
 28 29  1  0  0  0
M  END
> <minimizedAffinity>
-8.85307

> <CNNscore>
0.0324543267

> <CNNaffinity>
6.6835145950

> <CNN_VS>
0.2169089615

> <CNNaffinity_variance>
0.1174965650

$$$$
[H]c1nc(N2C([H])([H])C([H])([H])c3nc(N4C([H])([H])C([H])([H])C([H])([H])C([H])([H])C4([H])[H])nc(N([H])c4nc([H])c(C(F)(F)F)c([H])c4[H])c3C([H])([H])C2([H])[H])c(C(F)(F)F)c([H])c1[H]


 39 43  0  0  0  0  0  0  0  0999 V2000
   37.6413   15.3937   -9.1272 C   0  0  0  0  0  0  0  0  0  0  0  0
   38.6609   14.6578   -8.6955 N   0  0  0  0  0  0  0  0  0  0  0  0
   39.0938   14.7235   -7.4032 C   0  0  0  0  0  0  0  0  0  0  0  0
   38.5056   15.5308   -6.4817 N   0  0  0  0  0  0  0  0  0  0  0  0
   37.4706   16.2801   -6.8638 C   0  0  0  0  0  0  0  0  0  0  0  0
   36.8756   17.0466   -5.7097 C   0  0  0  0  0  0  0  0  0  0  0  0
   35.4234   16.5814   -5.6172 C   0  0  0  0  0  0  0  0  0  0  0  0
   34.6532   17.0390   -6.7317 N   0  0  0  0  0  0  0  0  0  0  0  0
   34.5902   16.5010   -8.0783 C   0  0  0  0  0  0  0  0  0  0  0  0
   35.9116   16.8945   -8.8085 C   0  0  0  0  0  0  0  0  0  0  0  0
   37.0501   16.2192   -8.1597 C   0  0  0  0  0  0  0  0  0  0  0  0
   33.8479   18.1848   -6.5315 C   0  0  0  0  0  0  0  0  0  0  0  0
   34.4096   19.4275   -6.7983 N   0  0  0  0  0  0  0  0  0  0  0  0
   33.7477   20.5665   -6.6323 C   0  0  0  0  0  0  0  0  0  0  0  0
   32.4565   20.4752   -6.1684 C   0  0  0  0  0  0  0  0  0  0  0  0
   31.8757   19.2625   -5.8939 C   0  0  0  0  0  0  0  0  0  0  0  0
   32.5648   18.0643   -6.0731 C   0  0  0  0  0  0  0  0  0  0  0  0
   31.9014   16.7950   -5.8088 C   0  0  0  0  0  0  0  0  0  0  0  0
   32.3958   16.0433   -4.7908 F   0  0  0  0  0  0  0  0  0  0  0  0
   31.6569   15.9965   -6.9152 F   0  0  0  0  0  0  0  0  0  0  0  0
   30.5746   17.1100   -5.3701 F   0  0  0  0  0  0  0  0  0  0  0  0
   40.2973   14.0919   -6.9282 N   0  0  0  0  0  0  0  0  0  0  0  0
   40.2851   12.6294   -6.9246 C   0  0  0  0  0  0  0  0  0  0  0  0
   41.6897   12.1104   -6.7233 C   0  0  0  0  0  0  0  0  0  0  0  0
   42.2946   12.6880   -5.4527 C   0  0  0  0  0  0  0  0  0  0  0  0
   42.2707   14.1738   -5.4381 C   0  0  0  0  0  0  0  0  0  0  0  0
   41.4493   14.7950   -6.5098 C   0  0  0  0  0  0  0  0  0  0  0  0
   37.3356   15.5416  -10.4792 N   0  0  0  0  0  0  0  0  0  0  0  0
   37.3184   16.5972  -10.7874 H   0  0  0  0  0  0  0  0  0  0  0  0
   36.7654   13.0921  -13.8164 C   0  0  0  0  0  0  0  0  0  0  0  0
   35.8552   13.0522  -12.7725 C   0  0  0  0  0  0  0  0  0  0  0  0
   36.0356   13.8146  -11.6391 C   0  0  0  0  0  0  0  0  0  0  0  0
   37.1288   14.6447  -11.5209 C   0  0  0  0  0  0  0  0  0  0  0  0
   38.0136   14.6507  -12.5658 N   0  0  0  0  0  0  0  0  0  0  0  0
   37.8654   13.9171  -13.6751 C   0  0  0  0  0  0  0  0  0  0  0  0
   36.4083   13.1842  -16.1311 F   0  0  0  0  0  0  0  0  0  0  0  0
   36.5869   12.3235  -15.0553 C   0  0  0  0  0  0  0  0  0  0  0  0
   37.5785   11.4479  -15.3307 F   0  0  0  0  0  0  0  0  0  0  0  0
   35.3620   11.6593  -14.9082 F   0  0  0  0  0  0  0  0  0  0  0  0
 36 37  1  0  0  0
 37 38  1  0  0  0
 37 39  1  0  0  0
 37 30  1  0  0  0
 30 31  2  0  0  0
 31 32  1  0  0  0
 32 33  2  0  0  0
 33 28  1  0  0  0
 28  1  1  0  0  0
  1  2  2  0  0  0
  2  3  1  0  0  0
  3  4  2  0  0  0
  4  5  1  0  0  0
  5  6  1  0  0  0
  6  7  1  0  0  0
  7  8  1  0  0  0
  8  9  1  0  0  0
  9 10  1  0  0  0
 10 11  1  0  0  0
  8 12  1  0  0  0
 12 13  2  0  0  0
 13 14  1  0  0  0
 14 15  2  0  0  0
 15 16  1  0  0  0
 16 17  2  0  0  0
 17 18  1  0  0  0
 18 19  1  0  0  0
 18 20  1  0  0  0
 18 21  1  0  0  0
  3 22  1  0  0  0
 22 23  1  0  0  0
 23 24  1  0  0  0
 24 25  1  0  0  0
 25 26  1  0  0  0
 26 27  1  0  0  0
 33 34  1  0  0  0
 34 35  2  0  0  0
 35 30  1  0  0  0
 11  1  1  0  0  0
 17 12  1  0  0  0
 27 22  1  0  0  0
 11  5  2  0  0  0
 28 29  1  0  0  0
M  END
> <minimizedAffinity>
-7.65017

> <CNNscore>
0.0311131030

> <CNNaffinity>
6.0758810043

> <CNN_VS>
0.1890395135

> <CNNaffinity_variance>
0.1299183667

$$$$
[H]c1nc(N2C([H])([H])C([H])([H])c3nc(N4C([H])([H])C([H])([H])C([H])([H])C([H])([H])C4([H])[H])nc(N([H])c4nc([H])c(C(F)(F)F)c([H])c4[H])c3C([H])([H])C2([H])[H])c(C(F)(F)F)c([H])c1[H]


 39 43  0  0  0  0  0  0  0  0999 V2000
   41.9801   15.6201  -10.0452 C   0  0  0  0  0  0  0  0  0  0  0  0
   40.7573   16.1090  -10.2276 N   0  0  0  0  0  0  0  0  0  0  0  0
   39.7115   15.7341   -9.4353 C   0  0  0  0  0  0  0  0  0  0  0  0
   39.8574   14.8531   -8.4110 N   0  0  0  0  0  0  0  0  0  0  0  0
   41.0682   14.3437   -8.1805 C   0  0  0  0  0  0  0  0  0  0  0  0
   41.0820   13.4580   -6.9603 C   0  0  0  0  0  0  0  0  0  0  0  0
   42.0924   14.0938   -6.0068 C   0  0  0  0  0  0  0  0  0  0  0  0
   43.4288   13.9729   -6.5008 N   0  0  0  0  0  0  0  0  0  0  0  0
   44.1011   14.7655   -7.5140 C   0  0  0  0  0  0  0  0  0  0  0  0
   43.5314   14.3414   -8.9032 C   0  0  0  0  0  0  0  0  0  0  0  0
   42.1071   14.7128   -8.9832 C   0  0  0  0  0  0  0  0  0  0  0  0
   44.2232   12.9334   -5.9626 C   0  0  0  0  0  0  0  0  0  0  0  0
   44.0509   11.6532   -6.4747 N   0  0  0  0  0  0  0  0  0  0  0  0
   44.7345   10.6040   -6.0333 C   0  0  0  0  0  0  0  0  0  0  0  0
   45.6372   10.8292   -5.0209 C   0  0  0  0  0  0  0  0  0  0  0  0
   45.8276   12.0818   -4.4934 C   0  0  0  0  0  0  0  0  0  0  0  0
   45.1168   13.1869   -4.9585 C   0  0  0  0  0  0  0  0  0  0  0  0
   45.3752   14.5073   -4.4009 C   0  0  0  0  0  0  0  0  0  0  0  0
   46.2481   14.5757   -3.3620 F   0  0  0  0  0  0  0  0  0  0  0  0
   44.2574   15.2829   -4.1354 F   0  0  0  0  0  0  0  0  0  0  0  0
   46.0263   15.2652   -5.4273 F   0  0  0  0  0  0  0  0  0  0  0  0
   38.3406   16.0878   -9.6974 N   0  0  0  0  0  0  0  0  0  0  0  0
   37.6168   16.6876   -8.5769 C   0  0  0  0  0  0  0  0  0  0  0  0
   36.3275   17.2984   -9.0740 C   0  0  0  0  0  0  0  0  0  0  0  0
   35.4957   16.2607   -9.8123 C   0  0  0  0  0  0  0  0  0  0  0  0
   36.2443   15.6220  -10.9259 C   0  0  0  0  0  0  0  0  0  0  0  0
   37.7016   15.9128  -10.9454 C   0  0  0  0  0  0  0  0  0  0  0  0
   43.0047   15.7814  -10.9764 N   0  0  0  0  0  0  0  0  0  0  0  0
   43.7773   16.4813  -10.6259 H   0  0  0  0  0  0  0  0  0  0  0  0
   43.7235   13.7376  -14.5497 C   0  0  0  0  0  0  0  0  0  0  0  0
   44.7444   14.4631  -13.9570 C   0  0  0  0  0  0  0  0  0  0  0  0
   44.5303   15.1831  -12.8020 C   0  0  0  0  0  0  0  0  0  0  0  0
   43.2898   15.1919  -12.2027 C   0  0  0  0  0  0  0  0  0  0  0  0
   42.3017   14.4738  -12.8213 N   0  0  0  0  0  0  0  0  0  0  0  0
   42.4808   13.7703  -13.9453 C   0  0  0  0  0  0  0  0  0  0  0  0
   44.1312   13.7515  -16.8578 F   0  0  0  0  0  0  0  0  0  0  0  0
   43.9234   12.9277  -15.7587 C   0  0  0  0  0  0  0  0  0  0  0  0
   44.9179   12.0166  -15.6763 F   0  0  0  0  0  0  0  0  0  0  0  0
   42.6924   12.3018  -15.9953 F   0  0  0  0  0  0  0  0  0  0  0  0
 36 37  1  0  0  0
 37 38  1  0  0  0
 37 39  1  0  0  0
 37 30  1  0  0  0
 30 31  2  0  0  0
 31 32  1  0  0  0
 32 33  2  0  0  0
 33 28  1  0  0  0
 28  1  1  0  0  0
  1  2  2  0  0  0
  2  3  1  0  0  0
  3  4  2  0  0  0
  4  5  1  0  0  0
  5  6  1  0  0  0
  6  7  1  0  0  0
  7  8  1  0  0  0
  8  9  1  0  0  0
  9 10  1  0  0  0
 10 11  1  0  0  0
  8 12  1  0  0  0
 12 13  2  0  0  0
 13 14  1  0  0  0
 14 15  2  0  0  0
 15 16  1  0  0  0
 16 17  2  0  0  0
 17 18  1  0  0  0
 18 19  1  0  0  0
 18 20  1  0  0  0
 18 21  1  0  0  0
  3 22  1  0  0  0
 22 23  1  0  0  0
 23 24  1  0  0  0
 24 25  1  0  0  0
 25 26  1  0  0  0
 26 27  1  0  0  0
 33 34  1  0  0  0
 34 35  2  0  0  0
 35 30  1  0  0  0
 11  1  1  0  0  0
 17 12  1  0  0  0
 27 22  1  0  0  0
 11  5  2  0  0  0
 28 29  1  0  0  0
M  END
> <minimizedAffinity>
-6.22662

> <CNNscore>
0.0310991593

> <CNNaffinity>
5.8435964584

> <CNN_VS>
0.1817309409

> <CNNaffinity_variance>
0.0764073357

$$$$
[H]c1nc(N2C([H])([H])C([H])([H])c3nc(N4C([H])([H])C([H])([H])C([H])([H])C([H])([H])C4([H])[H])nc(N([H])c4nc([H])c(C(F)(F)F)c([H])c4[H])c3C([H])([H])C2([H])[H])c(C(F)(F)F)c([H])c1[H]


 39 43  0  0  0  0  0  0  0  0999 V2000
   34.9935   15.5921  -11.3718 C   0  0  0  0  0  0  0  0  0  0  0  0
   35.8800   16.0691  -10.5034 N   0  0  0  0  0  0  0  0  0  0  0  0
   37.1114   15.5009  -10.3531 C   0  0  0  0  0  0  0  0  0  0  0  0
   37.5086   14.4272  -11.0854 N   0  0  0  0  0  0  0  0  0  0  0  0
   36.6585   13.9196  -11.9789 C   0  0  0  0  0  0  0  0  0  0  0  0
   37.2791   12.7955  -12.7693 C   0  0  0  0  0  0  0  0  0  0  0  0
   37.2268   13.2461  -14.2282 C   0  0  0  0  0  0  0  0  0  0  0  0
   35.8847   13.2760  -14.7208 N   0  0  0  0  0  0  0  0  0  0  0  0
   34.8629   14.2872  -14.5208 C   0  0  0  0  0  0  0  0  0  0  0  0
   34.3403   14.1503  -13.0571 C   0  0  0  0  0  0  0  0  0  0  0  0
   35.4247   14.4843  -12.1160 C   0  0  0  0  0  0  0  0  0  0  0  0
   35.4578   12.1719  -15.4954 C   0  0  0  0  0  0  0  0  0  0  0  0
   34.1108   11.8328  -15.4550 N   0  0  0  0  0  0  0  0  0  0  0  0
   33.6066   10.8081  -16.1323 C   0  0  0  0  0  0  0  0  0  0  0  0
   34.4846   10.0687  -16.8894 C   0  0  0  0  0  0  0  0  0  0  0  0
   35.8204   10.3778  -16.9471 C   0  0  0  0  0  0  0  0  0  0  0  0
   36.3525   11.4566  -16.2429 C   0  0  0  0  0  0  0  0  0  0  0  0
   37.7683   11.7772  -16.3607 C   0  0  0  0  0  0  0  0  0  0  0  0
   38.5978   11.2516  -15.4217 F   0  0  0  0  0  0  0  0  0  0  0  0
   38.0722   13.1132  -16.5702 F   0  0  0  0  0  0  0  0  0  0  0  0
   38.2251   11.1738  -17.5770 F   0  0  0  0  0  0  0  0  0  0  0  0
   38.0368   15.8580   -9.3095 N   0  0  0  0  0  0  0  0  0  0  0  0
   39.4350   15.5072   -9.5567 C   0  0  0  0  0  0  0  0  0  0  0  0
   40.3205   16.2169   -8.5592 C   0  0  0  0  0  0  0  0  0  0  0  0
   39.8853   15.8965   -7.1373 C   0  0  0  0  0  0  0  0  0  0  0  0
   38.4538   16.2153   -6.8971 C   0  0  0  0  0  0  0  0  0  0  0  0
   37.6707   16.5285   -8.1209 C   0  0  0  0  0  0  0  0  0  0  0  0
   33.6549   15.9807  -11.3751 N   0  0  0  0  0  0  0  0  0  0  0  0
   33.4033   16.5944  -12.2524 H   0  0  0  0  0  0  0  0  0  0  0  0
   30.5908   14.9314   -8.7346 C   0  0  0  0  0  0  0  0  0  0  0  0
   30.3733   14.8600  -10.1011 C   0  0  0  0  0  0  0  0  0  0  0  0
   31.3469   15.2390  -10.9992 C   0  0  0  0  0  0  0  0  0  0  0  0
   32.5694   15.6938  -10.5555 C   0  0  0  0  0  0  0  0  0  0  0  0
   32.7459   15.7624   -9.1994 N   0  0  0  0  0  0  0  0  0  0  0  0
   31.8162   15.4057   -8.3056 C   0  0  0  0  0  0  0  0  0  0  0  0
   28.7465   15.5560   -7.4298 F   0  0  0  0  0  0  0  0  0  0  0  0
   29.5917   14.5003   -7.7479 C   0  0  0  0  0  0  0  0  0  0  0  0
   28.8606   13.4233   -8.1104 F   0  0  0  0  0  0  0  0  0  0  0  0
   30.3138   14.2409   -6.5756 F   0  0  0  0  0  0  0  0  0  0  0  0
 36 37  1  0  0  0
 37 38  1  0  0  0
 37 39  1  0  0  0
 37 30  1  0  0  0
 30 31  2  0  0  0
 31 32  1  0  0  0
 32 33  2  0  0  0
 33 28  1  0  0  0
 28  1  1  0  0  0
  1  2  2  0  0  0
  2  3  1  0  0  0
  3  4  2  0  0  0
  4  5  1  0  0  0
  5  6  1  0  0  0
  6  7  1  0  0  0
  7  8  1  0  0  0
  8  9  1  0  0  0
  9 10  1  0  0  0
 10 11  1  0  0  0
  8 12  1  0  0  0
 12 13  2  0  0  0
 13 14  1  0  0  0
 14 15  2  0  0  0
 15 16  1  0  0  0
 16 17  2  0  0  0
 17 18  1  0  0  0
 18 19  1  0  0  0
 18 20  1  0  0  0
 18 21  1  0  0  0
  3 22  1  0  0  0
 22 23  1  0  0  0
 23 24  1  0  0  0
 24 25  1  0  0  0
 25 26  1  0  0  0
 26 27  1  0  0  0
 33 34  1  0  0  0
 34 35  2  0  0  0
 35 30  1  0  0  0
 11  1  1  0  0  0
 17 12  1  0  0  0
 27 22  1  0  0  0
 11  5  2  0  0  0
 28 29  1  0  0  0
M  END
> <minimizedAffinity>
-8.95038

> <CNNscore>
0.0268966928

> <CNNaffinity>
6.6191916466

> <CNN_VS>
0.1780343652

> <CNNaffinity_variance>
0.2733021379

$$$$
[H]c1nc(N2C([H])([H])C([H])([H])c3nc(N4C([H])([H])C([H])([H])C([H])([H])C([H])([H])C4([H])[H])nc(N([H])c4nc([H])c(C(F)(F)F)c([H])c4[H])c3C([H])([H])C2([H])[H])c(C(F)(F)F)c([H])c1[H]


 39 43  0  0  0  0  0  0  0  0999 V2000
   40.9264   16.0909  -10.7448 C   0  0  0  0  0  0  0  0  0  0  0  0
   39.6112   16.2138  -10.5941 N   0  0  0  0  0  0  0  0  0  0  0  0
   39.0079   16.0158   -9.3863 C   0  0  0  0  0  0  0  0  0  0  0  0
   39.7112   15.6949   -8.2686 N   0  0  0  0  0  0  0  0  0  0  0  0
   41.0355   15.5718   -8.3663 C   0  0  0  0  0  0  0  0  0  0  0  0
   41.6752   15.3041   -7.0275 C   0  0  0  0  0  0  0  0  0  0  0  0
   42.6447   16.4628   -6.8002 C   0  0  0  0  0  0  0  0  0  0  0  0
   43.7551   16.4026   -7.6991 N   0  0  0  0  0  0  0  0  0  0  0  0
   43.8232   16.8062   -9.0917 C   0  0  0  0  0  0  0  0  0  0  0  0
   43.0622   15.7355   -9.9335 C   0  0  0  0  0  0  0  0  0  0  0  0
   41.6316   15.7589   -9.5787 C   0  0  0  0  0  0  0  0  0  0  0  0
   44.9615   15.8600   -7.1976 C   0  0  0  0  0  0  0  0  0  0  0  0
   45.1386   14.4843   -7.2813 N   0  0  0  0  0  0  0  0  0  0  0  0
   46.2261   13.8705   -6.8299 C   0  0  0  0  0  0  0  0  0  0  0  0
   47.1940   14.6597   -6.2548 C   0  0  0  0  0  0  0  0  0  0  0  0
   47.0464   16.0205   -6.1558 C   0  0  0  0  0  0  0  0  0  0  0  0
   45.9094   16.6694   -6.6344 C   0  0  0  0  0  0  0  0  0  0  0  0
   45.8066   18.1195   -6.5472 C   0  0  0  0  0  0  0  0  0  0  0  0
   44.7840   18.6198   -5.8056 F   0  0  0  0  0  0  0  0  0  0  0  0
   45.9062   18.8079   -7.7462 F   0  0  0  0  0  0  0  0  0  0  0  0
   46.9717   18.5714   -5.8469 F   0  0  0  0  0  0  0  0  0  0  0  0
   37.5810   15.9569   -9.2034 N   0  0  0  0  0  0  0  0  0  0  0  0
   36.8392   15.2424  -10.2418 C   0  0  0  0  0  0  0  0  0  0  0  0
   35.4296   14.9769   -9.7672 C   0  0  0  0  0  0  0  0  0  0  0  0
   34.7507   16.2758   -9.3596 C   0  0  0  0  0  0  0  0  0  0  0  0
   35.5244   17.0221   -8.3335 C   0  0  0  0  0  0  0  0  0  0  0  0
   36.9003   16.5123   -8.0968 C   0  0  0  0  0  0  0  0  0  0  0  0
   41.5418   16.0368  -11.9943 N   0  0  0  0  0  0  0  0  0  0  0  0
   42.3596   16.7664  -12.0858 H   0  0  0  0  0  0  0  0  0  0  0  0
   40.7974   13.4820  -15.2163 C   0  0  0  0  0  0  0  0  0  0  0  0
   42.0022   13.3967  -14.5371 C   0  0  0  0  0  0  0  0  0  0  0  0
   42.2974   14.2519  -13.4981 C   0  0  0  0  0  0  0  0  0  0  0  0
   41.3922   15.2127  -13.1038 C   0  0  0  0  0  0  0  0  0  0  0  0
   40.2173   15.2763  -13.8040 N   0  0  0  0  0  0  0  0  0  0  0  0
   39.9072   14.4621  -14.8196 C   0  0  0  0  0  0  0  0  0  0  0  0
   41.5693   11.9569  -16.8201 F   0  0  0  0  0  0  0  0  0  0  0  0
   40.4317   12.5636  -16.3028 C   0  0  0  0  0  0  0  0  0  0  0  0
   39.5225   11.6209  -15.9704 F   0  0  0  0  0  0  0  0  0  0  0  0
   39.9489   13.3802  -17.3338 F   0  0  0  0  0  0  0  0  0  0  0  0
 36 37  1  0  0  0
 37 38  1  0  0  0
 37 39  1  0  0  0
 37 30  1  0  0  0
 30 31  2  0  0  0
 31 32  1  0  0  0
 32 33  2  0  0  0
 33 28  1  0  0  0
 28  1  1  0  0  0
  1  2  2  0  0  0
  2  3  1  0  0  0
  3  4  2  0  0  0
  4  5  1  0  0  0
  5  6  1  0  0  0
  6  7  1  0  0  0
  7  8  1  0  0  0
  8  9  1  0  0  0
  9 10  1  0  0  0
 10 11  1  0  0  0
  8 12  1  0  0  0
 12 13  2  0  0  0
 13 14  1  0  0  0
 14 15  2  0  0  0
 15 16  1  0  0  0
 16 17  2  0  0  0
 17 18  1  0  0  0
 18 19  1  0  0  0
 18 20  1  0  0  0
 18 21  1  0  0  0
  3 22  1  0  0  0
 22 23  1  0  0  0
 23 24  1  0  0  0
 24 25  1  0  0  0
 25 26  1  0  0  0
 26 27  1  0  0  0
 33 34  1  0  0  0
 34 35  2  0  0  0
 35 30  1  0  0  0
 11  1  1  0  0  0
 17 12  1  0  0  0
 27 22  1  0  0  0
 11  5  2  0  0  0
 28 29  1  0  0  0
M  END
> <minimizedAffinity>
-7.03482

> <CNNscore>
0.0268107764

> <CNNaffinity>
5.9418730736

> <CNN_VS>
0.1593062282

> <CNNaffinity_variance>
0.0407859944

$$$$
[H]c1nc(N2C([H])([H])C([H])([H])c3nc(N4C([H])([H])C([H])([H])C([H])([H])C([H])([H])C4([H])[H])nc(N([H])c4nc([H])c(C(F)(F)F)c([H])c4[H])c3C([H])([H])C2([H])[H])c(C(F)(F)F)c([H])c1[H]


 39 43  0  0  0  0  0  0  0  0999 V2000
   36.7678   16.2993   -9.5576 C   0  0  0  0  0  0  0  0  0  0  0  0
   35.6301   16.8423   -9.1353 N   0  0  0  0  0  0  0  0  0  0  0  0
   35.2595   16.7966   -7.8229 C   0  0  0  0  0  0  0  0  0  0  0  0
   36.0310   16.2076   -6.8718 N   0  0  0  0  0  0  0  0  0  0  0  0
   37.1880   15.6589   -7.2443 C   0  0  0  0  0  0  0  0  0  0  0  0
   37.9647   15.1304   -6.0649 C   0  0  0  0  0  0  0  0  0  0  0  0
   39.2894   15.8913   -6.0755 C   0  0  0  0  0  0  0  0  0  0  0  0
   40.1046   15.5112   -7.1871 N   0  0  0  0  0  0  0  0  0  0  0  0
   40.0131   15.9365   -8.5718 C   0  0  0  0  0  0  0  0  0  0  0  0
   38.7821   15.2194   -9.2079 C   0  0  0  0  0  0  0  0  0  0  0  0
   37.5474   15.6970   -8.5593 C   0  0  0  0  0  0  0  0  0  0  0  0
   41.1375   14.5769   -6.9391 C   0  0  0  0  0  0  0  0  0  0  0  0
   40.8140   13.2261   -6.9781 N   0  0  0  0  0  0  0  0  0  0  0  0
   41.7027   12.2669   -6.7478 C   0  0  0  0  0  0  0  0  0  0  0  0
   42.9860   12.6634   -6.4542 C   0  0  0  0  0  0  0  0  0  0  0  0
   43.3350   13.9898   -6.4061 C   0  0  0  0  0  0  0  0  0  0  0  0
   42.4067   14.9996   -6.6537 C   0  0  0  0  0  0  0  0  0  0  0  0
   42.8240   16.3948   -6.6325 C   0  0  0  0  0  0  0  0  0  0  0  0
   44.0587   16.6595   -6.1311 F   0  0  0  0  0  0  0  0  0  0  0  0
   41.9010   17.2963   -6.1257 F   0  0  0  0  0  0  0  0  0  0  0  0
   42.9282   16.8120   -7.9989 F   0  0  0  0  0  0  0  0  0  0  0  0
   33.9652   17.2036   -7.3411 N   0  0  0  0  0  0  0  0  0  0  0  0
   33.9515   18.3975   -6.4962 C   0  0  0  0  0  0  0  0  0  0  0  0
   32.5325   18.8915   -6.3383 C   0  0  0  0  0  0  0  0  0  0  0  0
   31.6405   17.7860   -5.7940 C   0  0  0  0  0  0  0  0  0  0  0  0
   31.6850   16.5583   -6.6302 C   0  0  0  0  0  0  0  0  0  0  0  0
   32.7574   16.5430   -7.6591 C   0  0  0  0  0  0  0  0  0  0  0  0
   37.0569   16.1055  -10.9073 N   0  0  0  0  0  0  0  0  0  0  0  0
   37.7349   16.8768  -11.3012 H   0  0  0  0  0  0  0  0  0  0  0  0
   36.2869   13.2706  -13.8793 C   0  0  0  0  0  0  0  0  0  0  0  0
   35.2329   13.8286  -13.1738 C   0  0  0  0  0  0  0  0  0  0  0  0
   35.4537   14.7338  -12.1589 C   0  0  0  0  0  0  0  0  0  0  0  0
   36.7358   15.1124  -11.8255 C   0  0  0  0  0  0  0  0  0  0  0  0
   37.7534   14.5328  -12.5351 N   0  0  0  0  0  0  0  0  0  0  0  0
   37.5675   13.6479  -13.5214 C   0  0  0  0  0  0  0  0  0  0  0  0
   37.1355   11.4201  -15.0408 F   0  0  0  0  0  0  0  0  0  0  0  0
   36.0891   12.3325  -14.9921 C   0  0  0  0  0  0  0  0  0  0  0  0
   34.9093   11.6740  -14.9795 F   0  0  0  0  0  0  0  0  0  0  0  0
   36.2178   13.1024  -16.1556 F   0  0  0  0  0  0  0  0  0  0  0  0
 36 37  1  0  0  0
 37 38  1  0  0  0
 37 39  1  0  0  0
 37 30  1  0  0  0
 30 31  2  0  0  0
 31 32  1  0  0  0
 32 33  2  0  0  0
 33 28  1  0  0  0
 28  1  1  0  0  0
  1  2  2  0  0  0
  2  3  1  0  0  0
  3  4  2  0  0  0
  4  5  1  0  0  0
  5  6  1  0  0  0
  6  7  1  0  0  0
  7  8  1  0  0  0
  8  9  1  0  0  0
  9 10  1  0  0  0
 10 11  1  0  0  0
  8 12  1  0  0  0
 12 13  2  0  0  0
 13 14  1  0  0  0
 14 15  2  0  0  0
 15 16  1  0  0  0
 16 17  2  0  0  0
 17 18  1  0  0  0
 18 19  1  0  0  0
 18 20  1  0  0  0
 18 21  1  0  0  0
  3 22  1  0  0  0
 22 23  1  0  0  0
 23 24  1  0  0  0
 24 25  1  0  0  0
 25 26  1  0  0  0
 26 27  1  0  0  0
 33 34  1  0  0  0
 34 35  2  0  0  0
 35 30  1  0  0  0
 11  1  1  0  0  0
 17 12  1  0  0  0
 27 22  1  0  0  0
 11  5  2  0  0  0
 28 29  1  0  0  0
M  END
> <minimizedAffinity>
-7.06317

> <CNNscore>
0.0262696594

> <CNNaffinity>
6.0582466125

> <CNN_VS>
0.1591480821

> <CNNaffinity_variance>
0.1036398187

$$$$
[H]c1nc(N([H])c2c([H])c(OC([H])([H])[H])c(OC([H])([H])[H])c(OC([H])([H])[H])c2[H])nc(N([H])c2nc3c(c([H])c2[H])OC(C([H])([H])[H])(C([H])([H])[H])C(=O)N3[H])c1F


 37 40  0  0  0  0  0  0  0  0999 V2000
   41.0867   12.5064  -17.0575 C   0  0  0  0  0  0  0  0  0  0  0  0
   40.7612   11.8291  -18.1650 N   0  0  0  0  0  0  0  0  0  0  0  0
   39.6378   11.1293  -18.3367 C   0  0  0  0  0  0  0  0  0  0  0  0
   38.7339   11.0845  -17.3195 C   0  0  0  0  0  0  0  0  0  0  0  0
   37.5700   10.4207  -17.3610 F   0  0  0  0  0  0  0  0  0  0  0  0
   39.0162   11.7744  -16.1302 C   0  0  0  0  0  0  0  0  0  0  0  0
   40.1695   12.4463  -16.0578 N   0  0  0  0  0  0  0  0  0  0  0  0
   42.2603   13.2517  -16.8468 N   0  0  0  0  0  0  0  0  0  0  0  0
   42.5199   13.9223  -17.6414 H   0  0  0  0  0  0  0  0  0  0  0  0
   43.6602   13.4268  -13.3778 C   0  0  0  0  0  0  0  0  0  0  0  0
   42.7579   13.4933  -14.4493 C   0  0  0  0  0  0  0  0  0  0  0  0
   43.0984   13.1905  -15.7180 C   0  0  0  0  0  0  0  0  0  0  0  0
   44.4340   12.7927  -15.9288 C   0  0  0  0  0  0  0  0  0  0  0  0
   45.3412   12.7166  -14.9044 C   0  0  0  0  0  0  0  0  0  0  0  0
   44.9651   13.0333  -13.6144 C   0  0  0  0  0  0  0  0  0  0  0  0
   42.8657   15.0772  -11.8188 C   0  0  0  0  0  0  0  0  0  0  0  0
   43.2332   13.7544  -12.1051 O   0  0  0  0  0  0  0  0  0  0  0  0
   46.6314   12.3256  -15.1475 O   0  0  0  0  0  0  0  0  0  0  0  0
   47.5885   13.2933  -15.5248 C   0  0  0  0  0  0  0  0  0  0  0  0
   45.8507   12.9717  -12.5405 O   0  0  0  0  0  0  0  0  0  0  0  0
   45.9485   11.7466  -11.8261 C   0  0  0  0  0  0  0  0  0  0  0  0
   38.0953   11.7463  -15.0546 N   0  0  0  0  0  0  0  0  0  0  0  0
   37.4699   10.9361  -14.9504 H   0  0  0  0  0  0  0  0  0  0  0  0
   38.0576   12.8348  -14.1485 C   0  0  0  0  0  0  0  0  0  0  0  0
   39.0035   13.8670  -14.2342 C   0  0  0  0  0  0  0  0  0  0  0  0
   38.9552   14.9179  -13.3478 C   0  0  0  0  0  0  0  0  0  0  0  0
   37.9889   14.9776  -12.3700 C   0  0  0  0  0  0  0  0  0  0  0  0
   37.9109   16.0224  -11.4599 O   0  0  0  0  0  0  0  0  0  0  0  0
   37.2484   15.8882  -10.2118 C   0  0  0  0  0  0  0  0  0  0  0  0
   36.8429   17.2361   -9.6877 C   0  0  0  0  0  0  0  0  0  0  0  0
   38.1390   15.1729   -9.2305 C   0  0  0  0  0  0  0  0  0  0  0  0
   36.0013   15.0811  -10.3782 C   0  0  0  0  0  0  0  0  0  0  0  0
   34.9515   15.3681   -9.7228 O   0  0  0  0  0  0  0  0  0  0  0  0
   36.0510   13.9993  -11.2885 N   0  0  0  0  0  0  0  0  0  0  0  0
   37.0530   13.9472  -12.2925 C   0  0  0  0  0  0  0  0  0  0  0  0
   37.1406   12.9426  -13.1797 N   0  0  0  0  0  0  0  0  0  0  0  0
   35.3442   13.2453  -11.2105 H   0  0  0  0  0  0  0  0  0  0  0  0
 16 17  1  0  0  0
 17 10  1  0  0  0
 10 11  2  0  0  0
 11 12  1  0  0  0
 12  8  1  0  0  0
  8  1  1  0  0  0
  1  2  2  0  0  0
  2  3  1  0  0  0
  3  4  2  0  0  0
  4  5  1  0  0  0
  4  6  1  0  0  0
  6 22  1  0  0  0
 22 24  1  0  0  0
 24 25  2  0  0  0
 25 26  1  0  0  0
 26 27  2  0  0  0
 27 28  1  0  0  0
 28 29  1  0  0  0
 29 30  1  0  0  0
 29 31  1  0  0  0
 29 32  1  0  0  0
 32 33  2  0  0  0
 32 34  1  0  0  0
 34 35  1  0  0  0
 35 36  2  0  0  0
  6  7  2  0  0  0
 12 13  2  0  0  0
 13 14  1  0  0  0
 14 18  1  0  0  0
 18 19  1  0  0  0
 14 15  2  0  0  0
 15 20  1  0  0  0
 20 21  1  0  0  0
 15 10  1  0  0  0
  7  1  1  0  0  0
 36 24  1  0  0  0
 35 27  1  0  0  0
  8  9  1  0  0  0
 22 23  1  0  0  0
 34 37  1  0  0  0
M  END
> <minimizedAffinity>
-8.79645

> <CNNscore>
0.4625884593

> <CNNaffinity>
7.0840673447

> <CNN_VS>
3.2770078182

> <CNNaffinity_variance>
0.1562572420

$$$$
[H]c1nc(N([H])c2c([H])c(OC([H])([H])[H])c(OC([H])([H])[H])c(OC([H])([H])[H])c2[H])nc(N([H])c2nc3c(c([H])c2[H])OC(C([H])([H])[H])(C([H])([H])[H])C(=O)N3[H])c1F


 37 40  0  0  0  0  0  0  0  0999 V2000
   38.8620   12.2663  -15.7163 C   0  0  0  0  0  0  0  0  0  0  0  0
   38.0942   11.5554  -16.5509 N   0  0  0  0  0  0  0  0  0  0  0  0
   38.5050   11.0090  -17.6972 C   0  0  0  0  0  0  0  0  0  0  0  0
   39.8040   11.1730  -18.0707 C   0  0  0  0  0  0  0  0  0  0  0  0
   40.3438   10.6782  -19.1936 F   0  0  0  0  0  0  0  0  0  0  0  0
   40.6615   11.9091  -17.2384 C   0  0  0  0  0  0  0  0  0  0  0  0
   40.1528   12.4157  -16.1109 N   0  0  0  0  0  0  0  0  0  0  0  0
   38.4593   12.8533  -14.5036 N   0  0  0  0  0  0  0  0  0  0  0  0
   39.2602   13.1642  -13.8629 H   0  0  0  0  0  0  0  0  0  0  0  0
   34.7251   12.9846  -14.2540 C   0  0  0  0  0  0  0  0  0  0  0  0
   36.0138   12.7287  -14.7442 C   0  0  0  0  0  0  0  0  0  0  0  0
   37.1354   13.0569  -14.0722 C   0  0  0  0  0  0  0  0  0  0  0  0
   36.9547   13.6837  -12.8228 C   0  0  0  0  0  0  0  0  0  0  0  0
   35.7099   13.9480  -12.3142 C   0  0  0  0  0  0  0  0  0  0  0  0
   34.5780   13.6014  -13.0245 C   0  0  0  0  0  0  0  0  0  0  0  0
   33.6377   11.4001  -15.7005 C   0  0  0  0  0  0  0  0  0  0  0  0
   33.6244   12.6175  -15.0044 O   0  0  0  0  0  0  0  0  0  0  0  0
   35.5733   14.5589  -11.0957 O   0  0  0  0  0  0  0  0  0  0  0  0
   36.7139   14.7481  -10.2845 C   0  0  0  0  0  0  0  0  0  0  0  0
   33.2917   13.8494  -12.5498 O   0  0  0  0  0  0  0  0  0  0  0  0
   32.9324   15.1958  -12.2691 C   0  0  0  0  0  0  0  0  0  0  0  0
   42.0178   12.0967  -17.6004 N   0  0  0  0  0  0  0  0  0  0  0  0
   42.2947   11.9842  -18.5849 H   0  0  0  0  0  0  0  0  0  0  0  0
   42.9603   12.4344  -16.5980 C   0  0  0  0  0  0  0  0  0  0  0  0
   44.2979   12.0275  -16.7106 C   0  0  0  0  0  0  0  0  0  0  0  0
   45.2025   12.3625  -15.7298 C   0  0  0  0  0  0  0  0  0  0  0  0
   44.8182   13.0955  -14.6305 C   0  0  0  0  0  0  0  0  0  0  0  0
   45.7039   13.4506  -13.6230 O   0  0  0  0  0  0  0  0  0  0  0  0
   45.2645   13.7877  -12.3161 C   0  0  0  0  0  0  0  0  0  0  0  0
   46.2977   14.6239  -11.6166 C   0  0  0  0  0  0  0  0  0  0  0  0
   44.9643   12.5356  -11.5350 C   0  0  0  0  0  0  0  0  0  0  0  0
   44.0109   14.5983  -12.3905 C   0  0  0  0  0  0  0  0  0  0  0  0
   43.8067   15.5520  -11.5764 O   0  0  0  0  0  0  0  0  0  0  0  0
   43.0796   14.2531  -13.3980 N   0  0  0  0  0  0  0  0  0  0  0  0
   43.4867   13.4956  -14.5272 C   0  0  0  0  0  0  0  0  0  0  0  0
   42.6407   13.1446  -15.5096 N   0  0  0  0  0  0  0  0  0  0  0  0
   42.0954   14.5622  -13.2983 H   0  0  0  0  0  0  0  0  0  0  0  0
 16 17  1  0  0  0
 17 10  1  0  0  0
 10 11  2  0  0  0
 11 12  1  0  0  0
 12  8  1  0  0  0
  8  1  1  0  0  0
  1  2  2  0  0  0
  2  3  1  0  0  0
  3  4  2  0  0  0
  4  5  1  0  0  0
  4  6  1  0  0  0
  6 22  1  0  0  0
 22 24  1  0  0  0
 24 25  2  0  0  0
 25 26  1  0  0  0
 26 27  2  0  0  0
 27 28  1  0  0  0
 28 29  1  0  0  0
 29 30  1  0  0  0
 29 31  1  0  0  0
 29 32  1  0  0  0
 32 33  2  0  0  0
 32 34  1  0  0  0
 34 35  1  0  0  0
 35 36  2  0  0  0
  6  7  2  0  0  0
 12 13  2  0  0  0
 13 14  1  0  0  0
 14 18  1  0  0  0
 18 19  1  0  0  0
 14 15  2  0  0  0
 15 20  1  0  0  0
 20 21  1  0  0  0
 15 10  1  0  0  0
  7  1  1  0  0  0
 36 24  1  0  0  0
 35 27  1  0  0  0
  8  9  1  0  0  0
 22 23  1  0  0  0
 34 37  1  0  0  0
M  END
> <minimizedAffinity>
-8.67317

> <CNNscore>
0.3460555375

> <CNNaffinity>
7.2516031265

> <CNN_VS>
2.5094573498

> <CNNaffinity_variance>
0.2873545289

$$$$
[H]c1nc(N([H])c2c([H])c(OC([H])([H])[H])c(OC([H])([H])[H])c(OC([H])([H])[H])c2[H])nc(N([H])c2nc3c(c([H])c2[H])OC(C([H])([H])[H])(C([H])([H])[H])C(=O)N3[H])c1F


 37 40  0  0  0  0  0  0  0  0999 V2000
   38.4257   11.7395  -15.4285 C   0  0  0  0  0  0  0  0  0  0  0  0
   37.8535   11.0592  -16.4291 N   0  0  0  0  0  0  0  0  0  0  0  0
   38.3673   10.9122  -17.6521 C   0  0  0  0  0  0  0  0  0  0  0  0
   39.5681   11.4906  -17.9303 C   0  0  0  0  0  0  0  0  0  0  0  0
   40.1933   11.4207  -19.1141 F   0  0  0  0  0  0  0  0  0  0  0  0
   40.2201   12.2186  -16.9229 C   0  0  0  0  0  0  0  0  0  0  0  0
   39.6220   12.3068  -15.7308 N   0  0  0  0  0  0  0  0  0  0  0  0
   37.9105   11.9117  -14.1316 N   0  0  0  0  0  0  0  0  0  0  0  0
   37.7529   11.0049  -13.5826 H   0  0  0  0  0  0  0  0  0  0  0  0
   38.0647   15.2581  -12.4577 C   0  0  0  0  0  0  0  0  0  0  0  0
   38.4631   14.0686  -13.0845 C   0  0  0  0  0  0  0  0  0  0  0  0
   37.5905   13.1354  -13.5146 C   0  0  0  0  0  0  0  0  0  0  0  0
   36.2247   13.4122  -13.3036 C   0  0  0  0  0  0  0  0  0  0  0  0
   35.8012   14.5647  -12.6948 C   0  0  0  0  0  0  0  0  0  0  0  0
   36.7171   15.5032  -12.2635 C   0  0  0  0  0  0  0  0  0  0  0  0
   39.6488   15.9903  -10.8024 C   0  0  0  0  0  0  0  0  0  0  0  0
   39.0217   16.1652  -12.0446 O   0  0  0  0  0  0  0  0  0  0  0  0
   34.4647   14.7994  -12.5068 O   0  0  0  0  0  0  0  0  0  0  0  0
   33.5191   13.9720  -13.1517 C   0  0  0  0  0  0  0  0  0  0  0  0
   36.3357   16.6891  -11.6395 O   0  0  0  0  0  0  0  0  0  0  0  0
   36.0750   16.6538  -10.2425 C   0  0  0  0  0  0  0  0  0  0  0  0
   41.4702   12.8315  -17.1824 N   0  0  0  0  0  0  0  0  0  0  0  0
   41.6940   13.1288  -18.1416 H   0  0  0  0  0  0  0  0  0  0  0  0
   42.3822   13.0203  -16.1148 C   0  0  0  0  0  0  0  0  0  0  0  0
   43.7311   12.6631  -16.2576 C   0  0  0  0  0  0  0  0  0  0  0  0
   44.6058   12.8520  -15.2127 C   0  0  0  0  0  0  0  0  0  0  0  0
   44.1804   13.3891  -14.0195 C   0  0  0  0  0  0  0  0  0  0  0  0
   45.0352   13.5931  -12.9454 O   0  0  0  0  0  0  0  0  0  0  0  0
   44.5593   13.7048  -11.6129 C   0  0  0  0  0  0  0  0  0  0  0  0
   45.5570   14.4364  -10.7611 C   0  0  0  0  0  0  0  0  0  0  0  0
   44.2712   12.3370  -11.0527 C   0  0  0  0  0  0  0  0  0  0  0  0
   43.2890   14.4923  -11.5870 C   0  0  0  0  0  0  0  0  0  0  0  0
   43.0448   15.2970  -10.6348 O   0  0  0  0  0  0  0  0  0  0  0  0
   42.3885   14.2972  -12.6606 N   0  0  0  0  0  0  0  0  0  0  0  0
   42.8379   13.7412  -13.8867 C   0  0  0  0  0  0  0  0  0  0  0  0
   42.0222   13.5380  -14.9343 N   0  0  0  0  0  0  0  0  0  0  0  0
   41.3954   14.5668  -12.5374 H   0  0  0  0  0  0  0  0  0  0  0  0
 16 17  1  0  0  0
 17 10  1  0  0  0
 10 11  2  0  0  0
 11 12  1  0  0  0
 12  8  1  0  0  0
  8  1  1  0  0  0
  1  2  2  0  0  0
  2  3  1  0  0  0
  3  4  2  0  0  0
  4  5  1  0  0  0
  4  6  1  0  0  0
  6 22  1  0  0  0
 22 24  1  0  0  0
 24 25  2  0  0  0
 25 26  1  0  0  0
 26 27  2  0  0  0
 27 28  1  0  0  0
 28 29  1  0  0  0
 29 30  1  0  0  0
 29 31  1  0  0  0
 29 32  1  0  0  0
 32 33  2  0  0  0
 32 34  1  0  0  0
 34 35  1  0  0  0
 35 36  2  0  0  0
  6  7  2  0  0  0
 12 13  2  0  0  0
 13 14  1  0  0  0
 14 18  1  0  0  0
 18 19  1  0  0  0
 14 15  2  0  0  0
 15 20  1  0  0  0
 20 21  1  0  0  0
 15 10  1  0  0  0
  7  1  1  0  0  0
 36 24  1  0  0  0
 35 27  1  0  0  0
  8  9  1  0  0  0
 22 23  1  0  0  0
 34 37  1  0  0  0
M  END
> <minimizedAffinity>
-8.69821

> <CNNscore>
0.2625666857

> <CNNaffinity>
6.8792395592

> <CNN_VS>
1.8062591553

> <CNNaffinity_variance>
0.2482259274

$$$$
[H]c1nc(N([H])c2c([H])c(OC([H])([H])[H])c(OC([H])([H])[H])c(OC([H])([H])[H])c2[H])nc(N([H])c2nc3c(c([H])c2[H])OC(C([H])([H])[H])(C([H])([H])[H])C(=O)N3[H])c1F


 37 40  0  0  0  0  0  0  0  0999 V2000
   38.4028   11.8779  -15.5197 C   0  0  0  0  0  0  0  0  0  0  0  0
   38.1833   11.0066  -16.5116 N   0  0  0  0  0  0  0  0  0  0  0  0
   38.9270   10.8922  -17.6139 C   0  0  0  0  0  0  0  0  0  0  0  0
   40.0005   11.7157  -17.7663 C   0  0  0  0  0  0  0  0  0  0  0  0
   40.8271   11.7053  -18.8216 F   0  0  0  0  0  0  0  0  0  0  0  0
   40.2850   12.6527  -16.7607 C   0  0  0  0  0  0  0  0  0  0  0  0
   39.4788   12.6878  -15.6951 N   0  0  0  0  0  0  0  0  0  0  0  0
   37.6389   12.0221  -14.3480 N   0  0  0  0  0  0  0  0  0  0  0  0
   37.2125   11.1142  -13.9706 H   0  0  0  0  0  0  0  0  0  0  0  0
   37.9882   15.2209  -12.4324 C   0  0  0  0  0  0  0  0  0  0  0  0
   38.3168   14.0509  -13.1321 C   0  0  0  0  0  0  0  0  0  0  0  0
   37.3914   13.2207  -13.6534 C   0  0  0  0  0  0  0  0  0  0  0  0
   36.0440   13.5874  -13.4620 C   0  0  0  0  0  0  0  0  0  0  0  0
   35.6882   14.7238  -12.7838 C   0  0  0  0  0  0  0  0  0  0  0  0
   36.6572   15.5558  -12.2596 C   0  0  0  0  0  0  0  0  0  0  0  0
   40.3095   15.8497  -12.3897 C   0  0  0  0  0  0  0  0  0  0  0  0
   38.9964   16.0197  -11.9274 O   0  0  0  0  0  0  0  0  0  0  0  0
   34.3676   15.0480  -12.6175 O   0  0  0  0  0  0  0  0  0  0  0  0
   33.3761   14.0876  -12.9162 C   0  0  0  0  0  0  0  0  0  0  0  0
   36.3453   16.7211  -11.5624 O   0  0  0  0  0  0  0  0  0  0  0  0
   36.1734   16.6302  -10.1543 C   0  0  0  0  0  0  0  0  0  0  0  0
   41.3948   13.5228  -16.8910 N   0  0  0  0  0  0  0  0  0  0  0  0
   41.4129   14.2006  -17.6647 H   0  0  0  0  0  0  0  0  0  0  0  0
   42.4530   13.4384  -15.9528 C   0  0  0  0  0  0  0  0  0  0  0  0
   42.1927   13.5071  -14.5762 C   0  0  0  0  0  0  0  0  0  0  0  0
   43.2299   13.4238  -13.6763 C   0  0  0  0  0  0  0  0  0  0  0  0
   44.5293   13.2729  -14.1031 C   0  0  0  0  0  0  0  0  0  0  0  0
   45.5989   13.1856  -13.2233 O   0  0  0  0  0  0  0  0  0  0  0  0
   46.9288   13.4832  -13.6203 C   0  0  0  0  0  0  0  0  0  0  0  0
   47.9107   12.8137  -12.7017 C   0  0  0  0  0  0  0  0  0  0  0  0
   47.1385   14.9743  -13.6406 C   0  0  0  0  0  0  0  0  0  0  0  0
   47.1807   12.9618  -14.9983 C   0  0  0  0  0  0  0  0  0  0  0  0
   48.3087   12.4656  -15.3072 O   0  0  0  0  0  0  0  0  0  0  0  0
   46.1149   13.0487  -15.9246 N   0  0  0  0  0  0  0  0  0  0  0  0
   44.7783   13.2055  -15.4732 C   0  0  0  0  0  0  0  0  0  0  0  0
   43.7335   13.2915  -16.3129 N   0  0  0  0  0  0  0  0  0  0  0  0
   46.3256   12.9961  -16.9380 H   0  0  0  0  0  0  0  0  0  0  0  0
 16 17  1  0  0  0
 17 10  1  0  0  0
 10 11  2  0  0  0
 11 12  1  0  0  0
 12  8  1  0  0  0
  8  1  1  0  0  0
  1  2  2  0  0  0
  2  3  1  0  0  0
  3  4  2  0  0  0
  4  5  1  0  0  0
  4  6  1  0  0  0
  6 22  1  0  0  0
 22 24  1  0  0  0
 24 25  2  0  0  0
 25 26  1  0  0  0
 26 27  2  0  0  0
 27 28  1  0  0  0
 28 29  1  0  0  0
 29 30  1  0  0  0
 29 31  1  0  0  0
 29 32  1  0  0  0
 32 33  2  0  0  0
 32 34  1  0  0  0
 34 35  1  0  0  0
 35 36  2  0  0  0
  6  7  2  0  0  0
 12 13  2  0  0  0
 13 14  1  0  0  0
 14 18  1  0  0  0
 18 19  1  0  0  0
 14 15  2  0  0  0
 15 20  1  0  0  0
 20 21  1  0  0  0
 15 10  1  0  0  0
  7  1  1  0  0  0
 36 24  1  0  0  0
 35 27  1  0  0  0
  8  9  1  0  0  0
 22 23  1  0  0  0
 34 37  1  0  0  0
M  END
> <minimizedAffinity>
-8.93640

> <CNNscore>
0.2338604331

> <CNNaffinity>
6.6740059853

> <CNN_VS>
1.5607858896

> <CNNaffinity_variance>
0.5342403650

$$$$
[H]c1nc(N([H])c2c([H])c(OC([H])([H])[H])c(OC([H])([H])[H])c(OC([H])([H])[H])c2[H])nc(N([H])c2nc3c(c([H])c2[H])OC(C([H])([H])[H])(C([H])([H])[H])C(=O)N3[H])c1F


 37 40  0  0  0  0  0  0  0  0999 V2000
   38.4809   11.8296  -15.4465 C   0  0  0  0  0  0  0  0  0  0  0  0
   38.2013   11.0292  -16.4821 N   0  0  0  0  0  0  0  0  0  0  0  0
   38.8857   10.9849  -17.6270 C   0  0  0  0  0  0  0  0  0  0  0  0
   39.9584   11.8096  -17.7794 C   0  0  0  0  0  0  0  0  0  0  0  0
   40.7290   11.8653  -18.8748 F   0  0  0  0  0  0  0  0  0  0  0  0
   40.3041   12.6741  -16.7291 C   0  0  0  0  0  0  0  0  0  0  0  0
   39.5546   12.6422  -15.6228 N   0  0  0  0  0  0  0  0  0  0  0  0
   37.7801   11.8991  -14.2293 N   0  0  0  0  0  0  0  0  0  0  0  0
   37.5784   10.9529  -13.7681 H   0  0  0  0  0  0  0  0  0  0  0  0
   35.6823   14.6317  -12.7613 C   0  0  0  0  0  0  0  0  0  0  0  0
   36.0492   13.4349  -13.3934 C   0  0  0  0  0  0  0  0  0  0  0  0
   37.3319   13.0688  -13.5881 C   0  0  0  0  0  0  0  0  0  0  0  0
   38.3154   13.9617  -13.1168 C   0  0  0  0  0  0  0  0  0  0  0  0
   37.9914   15.1390  -12.4945 C   0  0  0  0  0  0  0  0  0  0  0  0
   36.6691   15.4893  -12.3090 C   0  0  0  0  0  0  0  0  0  0  0  0
   33.3716   14.0122  -13.0105 C   0  0  0  0  0  0  0  0  0  0  0  0
   34.3440   14.9356  -12.6001 O   0  0  0  0  0  0  0  0  0  0  0  0
   38.9751   15.9822  -12.0494 O   0  0  0  0  0  0  0  0  0  0  0  0
   40.3024   15.7930  -12.4935 C   0  0  0  0  0  0  0  0  0  0  0  0
   36.2900   16.6748  -11.6827 O   0  0  0  0  0  0  0  0  0  0  0  0
   36.1948   16.6790  -10.2644 C   0  0  0  0  0  0  0  0  0  0  0  0
   41.4146   13.5435  -16.8583 N   0  0  0  0  0  0  0  0  0  0  0  0
   41.4290   14.2288  -17.6256 H   0  0  0  0  0  0  0  0  0  0  0  0
   42.4788   13.4482  -15.9279 C   0  0  0  0  0  0  0  0  0  0  0  0
   42.2278   13.5053  -14.5490 C   0  0  0  0  0  0  0  0  0  0  0  0
   43.2706   13.4115  -13.6568 C   0  0  0  0  0  0  0  0  0  0  0  0
   44.5668   13.2613  -14.0935 C   0  0  0  0  0  0  0  0  0  0  0  0
   45.6420   13.1637  -13.2216 O   0  0  0  0  0  0  0  0  0  0  0  0
   46.9699   13.4616  -13.6246 C   0  0  0  0  0  0  0  0  0  0  0  0
   47.9562   12.7817  -12.7186 C   0  0  0  0  0  0  0  0  0  0  0  0
   47.1832   14.9523  -13.6331 C   0  0  0  0  0  0  0  0  0  0  0  0
   47.2115   12.9519  -15.0089 C   0  0  0  0  0  0  0  0  0  0  0  0
   48.3362   12.4558  -15.3296 O   0  0  0  0  0  0  0  0  0  0  0  0
   46.1398   13.0496  -15.9273 N   0  0  0  0  0  0  0  0  0  0  0  0
   44.8067   13.2055  -15.4657 C   0  0  0  0  0  0  0  0  0  0  0  0
   43.7566   13.3015  -16.2977 N   0  0  0  0  0  0  0  0  0  0  0  0
   46.3437   13.0056  -16.9425 H   0  0  0  0  0  0  0  0  0  0  0  0
 16 17  1  0  0  0
 17 10  1  0  0  0
 10 11  2  0  0  0
 11 12  1  0  0  0
 12  8  1  0  0  0
  8  1  1  0  0  0
  1  2  2  0  0  0
  2  3  1  0  0  0
  3  4  2  0  0  0
  4  5  1  0  0  0
  4  6  1  0  0  0
  6 22  1  0  0  0
 22 24  1  0  0  0
 24 25  2  0  0  0
 25 26  1  0  0  0
 26 27  2  0  0  0
 27 28  1  0  0  0
 28 29  1  0  0  0
 29 30  1  0  0  0
 29 31  1  0  0  0
 29 32  1  0  0  0
 32 33  2  0  0  0
 32 34  1  0  0  0
 34 35  1  0  0  0
 35 36  2  0  0  0
  6  7  2  0  0  0
 12 13  2  0  0  0
 13 14  1  0  0  0
 14 18  1  0  0  0
 18 19  1  0  0  0
 14 15  2  0  0  0
 15 20  1  0  0  0
 20 21  1  0  0  0
 15 10  1  0  0  0
  7  1  1  0  0  0
 36 24  1  0  0  0
 35 27  1  0  0  0
  8  9  1  0  0  0
 22 23  1  0  0  0
 34 37  1  0  0  0
M  END
> <minimizedAffinity>
-9.00775

> <CNNscore>
0.2326098979

> <CNNaffinity>
6.6643381119

> <CNN_VS>
1.5501910448

> <CNNaffinity_variance>
0.5179340243

$$$$
[H]c1nc(N([H])c2c([H])c(OC([H])([H])[H])c(OC([H])([H])[H])c(OC([H])([H])[H])c2[H])nc(N([H])c2nc3c(c([H])c2[H])OC(C([H])([H])[H])(C([H])([H])[H])C(=O)N3[H])c1F


 37 40  0  0  0  0  0  0  0  0999 V2000
   42.6302   13.0238  -16.5011 C   0  0  0  0  0  0  0  0  0  0  0  0
   43.3080   11.9151  -16.8218 N   0  0  0  0  0  0  0  0  0  0  0  0
   44.5955   11.6943  -16.5483 C   0  0  0  0  0  0  0  0  0  0  0  0
   45.2987   12.6577  -15.8916 C   0  0  0  0  0  0  0  0  0  0  0  0
   46.5933   12.5637  -15.5568 F   0  0  0  0  0  0  0  0  0  0  0  0
   44.6451   13.8451  -15.5271 C   0  0  0  0  0  0  0  0  0  0  0  0
   43.3532   13.9692  -15.8470 N   0  0  0  0  0  0  0  0  0  0  0  0
   41.2760   13.2854  -16.7746 N   0  0  0  0  0  0  0  0  0  0  0  0
   41.0566   13.5144  -17.7984 H   0  0  0  0  0  0  0  0  0  0  0  0
   38.1323   12.5099  -14.8933 C   0  0  0  0  0  0  0  0  0  0  0  0
   39.1600   12.4415  -15.8449 C   0  0  0  0  0  0  0  0  0  0  0  0
   40.2185   13.2763  -15.8462 C   0  0  0  0  0  0  0  0  0  0  0  0
   40.2510   14.2461  -14.8240 C   0  0  0  0  0  0  0  0  0  0  0  0
   39.2636   14.3403  -13.8783 C   0  0  0  0  0  0  0  0  0  0  0  0
   38.1904   13.4723  -13.9013 C   0  0  0  0  0  0  0  0  0  0  0  0
   36.1979   11.6697  -16.0498 C   0  0  0  0  0  0  0  0  0  0  0  0
   37.0797   11.6171  -14.9606 O   0  0  0  0  0  0  0  0  0  0  0  0
   39.3293   15.2962  -12.8992 O   0  0  0  0  0  0  0  0  0  0  0  0
   40.5863   15.8237  -12.5299 C   0  0  0  0  0  0  0  0  0  0  0  0
   37.1624   13.5287  -12.9624 O   0  0  0  0  0  0  0  0  0  0  0  0
   36.0540   14.3753  -13.2370 C   0  0  0  0  0  0  0  0  0  0  0  0
   45.3501   14.8654  -14.8432 N   0  0  0  0  0  0  0  0  0  0  0  0
   46.1914   15.2703  -15.2754 H   0  0  0  0  0  0  0  0  0  0  0  0
   44.8799   15.3034  -13.5807 C   0  0  0  0  0  0  0  0  0  0  0  0
   44.8765   16.6678  -13.2550 C   0  0  0  0  0  0  0  0  0  0  0  0
   44.4170   17.0791  -12.0254 C   0  0  0  0  0  0  0  0  0  0  0  0
   43.9563   16.1710  -11.0999 C   0  0  0  0  0  0  0  0  0  0  0  0
   43.4861   16.5510   -9.8508 O   0  0  0  0  0  0  0  0  0  0  0  0
   43.4423   15.6501   -8.7548 C   0  0  0  0  0  0  0  0  0  0  0  0
   42.4363   16.1110   -7.7392 C   0  0  0  0  0  0  0  0  0  0  0  0
   44.8107   15.5212   -8.1394 C   0  0  0  0  0  0  0  0  0  0  0  0
   43.0157   14.2958   -9.2219 C   0  0  0  0  0  0  0  0  0  0  0  0
   42.2606   13.5704   -8.5024 O   0  0  0  0  0  0  0  0  0  0  0  0
   43.4893   13.8717  -10.4857 N   0  0  0  0  0  0  0  0  0  0  0  0
   43.9634   14.8171  -11.4324 C   0  0  0  0  0  0  0  0  0  0  0  0
   44.4213   14.4639  -12.6447 N   0  0  0  0  0  0  0  0  0  0  0  0
   43.4845   12.8597  -10.7093 H   0  0  0  0  0  0  0  0  0  0  0  0
 16 17  1  0  0  0
 17 10  1  0  0  0
 10 11  2  0  0  0
 11 12  1  0  0  0
 12  8  1  0  0  0
  8  1  1  0  0  0
  1  2  2  0  0  0
  2  3  1  0  0  0
  3  4  2  0  0  0
  4  5  1  0  0  0
  4  6  1  0  0  0
  6 22  1  0  0  0
 22 24  1  0  0  0
 24 25  2  0  0  0
 25 26  1  0  0  0
 26 27  2  0  0  0
 27 28  1  0  0  0
 28 29  1  0  0  0
 29 30  1  0  0  0
 29 31  1  0  0  0
 29 32  1  0  0  0
 32 33  2  0  0  0
 32 34  1  0  0  0
 34 35  1  0  0  0
 35 36  2  0  0  0
  6  7  2  0  0  0
 12 13  2  0  0  0
 13 14  1  0  0  0
 14 18  1  0  0  0
 18 19  1  0  0  0
 14 15  2  0  0  0
 15 20  1  0  0  0
 20 21  1  0  0  0
 15 10  1  0  0  0
  7  1  1  0  0  0
 36 24  1  0  0  0
 35 27  1  0  0  0
  8  9  1  0  0  0
 22 23  1  0  0  0
 34 37  1  0  0  0
M  END
> <minimizedAffinity>
-7.48717

> <CNNscore>
0.1243498772

> <CNNaffinity>
6.1520128250

> <CNN_VS>
0.7650020123

> <CNNaffinity_variance>
0.2843411863

$$$$
[H]c1nc(N([H])c2c([H])c(OC([H])([H])[H])c(OC([H])([H])[H])c(OC([H])([H])[H])c2[H])nc(N([H])c2nc3c(c([H])c2[H])OC(C([H])([H])[H])(C([H])([H])[H])C(=O)N3[H])c1F


 37 40  0  0  0  0  0  0  0  0999 V2000
   38.7771   12.2670  -16.9168 C   0  0  0  0  0  0  0  0  0  0  0  0
   38.4989   11.0598  -17.4233 N   0  0  0  0  0  0  0  0  0  0  0  0
   37.3340   10.4212  -17.2946 C   0  0  0  0  0  0  0  0  0  0  0  0
   36.3321   11.0238  -16.5969 C   0  0  0  0  0  0  0  0  0  0  0  0
   35.1177   10.4939  -16.3933 F   0  0  0  0  0  0  0  0  0  0  0  0
   36.5605   12.2917  -16.0399 C   0  0  0  0  0  0  0  0  0  0  0  0
   37.7621   12.8470  -16.2256 N   0  0  0  0  0  0  0  0  0  0  0  0
   39.9921   12.9647  -17.0354 N   0  0  0  0  0  0  0  0  0  0  0  0
   40.2133   13.3252  -18.0201 H   0  0  0  0  0  0  0  0  0  0  0  0
   41.6396   14.0613  -13.8562 C   0  0  0  0  0  0  0  0  0  0  0  0
   40.6568   13.8259  -14.8285 C   0  0  0  0  0  0  0  0  0  0  0  0
   40.9151   13.2180  -16.0037 C   0  0  0  0  0  0  0  0  0  0  0  0
   42.2488   12.8172  -16.2203 C   0  0  0  0  0  0  0  0  0  0  0  0
   43.2333   13.0314  -15.2913 C   0  0  0  0  0  0  0  0  0  0  0  0
   42.9406   13.6571  -14.0961 C   0  0  0  0  0  0  0  0  0  0  0  0
   41.0700   16.0760  -12.6722 C   0  0  0  0  0  0  0  0  0  0  0  0
   41.2944   14.6917  -12.6759 O   0  0  0  0  0  0  0  0  0  0  0  0
   44.5191   12.6276  -15.5371 O   0  0  0  0  0  0  0  0  0  0  0  0
   44.8916   12.2640  -16.8500 C   0  0  0  0  0  0  0  0  0  0  0  0
   43.9067   13.8974  -13.1212 O   0  0  0  0  0  0  0  0  0  0  0  0
   44.6564   15.1020  -13.2077 C   0  0  0  0  0  0  0  0  0  0  0  0
   35.5375   12.9435  -15.3089 N   0  0  0  0  0  0  0  0  0  0  0  0
   34.5582   12.8254  -15.6017 H   0  0  0  0  0  0  0  0  0  0  0  0
   35.8875   13.7424  -14.1925 C   0  0  0  0  0  0  0  0  0  0  0  0
   37.1639   14.3164  -14.0985 C   0  0  0  0  0  0  0  0  0  0  0  0
   37.4903   15.0900  -13.0088 C   0  0  0  0  0  0  0  0  0  0  0  0
   36.5817   15.3143  -12.0000 C   0  0  0  0  0  0  0  0  0  0  0  0
   36.8774   16.0889  -10.8872 O   0  0  0  0  0  0  0  0  0  0  0  0
   36.1606   15.9638   -9.6686 C   0  0  0  0  0  0  0  0  0  0  0  0
   36.2904   17.2194   -8.8545 C   0  0  0  0  0  0  0  0  0  0  0  0
   36.6573   14.7681   -8.8996 C   0  0  0  0  0  0  0  0  0  0  0  0
   34.7061   15.7624   -9.9483 C   0  0  0  0  0  0  0  0  0  0  0  0
   33.8237   16.2910   -9.2027 O   0  0  0  0  0  0  0  0  0  0  0  0
   34.3700   14.9656  -11.0679 N   0  0  0  0  0  0  0  0  0  0  0  0
   35.3155   14.7398  -12.1022 C   0  0  0  0  0  0  0  0  0  0  0  0
   35.0434   13.9925  -13.1845 N   0  0  0  0  0  0  0  0  0  0  0  0
   33.4223   14.5493  -11.1209 H   0  0  0  0  0  0  0  0  0  0  0  0
 16 17  1  0  0  0
 17 10  1  0  0  0
 10 11  2  0  0  0
 11 12  1  0  0  0
 12  8  1  0  0  0
  8  1  1  0  0  0
  1  2  2  0  0  0
  2  3  1  0  0  0
  3  4  2  0  0  0
  4  5  1  0  0  0
  4  6  1  0  0  0
  6 22  1  0  0  0
 22 24  1  0  0  0
 24 25  2  0  0  0
 25 26  1  0  0  0
 26 27  2  0  0  0
 27 28  1  0  0  0
 28 29  1  0  0  0
 29 30  1  0  0  0
 29 31  1  0  0  0
 29 32  1  0  0  0
 32 33  2  0  0  0
 32 34  1  0  0  0
 34 35  1  0  0  0
 35 36  2  0  0  0
  6  7  2  0  0  0
 12 13  2  0  0  0
 13 14  1  0  0  0
 14 18  1  0  0  0
 18 19  1  0  0  0
 14 15  2  0  0  0
 15 20  1  0  0  0
 20 21  1  0  0  0
 15 10  1  0  0  0
  7  1  1  0  0  0
 36 24  1  0  0  0
 35 27  1  0  0  0
  8  9  1  0  0  0
 22 23  1  0  0  0
 34 37  1  0  0  0
M  END
> <minimizedAffinity>
-8.05697

> <CNNscore>
0.1221738234

> <CNNaffinity>
6.8205275536

> <CNN_VS>
0.8332899213

> <CNNaffinity_variance>
0.1831681132

$$$$
[H]c1nc(N([H])c2c([H])c(OC([H])([H])[H])c(OC([H])([H])[H])c(OC([H])([H])[H])c2[H])nc(N([H])c2nc3c(c([H])c2[H])OC(C([H])([H])[H])(C([H])([H])[H])C(=O)N3[H])c1F


 37 40  0  0  0  0  0  0  0  0999 V2000
   42.5840   13.0187  -16.4627 C   0  0  0  0  0  0  0  0  0  0  0  0
   43.2629   11.9275  -16.8365 N   0  0  0  0  0  0  0  0  0  0  0  0
   44.5616   11.7153  -16.6132 C   0  0  0  0  0  0  0  0  0  0  0  0
   45.2758   12.6694  -15.9548 C   0  0  0  0  0  0  0  0  0  0  0  0
   46.5822   12.5823  -15.6671 F   0  0  0  0  0  0  0  0  0  0  0  0
   44.6216   13.8384  -15.5360 C   0  0  0  0  0  0  0  0  0  0  0  0
   43.3181   13.9551  -15.8081 N   0  0  0  0  0  0  0  0  0  0  0  0
   41.2182   13.2708  -16.6827 N   0  0  0  0  0  0  0  0  0  0  0  0
   40.9281   13.3271  -17.7129 H   0  0  0  0  0  0  0  0  0  0  0  0
   39.2102   14.5069  -13.7735 C   0  0  0  0  0  0  0  0  0  0  0  0
   40.2227   14.4028  -14.7381 C   0  0  0  0  0  0  0  0  0  0  0  0
   40.2321   13.4539  -15.6956 C   0  0  0  0  0  0  0  0  0  0  0  0
   39.1531   12.5471  -15.6877 C   0  0  0  0  0  0  0  0  0  0  0  0
   38.1471   12.6209  -14.7599 C   0  0  0  0  0  0  0  0  0  0  0  0
   38.1633   13.6029  -13.7898 C   0  0  0  0  0  0  0  0  0  0  0  0
   40.5237   15.9876  -12.4068 C   0  0  0  0  0  0  0  0  0  0  0  0
   39.2733   15.5086  -12.8237 O   0  0  0  0  0  0  0  0  0  0  0  0
   37.1140   11.7216  -14.7836 O   0  0  0  0  0  0  0  0  0  0  0  0
   36.2638   11.6733  -15.9104 C   0  0  0  0  0  0  0  0  0  0  0  0
   37.1642   13.7183  -12.8255 O   0  0  0  0  0  0  0  0  0  0  0  0
   36.0254   14.5103  -13.1364 C   0  0  0  0  0  0  0  0  0  0  0  0
   45.3381   14.8485  -14.8489 N   0  0  0  0  0  0  0  0  0  0  0  0
   46.1852   15.2437  -15.2788 H   0  0  0  0  0  0  0  0  0  0  0  0
   44.8710   15.2900  -13.5864 C   0  0  0  0  0  0  0  0  0  0  0  0
   44.8758   16.6546  -13.2616 C   0  0  0  0  0  0  0  0  0  0  0  0
   44.4194   17.0693  -12.0319 C   0  0  0  0  0  0  0  0  0  0  0  0
   43.9539   16.1645  -11.1057 C   0  0  0  0  0  0  0  0  0  0  0  0
   43.4865   16.5480   -9.8565 O   0  0  0  0  0  0  0  0  0  0  0  0
   43.4380   15.6480   -8.7600 C   0  0  0  0  0  0  0  0  0  0  0  0
   42.4352   16.1154   -7.7441 C   0  0  0  0  0  0  0  0  0  0  0  0
   44.8059   15.5115   -8.1452 C   0  0  0  0  0  0  0  0  0  0  0  0
   43.0033   14.2959   -9.2260 C   0  0  0  0  0  0  0  0  0  0  0  0
   42.2443   13.5754   -8.5058 O   0  0  0  0  0  0  0  0  0  0  0  0
   43.4737   13.8683  -10.4899 N   0  0  0  0  0  0  0  0  0  0  0  0
   43.9528   14.8103  -11.4373 C   0  0  0  0  0  0  0  0  0  0  0  0
   44.4081   14.4538  -12.6497 N   0  0  0  0  0  0  0  0  0  0  0  0
   43.4630   12.8562  -10.7129 H   0  0  0  0  0  0  0  0  0  0  0  0
 16 17  1  0  0  0
 17 10  1  0  0  0
 10 11  2  0  0  0
 11 12  1  0  0  0
 12  8  1  0  0  0
  8  1  1  0  0  0
  1  2  2  0  0  0
  2  3  1  0  0  0
  3  4  2  0  0  0
  4  5  1  0  0  0
  4  6  1  0  0  0
  6 22  1  0  0  0
 22 24  1  0  0  0
 24 25  2  0  0  0
 25 26  1  0  0  0
 26 27  2  0  0  0
 27 28  1  0  0  0
 28 29  1  0  0  0
 29 30  1  0  0  0
 29 31  1  0  0  0
 29 32  1  0  0  0
 32 33  2  0  0  0
 32 34  1  0  0  0
 34 35  1  0  0  0
 35 36  2  0  0  0
  6  7  2  0  0  0
 12 13  2  0  0  0
 13 14  1  0  0  0
 14 18  1  0  0  0
 18 19  1  0  0  0
 14 15  2  0  0  0
 15 20  1  0  0  0
 20 21  1  0  0  0
 15 10  1  0  0  0
  7  1  1  0  0  0
 36 24  1  0  0  0
 35 27  1  0  0  0
  8  9  1  0  0  0
 22 23  1  0  0  0
 34 37  1  0  0  0
M  END
> <minimizedAffinity>
-7.53875

> <CNNscore>
0.1106853485

> <CNNaffinity>
6.0678510666

> <CNN_VS>
0.6716222167

> <CNNaffinity_variance>
0.3207543492

$$$$
[H]c1nc(N([H])c2c([H])c(OC([H])([H])[H])c(OC([H])([H])[H])c(OC([H])([H])[H])c2[H])nc(N([H])c2nc3c(c([H])c2[H])OC(C([H])([H])[H])(C([H])([H])[H])C(=O)N3[H])c1F


 37 40  0  0  0  0  0  0  0  0999 V2000
   35.9176   14.0517  -14.1647 C   0  0  0  0  0  0  0  0  0  0  0  0
   34.7849   13.3532  -14.3078 N   0  0  0  0  0  0  0  0  0  0  0  0
   34.6476   12.2541  -15.0523 C   0  0  0  0  0  0  0  0  0  0  0  0
   35.7307   11.7848  -15.7308 C   0  0  0  0  0  0  0  0  0  0  0  0
   35.7293   10.6952  -16.5116 F   0  0  0  0  0  0  0  0  0  0  0  0
   36.9494   12.4728  -15.6226 C   0  0  0  0  0  0  0  0  0  0  0  0
   36.9831   13.5638  -14.8511 N   0  0  0  0  0  0  0  0  0  0  0  0
   36.0937   15.2111  -13.3889 N   0  0  0  0  0  0  0  0  0  0  0  0
   36.1000   16.1293  -13.9414 H   0  0  0  0  0  0  0  0  0  0  0  0
   35.5296   15.3771   -9.6905 C   0  0  0  0  0  0  0  0  0  0  0  0
   35.2805   15.3020  -11.0685 C   0  0  0  0  0  0  0  0  0  0  0  0
   36.2612   15.2655  -11.9927 C   0  0  0  0  0  0  0  0  0  0  0  0
   37.5826   15.3060  -11.5039 C   0  0  0  0  0  0  0  0  0  0  0  0
   37.8612   15.3789  -10.1641 C   0  0  0  0  0  0  0  0  0  0  0  0
   36.8368   15.4157   -9.2394 C   0  0  0  0  0  0  0  0  0  0  0  0
   33.2590   16.0017   -9.2009 C   0  0  0  0  0  0  0  0  0  0  0  0
   34.4683   15.4112   -8.8062 O   0  0  0  0  0  0  0  0  0  0  0  0
   39.1586   15.4165   -9.7261 O   0  0  0  0  0  0  0  0  0  0  0  0
   39.9506   16.5523  -10.0042 C   0  0  0  0  0  0  0  0  0  0  0  0
   37.0695   15.4902   -7.8677 O   0  0  0  0  0  0  0  0  0  0  0  0
   37.2643   16.7757   -7.2930 C   0  0  0  0  0  0  0  0  0  0  0  0
   38.0934   12.0088  -16.3166 N   0  0  0  0  0  0  0  0  0  0  0  0
   37.9761   11.3287  -17.0796 H   0  0  0  0  0  0  0  0  0  0  0  0
   39.3716   12.4924  -15.9431 C   0  0  0  0  0  0  0  0  0  0  0  0
   40.5069   12.1646  -16.6989 C   0  0  0  0  0  0  0  0  0  0  0  0
   41.7419   12.6412  -16.3248 C   0  0  0  0  0  0  0  0  0  0  0  0
   41.8876   13.4402  -15.2141 C   0  0  0  0  0  0  0  0  0  0  0  0
   43.1178   13.9379  -14.8082 O   0  0  0  0  0  0  0  0  0  0  0  0
   43.3591   14.3577  -13.4740 C   0  0  0  0  0  0  0  0  0  0  0  0
   44.5143   15.3165  -13.4286 C   0  0  0  0  0  0  0  0  0  0  0  0
   43.6156   13.1613  -12.5962 C   0  0  0  0  0  0  0  0  0  0  0  0
   42.1624   15.0761  -12.9389 C   0  0  0  0  0  0  0  0  0  0  0  0
   42.2985   16.0816  -12.1744 O   0  0  0  0  0  0  0  0  0  0  0  0
   40.8921   14.5854  -13.3221 N   0  0  0  0  0  0  0  0  0  0  0  0
   40.7536   13.7608  -14.4691 C   0  0  0  0  0  0  0  0  0  0  0  0
   39.5697   13.2721  -14.8736 N   0  0  0  0  0  0  0  0  0  0  0  0
   40.0641   14.8376  -12.7520 H   0  0  0  0  0  0  0  0  0  0  0  0
 16 17  1  0  0  0
 17 10  1  0  0  0
 10 11  2  0  0  0
 11 12  1  0  0  0
 12  8  1  0  0  0
  8  1  1  0  0  0
  1  2  2  0  0  0
  2  3  1  0  0  0
  3  4  2  0  0  0
  4  5  1  0  0  0
  4  6  1  0  0  0
  6 22  1  0  0  0
 22 24  1  0  0  0
 24 25  2  0  0  0
 25 26  1  0  0  0
 26 27  2  0  0  0
 27 28  1  0  0  0
 28 29  1  0  0  0
 29 30  1  0  0  0
 29 31  1  0  0  0
 29 32  1  0  0  0
 32 33  2  0  0  0
 32 34  1  0  0  0
 34 35  1  0  0  0
 35 36  2  0  0  0
  6  7  2  0  0  0
 12 13  2  0  0  0
 13 14  1  0  0  0
 14 18  1  0  0  0
 18 19  1  0  0  0
 14 15  2  0  0  0
 15 20  1  0  0  0
 20 21  1  0  0  0
 15 10  1  0  0  0
  7  1  1  0  0  0
 36 24  1  0  0  0
 35 27  1  0  0  0
  8  9  1  0  0  0
 22 23  1  0  0  0
 34 37  1  0  0  0
M  END
> <minimizedAffinity>
-8.40861

> <CNNscore>
0.0729180649

> <CNNaffinity>
6.4089798927

> <CNN_VS>
0.4673304260

> <CNNaffinity_variance>
0.1931541264

$$$$
[H]O[C@]([H])(C([H])([H])N([H])C(=O)c1c(C([H])([H])[H])c(/C([H])=C2\C(=O)N([H])c3c([H])c([H])c(F)c([H])c32)n([H])c1C([H])([H])[H])C([H])([H])N1C([H])([H])C([H])([H])OC([H])([H])C1([H])[H]


 36 39  0  0  0  0  0  0  0  0999 V2000
   44.7399   12.1564  -17.3512 C   0  0  0  0  0  0  0  0  0  0  0  0
   43.5422   12.5245  -16.5361 C   0  0  0  0  0  0  0  0  0  0  0  0
   42.2760   12.1843  -16.7523 N   0  0  0  0  0  0  0  0  0  0  0  0
   41.4900   12.7019  -15.8211 C   0  0  0  0  0  0  0  0  0  0  0  0
   42.3088   13.4352  -14.9325 C   0  0  0  0  0  0  0  0  0  0  0  0
   41.8065   14.1528  -13.7288 C   0  0  0  0  0  0  0  0  0  0  0  0
   43.5732   13.3256  -15.3736 C   0  0  0  0  0  0  0  0  0  0  0  0
   41.9829   11.5864  -17.5872 H   0  0  0  0  0  0  0  0  0  0  0  0
   40.0584   12.6013  -15.6086 C   0  0  0  0  0  0  0  0  0  0  0  0
   39.2079   11.9764  -16.3937 C   0  0  0  0  0  0  0  0  0  0  0  0
   39.4996   11.2557  -17.6188 C   0  0  0  0  0  0  0  0  0  0  0  0
   40.6419   11.0776  -18.1504 O   0  0  0  0  0  0  0  0  0  0  0  0
   38.2496   10.7808  -18.1104 N   0  0  0  0  0  0  0  0  0  0  0  0
   37.1750   11.1743  -17.2392 C   0  0  0  0  0  0  0  0  0  0  0  0
   35.8116   10.9648  -17.2759 C   0  0  0  0  0  0  0  0  0  0  0  0
   34.9989   11.4633  -16.2921 C   0  0  0  0  0  0  0  0  0  0  0  0
   35.5489   12.1844  -15.2501 C   0  0  0  0  0  0  0  0  0  0  0  0
   34.7320   12.6783  -14.2729 F   0  0  0  0  0  0  0  0  0  0  0  0
   36.9118   12.3846  -15.2279 C   0  0  0  0  0  0  0  0  0  0  0  0
   37.7424   11.8910  -16.2079 C   0  0  0  0  0  0  0  0  0  0  0  0
   38.1325   10.2325  -18.9697 H   0  0  0  0  0  0  0  0  0  0  0  0
   44.8096   13.8603  -14.7968 C   0  0  0  0  0  0  0  0  0  0  0  0
   45.5182   13.0156  -14.1424 O   0  0  0  0  0  0  0  0  0  0  0  0
   45.2726   15.1652  -14.8972 N   0  0  0  0  0  0  0  0  0  0  0  0
   44.6591   15.8455  -15.4738 H   0  0  0  0  0  0  0  0  0  0  0  0
   46.4668   15.7542  -14.3710 C   0  0  0  0  0  0  0  0  0  0  0  0
   46.3897   17.2174  -14.1294 C   0  0  0  0  0  0  0  0  0  0  0  0
   46.7809   18.0003  -15.1910 O   0  0  0  0  0  0  0  0  0  0  0  0
   47.6220   18.4946  -15.0554 H   0  0  0  0  0  0  0  0  0  0  0  0
   44.9529   17.5441  -13.7191 C   0  0  0  0  0  0  0  0  0  0  0  0
   44.7627   17.5108  -12.3152 N   0  0  0  0  0  0  0  0  0  0  0  0
   43.8706   16.5500  -11.8288 C   0  0  0  0  0  0  0  0  0  0  0  0
   44.1087   16.0230  -10.4588 C   0  0  0  0  0  0  0  0  0  0  0  0
   44.9402   16.7800   -9.6752 O   0  0  0  0  0  0  0  0  0  0  0  0
   46.1512   16.9020  -10.3961 C   0  0  0  0  0  0  0  0  0  0  0  0
   45.8499   17.8919  -11.4996 C   0  0  0  0  0  0  0  0  0  0  0  0
  1  2  1  0  0  0
  2  3  1  0  0  0
  3  4  1  0  0  0
  4  9  1  0  0  0
  9 10  2  0  0  0
 10 11  1  0  0  0
 11 12  2  0  0  0
 11 13  1  0  0  0
 13 14  1  0  0  0
 14 15  2  0  0  0
 15 16  1  0  0  0
 16 17  2  0  0  0
 17 18  1  0  0  0
 17 19  1  0  0  0
 19 20  2  0  0  0
  4  5  2  0  0  0
  5  6  1  0  0  0
  5  7  1  0  0  0
  7 22  1  0  0  0
 22 23  2  0  0  0
 22 24  1  0  0  0
 24 26  1  0  0  0
 26 27  1  0  0  0
 27 28  1  0  0  0
 27 30  1  0  0  0
 30 31  1  0  0  0
 31 32  1  0  0  0
 32 33  1  0  0  0
 33 34  1  0  0  0
 34 35  1  0  0  0
 35 36  1  0  0  0
  7  2  2  0  0  0
 36 31  1  0  0  0
 20 10  1  0  0  0
 20 14  1  0  0  0
  3  8  1  0  0  0
 13 21  1  0  0  0
 24 25  1  0  0  0
 28 29  1  0  0  0
M  END
> <minimizedAffinity>
-9.51289

> <CNNscore>
0.8156023026

> <CNNaffinity>
6.8906264305

> <CNN_VS>
5.6200108528

> <CNNaffinity_variance>
0.2308812141

$$$$
[H]O[C@]([H])(C([H])([H])N([H])C(=O)c1c(C([H])([H])[H])c(/C([H])=C2\C(=O)N([H])c3c([H])c([H])c(F)c([H])c32)n([H])c1C([H])([H])[H])C([H])([H])N1C([H])([H])C([H])([H])OC([H])([H])C1([H])[H]


 36 39  0  0  0  0  0  0  0  0999 V2000
   38.8483   16.4003  -10.3714 C   0  0  0  0  0  0  0  0  0  0  0  0
   38.2529   15.3934  -11.3021 C   0  0  0  0  0  0  0  0  0  0  0  0
   38.7663   14.9330  -12.4380 N   0  0  0  0  0  0  0  0  0  0  0  0
   37.9485   14.0533  -12.9949 C   0  0  0  0  0  0  0  0  0  0  0  0
   36.8168   13.9341  -12.1565 C   0  0  0  0  0  0  0  0  0  0  0  0
   35.6708   13.0212  -12.4202 C   0  0  0  0  0  0  0  0  0  0  0  0
   37.0049   14.7601  -11.1137 C   0  0  0  0  0  0  0  0  0  0  0  0
   39.7068   15.2708  -12.8146 H   0  0  0  0  0  0  0  0  0  0  0  0
   38.0666   13.2668  -14.2083 C   0  0  0  0  0  0  0  0  0  0  0  0
   39.1554   13.1346  -14.9343 C   0  0  0  0  0  0  0  0  0  0  0  0
   40.4584   13.7248  -14.6911 C   0  0  0  0  0  0  0  0  0  0  0  0
   40.7940   14.4663  -13.7130 O   0  0  0  0  0  0  0  0  0  0  0  0
   41.2940   13.3056  -15.7662 N   0  0  0  0  0  0  0  0  0  0  0  0
   40.5667   12.4691  -16.6827 C   0  0  0  0  0  0  0  0  0  0  0  0
   40.9207   11.8275  -17.8519 C   0  0  0  0  0  0  0  0  0  0  0  0
   40.0078   11.0751  -18.5428 C   0  0  0  0  0  0  0  0  0  0  0  0
   38.7173   10.9559  -18.0651 C   0  0  0  0  0  0  0  0  0  0  0  0
   37.8127   10.2040  -18.7596 F   0  0  0  0  0  0  0  0  0  0  0  0
   38.3797   11.6025  -16.8962 C   0  0  0  0  0  0  0  0  0  0  0  0
   39.2841   12.3622  -16.1899 C   0  0  0  0  0  0  0  0  0  0  0  0
   42.2809   13.5656  -15.8718 H   0  0  0  0  0  0  0  0  0  0  0  0
   36.1555   14.9872   -9.9414 C   0  0  0  0  0  0  0  0  0  0  0  0
   36.3890   14.2214   -8.9399 O   0  0  0  0  0  0  0  0  0  0  0  0
   35.1496   15.9362   -9.8198 N   0  0  0  0  0  0  0  0  0  0  0  0
   34.9941   16.5783  -10.6772 H   0  0  0  0  0  0  0  0  0  0  0  0
   34.2902   16.2200   -8.7105 C   0  0  0  0  0  0  0  0  0  0  0  0
   34.8170   17.2231   -7.7505 C   0  0  0  0  0  0  0  0  0  0  0  0
   35.4800   18.2823   -8.3264 O   0  0  0  0  0  0  0  0  0  0  0  0
   36.4509   18.3041   -8.1620 H   0  0  0  0  0  0  0  0  0  0  0  0
   33.6418   17.7178   -6.9058 C   0  0  0  0  0  0  0  0  0  0  0  0
   34.0541   18.4949   -5.7948 N   0  0  0  0  0  0  0  0  0  0  0  0
   33.5450   19.7952   -5.7193 C   0  0  0  0  0  0  0  0  0  0  0  0
   33.3773   20.3894   -4.3664 C   0  0  0  0  0  0  0  0  0  0  0  0
   34.0693   19.7652   -3.3615 O   0  0  0  0  0  0  0  0  0  0  0  0
   33.6538   18.4132   -3.3835 C   0  0  0  0  0  0  0  0  0  0  0  0
   34.3396   17.8143   -4.5916 C   0  0  0  0  0  0  0  0  0  0  0  0
  1  2  1  0  0  0
  2  3  1  0  0  0
  3  4  1  0  0  0
  4  9  1  0  0  0
  9 10  2  0  0  0
 10 11  1  0  0  0
 11 12  2  0  0  0
 11 13  1  0  0  0
 13 14  1  0  0  0
 14 15  2  0  0  0
 15 16  1  0  0  0
 16 17  2  0  0  0
 17 18  1  0  0  0
 17 19  1  0  0  0
 19 20  2  0  0  0
  4  5  2  0  0  0
  5  6  1  0  0  0
  5  7  1  0  0  0
  7 22  1  0  0  0
 22 23  2  0  0  0
 22 24  1  0  0  0
 24 26  1  0  0  0
 26 27  1  0  0  0
 27 28  1  0  0  0
 27 30  1  0  0  0
 30 31  1  0  0  0
 31 32  1  0  0  0
 32 33  1  0  0  0
 33 34  1  0  0  0
 34 35  1  0  0  0
 35 36  1  0  0  0
  7  2  2  0  0  0
 36 31  1  0  0  0
 20 10  1  0  0  0
 20 14  1  0  0  0
  3  8  1  0  0  0
 13 21  1  0  0  0
 24 25  1  0  0  0
 28 29  1  0  0  0
M  END
> <minimizedAffinity>
-8.97284

> <CNNscore>
0.5844092965

> <CNNaffinity>
6.2504396439

> <CNN_VS>
3.6528151035

> <CNNaffinity_variance>
0.2937110364

$$$$
[H]O[C@]([H])(C([H])([H])N([H])C(=O)c1c(C([H])([H])[H])c(/C([H])=C2\C(=O)N([H])c3c([H])c([H])c(F)c([H])c32)n([H])c1C([H])([H])[H])C([H])([H])N1C([H])([H])C([H])([H])OC([H])([H])C1([H])[H]


 36 39  0  0  0  0  0  0  0  0999 V2000
   38.9221   16.3427  -10.3611 C   0  0  0  0  0  0  0  0  0  0  0  0
   38.2975   15.3596  -11.2980 C   0  0  0  0  0  0  0  0  0  0  0  0
   38.8068   14.8744  -12.4254 N   0  0  0  0  0  0  0  0  0  0  0  0
   37.9601   14.0290  -12.9920 C   0  0  0  0  0  0  0  0  0  0  0  0
   36.8125   13.9607  -12.1697 C   0  0  0  0  0  0  0  0  0  0  0  0
   35.6324   13.0968  -12.4477 C   0  0  0  0  0  0  0  0  0  0  0  0
   37.0209   14.7808  -11.1261 C   0  0  0  0  0  0  0  0  0  0  0  0
   39.7661   15.1707  -12.7892 H   0  0  0  0  0  0  0  0  0  0  0  0
   38.0616   13.2347  -14.2018 C   0  0  0  0  0  0  0  0  0  0  0  0
   39.1277   13.1323  -14.9655 C   0  0  0  0  0  0  0  0  0  0  0  0
   40.4174   13.7689  -14.7748 C   0  0  0  0  0  0  0  0  0  0  0  0
   40.7622   14.5313  -13.8161 O   0  0  0  0  0  0  0  0  0  0  0  0
   41.2280   13.3676  -15.8756 N   0  0  0  0  0  0  0  0  0  0  0  0
   40.4975   12.4976  -16.7577 C   0  0  0  0  0  0  0  0  0  0  0  0
   40.8313   11.8566  -17.9332 C   0  0  0  0  0  0  0  0  0  0  0  0
   39.9206   11.0666  -18.5840 C   0  0  0  0  0  0  0  0  0  0  0  0
   38.6529   10.9085  -18.0589 C   0  0  0  0  0  0  0  0  0  0  0  0
   37.7504   10.1191  -18.7136 F   0  0  0  0  0  0  0  0  0  0  0  0
   38.3353   11.5549  -16.8844 C   0  0  0  0  0  0  0  0  0  0  0  0
   39.2378   12.3521  -16.2180 C   0  0  0  0  0  0  0  0  0  0  0  0
   42.2009   13.6600  -16.0191 H   0  0  0  0  0  0  0  0  0  0  0  0
   36.1655   15.0473   -9.9666 C   0  0  0  0  0  0  0  0  0  0  0  0
   36.2690   14.2054   -9.0051 O   0  0  0  0  0  0  0  0  0  0  0  0
   35.2791   16.1054   -9.8181 N   0  0  0  0  0  0  0  0  0  0  0  0
   35.2329   16.8073  -10.6408 H   0  0  0  0  0  0  0  0  0  0  0  0
   34.4228   16.4328   -8.7184 C   0  0  0  0  0  0  0  0  0  0  0  0
   33.2899   15.4964   -8.5062 C   0  0  0  0  0  0  0  0  0  0  0  0
   33.4955   14.5523   -7.5268 O   0  0  0  0  0  0  0  0  0  0  0  0
   33.5884   13.6277   -7.8534 H   0  0  0  0  0  0  0  0  0  0  0  0
   32.0485   16.3341   -8.1954 C   0  0  0  0  0  0  0  0  0  0  0  0
   30.9710   16.0648   -9.0757 N   0  0  0  0  0  0  0  0  0  0  0  0
   31.3092   15.6920  -10.3804 C   0  0  0  0  0  0  0  0  0  0  0  0
   30.3655   14.8009  -11.1062 C   0  0  0  0  0  0  0  0  0  0  0  0
   29.1021   14.7307  -10.5797 O   0  0  0  0  0  0  0  0  0  0  0  0
   29.2623   14.3223   -9.2349 C   0  0  0  0  0  0  0  0  0  0  0  0
   29.7837   15.5466   -8.5153 C   0  0  0  0  0  0  0  0  0  0  0  0
  1  2  1  0  0  0
  2  3  1  0  0  0
  3  4  1  0  0  0
  4  9  1  0  0  0
  9 10  2  0  0  0
 10 11  1  0  0  0
 11 12  2  0  0  0
 11 13  1  0  0  0
 13 14  1  0  0  0
 14 15  2  0  0  0
 15 16  1  0  0  0
 16 17  2  0  0  0
 17 18  1  0  0  0
 17 19  1  0  0  0
 19 20  2  0  0  0
  4  5  2  0  0  0
  5  6  1  0  0  0
  5  7  1  0  0  0
  7 22  1  0  0  0
 22 23  2  0  0  0
 22 24  1  0  0  0
 24 26  1  0  0  0
 26 27  1  0  0  0
 27 28  1  0  0  0
 27 30  1  0  0  0
 30 31  1  0  0  0
 31 32  1  0  0  0
 32 33  1  0  0  0
 33 34  1  0  0  0
 34 35  1  0  0  0
 35 36  1  0  0  0
  7  2  2  0  0  0
 36 31  1  0  0  0
 20 10  1  0  0  0
 20 14  1  0  0  0
  3  8  1  0  0  0
 13 21  1  0  0  0
 24 25  1  0  0  0
 28 29  1  0  0  0
M  END
> <minimizedAffinity>
-9.93998

> <CNNscore>
0.5774780512

> <CNNaffinity>
6.3897118568

> <CNN_VS>
3.6899182796

> <CNNaffinity_variance>
0.2517550588

$$$$
[H]O[C@]([H])(C([H])([H])N([H])C(=O)c1c(C([H])([H])[H])c(/C([H])=C2\C(=O)N([H])c3c([H])c([H])c(F)c([H])c32)n([H])c1C([H])([H])[H])C([H])([H])N1C([H])([H])C([H])([H])OC([H])([H])C1([H])[H]


 36 39  0  0  0  0  0  0  0  0999 V2000
   44.7076   13.9014  -14.0413 C   0  0  0  0  0  0  0  0  0  0  0  0
   43.2226   14.0342  -13.9348 C   0  0  0  0  0  0  0  0  0  0  0  0
   42.2952   13.2897  -14.5277 N   0  0  0  0  0  0  0  0  0  0  0  0
   41.0829   13.7096  -14.2010 C   0  0  0  0  0  0  0  0  0  0  0  0
   41.2349   14.8121  -13.3296 C   0  0  0  0  0  0  0  0  0  0  0  0
   40.1019   15.5569  -12.7149 C   0  0  0  0  0  0  0  0  0  0  0  0
   42.5534   15.0117  -13.1661 C   0  0  0  0  0  0  0  0  0  0  0  0
   42.5463   12.4840  -15.1822 H   0  0  0  0  0  0  0  0  0  0  0  0
   39.7667   13.2195  -14.5645 C   0  0  0  0  0  0  0  0  0  0  0  0
   39.4732   12.5444  -15.6547 C   0  0  0  0  0  0  0  0  0  0  0  0
   40.3771   12.1385  -16.7145 C   0  0  0  0  0  0  0  0  0  0  0  0
   41.6313   12.3447  -16.7739 O   0  0  0  0  0  0  0  0  0  0  0  0
   39.5809   11.4566  -17.6795 N   0  0  0  0  0  0  0  0  0  0  0  0
   38.2034   11.4149  -17.2681 C   0  0  0  0  0  0  0  0  0  0  0  0
   37.0678   10.8803  -17.8415 C   0  0  0  0  0  0  0  0  0  0  0  0
   35.8521   10.9852  -17.2186 C   0  0  0  0  0  0  0  0  0  0  0  0
   35.7599   11.6331  -16.0022 C   0  0  0  0  0  0  0  0  0  0  0  0
   34.5441   11.7336  -15.3873 F   0  0  0  0  0  0  0  0  0  0  0  0
   36.9029   12.1611  -15.4428 C   0  0  0  0  0  0  0  0  0  0  0  0
   38.1317   12.0648  -16.0549 C   0  0  0  0  0  0  0  0  0  0  0  0
   39.9420   11.0506  -18.5498 H   0  0  0  0  0  0  0  0  0  0  0  0
   43.2493   15.9970  -12.3341 C   0  0  0  0  0  0  0  0  0  0  0  0
   43.4894   17.1210  -12.9024 O   0  0  0  0  0  0  0  0  0  0  0  0
   43.6570   15.8282  -11.0179 N   0  0  0  0  0  0  0  0  0  0  0  0
   43.4196   14.8746  -10.5641 H   0  0  0  0  0  0  0  0  0  0  0  0
   44.3294   16.7424  -10.1450 C   0  0  0  0  0  0  0  0  0  0  0  0
   43.7474   16.8512   -8.7831 C   0  0  0  0  0  0  0  0  0  0  0  0
   42.4360   16.4476   -8.6806 O   0  0  0  0  0  0  0  0  0  0  0  0
   41.7907   17.1711   -8.5066 H   0  0  0  0  0  0  0  0  0  0  0  0
   44.6354   16.0449   -7.8341 C   0  0  0  0  0  0  0  0  0  0  0  0
   44.9294   16.7405   -6.6349 N   0  0  0  0  0  0  0  0  0  0  0  0
   45.4051   18.0483   -6.7725 C   0  0  0  0  0  0  0  0  0  0  0  0
   45.1080   19.0061   -5.6743 C   0  0  0  0  0  0  0  0  0  0  0  0
   44.7274   18.4375   -4.4868 O   0  0  0  0  0  0  0  0  0  0  0  0
   43.6034   17.6314   -4.7830 C   0  0  0  0  0  0  0  0  0  0  0  0
   44.1685   16.4194   -5.4902 C   0  0  0  0  0  0  0  0  0  0  0  0
  1  2  1  0  0  0
  2  3  1  0  0  0
  3  4  1  0  0  0
  4  9  1  0  0  0
  9 10  2  0  0  0
 10 11  1  0  0  0
 11 12  2  0  0  0
 11 13  1  0  0  0
 13 14  1  0  0  0
 14 15  2  0  0  0
 15 16  1  0  0  0
 16 17  2  0  0  0
 17 18  1  0  0  0
 17 19  1  0  0  0
 19 20  2  0  0  0
  4  5  2  0  0  0
  5  6  1  0  0  0
  5  7  1  0  0  0
  7 22  1  0  0  0
 22 23  2  0  0  0
 22 24  1  0  0  0
 24 26  1  0  0  0
 26 27  1  0  0  0
 27 28  1  0  0  0
 27 30  1  0  0  0
 30 31  1  0  0  0
 31 32  1  0  0  0
 32 33  1  0  0  0
 33 34  1  0  0  0
 34 35  1  0  0  0
 35 36  1  0  0  0
  7  2  2  0  0  0
 36 31  1  0  0  0
 20 10  1  0  0  0
 20 14  1  0  0  0
  3  8  1  0  0  0
 13 21  1  0  0  0
 24 25  1  0  0  0
 28 29  1  0  0  0
M  END
> <minimizedAffinity>
-7.57539

> <CNNscore>
0.4181519151

> <CNNaffinity>
6.0463833809

> <CNN_VS>
2.5283067226

> <CNNaffinity_variance>
1.1098916531

$$$$
[H]O[C@]([H])(C([H])([H])N([H])C(=O)c1c(C([H])([H])[H])c(/C([H])=C2\C(=O)N([H])c3c([H])c([H])c(F)c([H])c32)n([H])c1C([H])([H])[H])C([H])([H])N1C([H])([H])C([H])([H])OC([H])([H])C1([H])[H]


 36 39  0  0  0  0  0  0  0  0999 V2000
   32.4213   15.3472  -12.0311 C   0  0  0  0  0  0  0  0  0  0  0  0
   33.8299   14.9492  -12.3340 C   0  0  0  0  0  0  0  0  0  0  0  0
   34.2961   14.3937  -13.4476 N   0  0  0  0  0  0  0  0  0  0  0  0
   35.5985   14.1770  -13.3491 C   0  0  0  0  0  0  0  0  0  0  0  0
   36.0092   14.6255  -12.0731 C   0  0  0  0  0  0  0  0  0  0  0  0
   37.4132   14.5791  -11.5804 C   0  0  0  0  0  0  0  0  0  0  0  0
   34.9191   15.1011  -11.4482 C   0  0  0  0  0  0  0  0  0  0  0  0
   33.6619   14.1595  -14.2743 H   0  0  0  0  0  0  0  0  0  0  0  0
   36.5533   13.6223  -14.2900 C   0  0  0  0  0  0  0  0  0  0  0  0
   36.2930   12.7067  -15.1978 C   0  0  0  0  0  0  0  0  0  0  0  0
   35.0210   12.0619  -15.4650 C   0  0  0  0  0  0  0  0  0  0  0  0
   33.9124   12.2805  -14.8800 O   0  0  0  0  0  0  0  0  0  0  0  0
   35.2574   11.1332  -16.5194 N   0  0  0  0  0  0  0  0  0  0  0  0
   36.6350   11.1673  -16.9311 C   0  0  0  0  0  0  0  0  0  0  0  0
   37.3457   10.4761  -17.8909 C   0  0  0  0  0  0  0  0  0  0  0  0
   38.6823   10.7110  -18.0784 C   0  0  0  0  0  0  0  0  0  0  0  0
   39.3281   11.6505  -17.2984 C   0  0  0  0  0  0  0  0  0  0  0  0
   40.6610   11.8791  -17.4913 F   0  0  0  0  0  0  0  0  0  0  0  0
   38.6044   12.3323  -16.3446 C   0  0  0  0  0  0  0  0  0  0  0  0
   37.2615   12.1086  -16.1432 C   0  0  0  0  0  0  0  0  0  0  0  0
   34.5414   10.5231  -16.9290 H   0  0  0  0  0  0  0  0  0  0  0  0
   34.8003   15.7182  -10.1244 C   0  0  0  0  0  0  0  0  0  0  0  0
   35.5307   16.7551   -9.9365 O   0  0  0  0  0  0  0  0  0  0  0  0
   33.9850   15.2940   -9.0839 N   0  0  0  0  0  0  0  0  0  0  0  0
   33.3675   14.4280   -9.2851 H   0  0  0  0  0  0  0  0  0  0  0  0
   33.8112   15.8475   -7.7751 C   0  0  0  0  0  0  0  0  0  0  0  0
   32.5749   16.6498   -7.5933 C   0  0  0  0  0  0  0  0  0  0  0  0
   31.8014   16.7845   -8.7233 O   0  0  0  0  0  0  0  0  0  0  0  0
   31.7757   17.6926   -9.1038 H   0  0  0  0  0  0  0  0  0  0  0  0
   31.7693   16.0096   -6.4618 C   0  0  0  0  0  0  0  0  0  0  0  0
   31.7608   16.7953   -5.2824 N   0  0  0  0  0  0  0  0  0  0  0  0
   32.6380   16.4045   -4.2658 C   0  0  0  0  0  0  0  0  0  0  0  0
   33.1564   17.4647   -3.3610 C   0  0  0  0  0  0  0  0  0  0  0  0
   32.4536   18.6412   -3.3725 O   0  0  0  0  0  0  0  0  0  0  0  0
   32.4423   19.0755   -4.7187 C   0  0  0  0  0  0  0  0  0  0  0  0
   31.4524   18.1665   -5.4132 C   0  0  0  0  0  0  0  0  0  0  0  0
  1  2  1  0  0  0
  2  3  1  0  0  0
  3  4  1  0  0  0
  4  9  1  0  0  0
  9 10  2  0  0  0
 10 11  1  0  0  0
 11 12  2  0  0  0
 11 13  1  0  0  0
 13 14  1  0  0  0
 14 15  2  0  0  0
 15 16  1  0  0  0
 16 17  2  0  0  0
 17 18  1  0  0  0
 17 19  1  0  0  0
 19 20  2  0  0  0
  4  5  2  0  0  0
  5  6  1  0  0  0
  5  7  1  0  0  0
  7 22  1  0  0  0
 22 23  2  0  0  0
 22 24  1  0  0  0
 24 26  1  0  0  0
 26 27  1  0  0  0
 27 28  1  0  0  0
 27 30  1  0  0  0
 30 31  1  0  0  0
 31 32  1  0  0  0
 32 33  1  0  0  0
 33 34  1  0  0  0
 34 35  1  0  0  0
 35 36  1  0  0  0
  7  2  2  0  0  0
 36 31  1  0  0  0
 20 10  1  0  0  0
 20 14  1  0  0  0
  3  8  1  0  0  0
 13 21  1  0  0  0
 24 25  1  0  0  0
 28 29  1  0  0  0
M  END
> <minimizedAffinity>
-9.12219

> <CNNscore>
0.3620726466

> <CNNaffinity>
6.0694112778

> <CNN_VS>
2.1975677013

> <CNNaffinity_variance>
0.2101828158

$$$$
[H]O[C@]([H])(C([H])([H])N([H])C(=O)c1c(C([H])([H])[H])c(/C([H])=C2\C(=O)N([H])c3c([H])c([H])c(F)c([H])c32)n([H])c1C([H])([H])[H])C([H])([H])N1C([H])([H])C([H])([H])OC([H])([H])C1([H])[H]


 36 39  0  0  0  0  0  0  0  0999 V2000
   35.8127   14.5578  -10.2401 C   0  0  0  0  0  0  0  0  0  0  0  0
   35.6801   14.1300  -11.6663 C   0  0  0  0  0  0  0  0  0  0  0  0
   36.5890   13.5202  -12.4199 N   0  0  0  0  0  0  0  0  0  0  0  0
   36.1146   13.3041  -13.6369 C   0  0  0  0  0  0  0  0  0  0  0  0
   34.7968   13.8135  -13.6767 C   0  0  0  0  0  0  0  0  0  0  0  0
   33.9068   13.7434  -14.8680 C   0  0  0  0  0  0  0  0  0  0  0  0
   34.5297   14.3224  -12.4623 C   0  0  0  0  0  0  0  0  0  0  0  0
   37.5605   13.2742  -12.0510 H   0  0  0  0  0  0  0  0  0  0  0  0
   36.7029   12.6602  -14.7963 C   0  0  0  0  0  0  0  0  0  0  0  0
   37.9502   12.7871  -15.1943 C   0  0  0  0  0  0  0  0  0  0  0  0
   39.0004   13.5750  -14.5768 C   0  0  0  0  0  0  0  0  0  0  0  0
   38.9120   14.2757  -13.5183 O   0  0  0  0  0  0  0  0  0  0  0  0
   40.1577   13.4063  -15.3905 N   0  0  0  0  0  0  0  0  0  0  0  0
   39.8784   12.5377  -16.5024 C   0  0  0  0  0  0  0  0  0  0  0  0
   40.6494   12.0739  -17.5485 C   0  0  0  0  0  0  0  0  0  0  0  0
   40.1184   11.2351  -18.4927 C   0  0  0  0  0  0  0  0  0  0  0  0
   38.7959   10.8479  -18.3981 C   0  0  0  0  0  0  0  0  0  0  0  0
   38.2737   10.0114  -19.3434 F   0  0  0  0  0  0  0  0  0  0  0  0
   38.0395   11.3196  -17.3475 C   0  0  0  0  0  0  0  0  0  0  0  0
   38.5570   12.1626  -16.3907 C   0  0  0  0  0  0  0  0  0  0  0  0
   41.0669   13.8452  -15.2076 H   0  0  0  0  0  0  0  0  0  0  0  0
   33.2961   14.9335  -11.9602 C   0  0  0  0  0  0  0  0  0  0  0  0
   33.3984   16.1616  -11.6064 O   0  0  0  0  0  0  0  0  0  0  0  0
   32.0571   14.3186  -11.8410 N   0  0  0  0  0  0  0  0  0  0  0  0
   32.0032   13.2882  -12.1681 H   0  0  0  0  0  0  0  0  0  0  0  0
   30.8142   14.8509  -11.3705 C   0  0  0  0  0  0  0  0  0  0  0  0
   30.5971   14.7344   -9.9060 C   0  0  0  0  0  0  0  0  0  0  0  0
   31.0083   13.5434   -9.3533 O   0  0  0  0  0  0  0  0  0  0  0  0
   30.2815   12.9595   -9.0355 H   0  0  0  0  0  0  0  0  0  0  0  0
   31.3070   15.9126   -9.2373 C   0  0  0  0  0  0  0  0  0  0  0  0
   30.5460   16.4877   -8.1892 N   0  0  0  0  0  0  0  0  0  0  0  0
   29.2804   15.9379   -7.9624 C   0  0  0  0  0  0  0  0  0  0  0  0
   28.7435   15.9988   -6.5769 C   0  0  0  0  0  0  0  0  0  0  0  0
   29.3611   16.8981   -5.7474 O   0  0  0  0  0  0  0  0  0  0  0  0
   30.7332   16.5539   -5.7516 C   0  0  0  0  0  0  0  0  0  0  0  0
   31.2499   17.0285   -7.0918 C   0  0  0  0  0  0  0  0  0  0  0  0
  1  2  1  0  0  0
  2  3  1  0  0  0
  3  4  1  0  0  0
  4  9  1  0  0  0
  9 10  2  0  0  0
 10 11  1  0  0  0
 11 12  2  0  0  0
 11 13  1  0  0  0
 13 14  1  0  0  0
 14 15  2  0  0  0
 15 16  1  0  0  0
 16 17  2  0  0  0
 17 18  1  0  0  0
 17 19  1  0  0  0
 19 20  2  0  0  0
  4  5  2  0  0  0
  5  6  1  0  0  0
  5  7  1  0  0  0
  7 22  1  0  0  0
 22 23  2  0  0  0
 22 24  1  0  0  0
 24 26  1  0  0  0
 26 27  1  0  0  0
 27 28  1  0  0  0
 27 30  1  0  0  0
 30 31  1  0  0  0
 31 32  1  0  0  0
 32 33  1  0  0  0
 33 34  1  0  0  0
 34 35  1  0  0  0
 35 36  1  0  0  0
  7  2  2  0  0  0
 36 31  1  0  0  0
 20 10  1  0  0  0
 20 14  1  0  0  0
  3  8  1  0  0  0
 13 21  1  0  0  0
 24 25  1  0  0  0
 28 29  1  0  0  0
M  END
> <minimizedAffinity>
-8.96452

> <CNNscore>
0.3087418973

> <CNNaffinity>
6.3145551682

> <CNN_VS>
1.9495677948

> <CNNaffinity_variance>
0.3163895011

$$$$
[H]O[C@]([H])(C([H])([H])N([H])C(=O)c1c(C([H])([H])[H])c(/C([H])=C2\C(=O)N([H])c3c([H])c([H])c(F)c([H])c32)n([H])c1C([H])([H])[H])C([H])([H])N1C([H])([H])C([H])([H])OC([H])([H])C1([H])[H]


 36 39  0  0  0  0  0  0  0  0999 V2000
   39.1487   16.3672  -10.1343 C   0  0  0  0  0  0  0  0  0  0  0  0
   38.4137   15.4773  -11.0841 C   0  0  0  0  0  0  0  0  0  0  0  0
   38.9000   14.8435  -12.1460 N   0  0  0  0  0  0  0  0  0  0  0  0
   37.9474   14.1512  -12.7510 C   0  0  0  0  0  0  0  0  0  0  0  0
   36.7503   14.3516  -12.0267 C   0  0  0  0  0  0  0  0  0  0  0  0
   35.4464   13.7216  -12.3718 C   0  0  0  0  0  0  0  0  0  0  0  0
   37.0382   15.1689  -10.9998 C   0  0  0  0  0  0  0  0  0  0  0  0
   39.9239   14.9271  -12.4381 H   0  0  0  0  0  0  0  0  0  0  0  0
   37.9801   13.2900  -13.9181 C   0  0  0  0  0  0  0  0  0  0  0  0
   38.8966   13.3103  -14.8614 C   0  0  0  0  0  0  0  0  0  0  0  0
   40.0606   14.1724  -14.9462 C   0  0  0  0  0  0  0  0  0  0  0  0
   40.4215   15.0584  -14.1072 O   0  0  0  0  0  0  0  0  0  0  0  0
   40.7259   13.8277  -16.1579 N   0  0  0  0  0  0  0  0  0  0  0  0
   40.0250   12.7760  -16.8445 C   0  0  0  0  0  0  0  0  0  0  0  0
   40.2602   12.1081  -18.0288 C   0  0  0  0  0  0  0  0  0  0  0  0
   39.4107   11.1229  -18.4587 C   0  0  0  0  0  0  0  0  0  0  0  0
   38.3053   10.7927  -17.6991 C   0  0  0  0  0  0  0  0  0  0  0  0
   37.4629    9.8093  -18.1344 F   0  0  0  0  0  0  0  0  0  0  0  0
   38.0846   11.4688  -16.5190 C   0  0  0  0  0  0  0  0  0  0  0  0
   38.9276   12.4608  -16.0727 C   0  0  0  0  0  0  0  0  0  0  0  0
   41.5882   14.2701  -16.4947 H   0  0  0  0  0  0  0  0  0  0  0  0
   36.1676   15.6577   -9.9273 C   0  0  0  0  0  0  0  0  0  0  0  0
   36.0818   16.9334   -9.8308 O   0  0  0  0  0  0  0  0  0  0  0  0
   35.4424   14.8829   -9.0324 N   0  0  0  0  0  0  0  0  0  0  0  0
   35.5229   13.8106   -9.1564 H   0  0  0  0  0  0  0  0  0  0  0  0
   34.5703   15.2872   -7.9714 C   0  0  0  0  0  0  0  0  0  0  0  0
   33.2555   15.8204   -8.4099 C   0  0  0  0  0  0  0  0  0  0  0  0
   32.8257   15.3641   -9.6347 O   0  0  0  0  0  0  0  0  0  0  0  0
   32.8132   16.0415  -10.3498 H   0  0  0  0  0  0  0  0  0  0  0  0
   32.2339   15.4867   -7.3216 C   0  0  0  0  0  0  0  0  0  0  0  0
   31.6560   16.6423   -6.7395 N   0  0  0  0  0  0  0  0  0  0  0  0
   32.5432   17.6284   -6.2966 C   0  0  0  0  0  0  0  0  0  0  0  0
   32.0665   19.0369   -6.3096 C   0  0  0  0  0  0  0  0  0  0  0  0
   30.7082   19.1959   -6.3989 O   0  0  0  0  0  0  0  0  0  0  0  0
   30.3114   18.5088   -7.5700 C   0  0  0  0  0  0  0  0  0  0  0  0
   30.3851   17.0424   -7.2054 C   0  0  0  0  0  0  0  0  0  0  0  0
  1  2  1  0  0  0
  2  3  1  0  0  0
  3  4  1  0  0  0
  4  9  1  0  0  0
  9 10  2  0  0  0
 10 11  1  0  0  0
 11 12  2  0  0  0
 11 13  1  0  0  0
 13 14  1  0  0  0
 14 15  2  0  0  0
 15 16  1  0  0  0
 16 17  2  0  0  0
 17 18  1  0  0  0
 17 19  1  0  0  0
 19 20  2  0  0  0
  4  5  2  0  0  0
  5  6  1  0  0  0
  5  7  1  0  0  0
  7 22  1  0  0  0
 22 23  2  0  0  0
 22 24  1  0  0  0
 24 26  1  0  0  0
 26 27  1  0  0  0
 27 28  1  0  0  0
 27 30  1  0  0  0
 30 31  1  0  0  0
 31 32  1  0  0  0
 32 33  1  0  0  0
 33 34  1  0  0  0
 34 35  1  0  0  0
 35 36  1  0  0  0
  7  2  2  0  0  0
 36 31  1  0  0  0
 20 10  1  0  0  0
 20 14  1  0  0  0
  3  8  1  0  0  0
 13 21  1  0  0  0
 24 25  1  0  0  0
 28 29  1  0  0  0
M  END
> <minimizedAffinity>
-9.05897

> <CNNscore>
0.2910304070

> <CNNaffinity>
5.9420719147

> <CNN_VS>
1.7293236256

> <CNNaffinity_variance>
0.1749778092

$$$$
[H]O[C@]([H])(C([H])([H])N([H])C(=O)c1c(C([H])([H])[H])c(/C([H])=C2\C(=O)N([H])c3c([H])c([H])c(F)c([H])c32)n([H])c1C([H])([H])[H])C([H])([H])N1C([H])([H])C([H])([H])OC([H])([H])C1([H])[H]


 36 39  0  0  0  0  0  0  0  0999 V2000
   41.7382   16.4637  -11.8938 C   0  0  0  0  0  0  0  0  0  0  0  0
   40.4590   15.7762  -12.2479 C   0  0  0  0  0  0  0  0  0  0  0  0
   40.2217   14.9877  -13.2909 N   0  0  0  0  0  0  0  0  0  0  0  0
   38.9671   14.5651  -13.2783 C   0  0  0  0  0  0  0  0  0  0  0  0
   38.3416   15.1228  -12.1400 C   0  0  0  0  0  0  0  0  0  0  0  0
   36.9268   14.8691  -11.7524 C   0  0  0  0  0  0  0  0  0  0  0  0
   39.2614   15.8690  -11.5056 C   0  0  0  0  0  0  0  0  0  0  0  0
   40.9707   14.7691  -14.0201 H   0  0  0  0  0  0  0  0  0  0  0  0
   38.2427   13.6811  -14.1719 C   0  0  0  0  0  0  0  0  0  0  0  0
   38.7648   13.0046  -15.1719 C   0  0  0  0  0  0  0  0  0  0  0  0
   40.1521   12.9819  -15.5964 C   0  0  0  0  0  0  0  0  0  0  0  0
   41.1277   13.6002  -15.0627 O   0  0  0  0  0  0  0  0  0  0  0  0
   40.2085   12.1236  -16.7322 N   0  0  0  0  0  0  0  0  0  0  0  0
   38.9053   11.6001  -17.0425 C   0  0  0  0  0  0  0  0  0  0  0  0
   38.4456   10.7460  -18.0239 C   0  0  0  0  0  0  0  0  0  0  0  0
   37.1207   10.4036  -18.0911 C   0  0  0  0  0  0  0  0  0  0  0  0
   36.2331   10.9184  -17.1664 C   0  0  0  0  0  0  0  0  0  0  0  0
   34.9136   10.5724  -17.2400 F   0  0  0  0  0  0  0  0  0  0  0  0
   36.7079   11.7697  -16.1927 C   0  0  0  0  0  0  0  0  0  0  0  0
   38.0352   12.1239  -16.1109 C   0  0  0  0  0  0  0  0  0  0  0  0
   41.0634   11.9085  -17.2573 H   0  0  0  0  0  0  0  0  0  0  0  0
   39.1447   16.6265  -10.2567 C   0  0  0  0  0  0  0  0  0  0  0  0
   38.8042   17.8552  -10.3917 O   0  0  0  0  0  0  0  0  0  0  0  0
   39.3597   16.1436   -8.9730 N   0  0  0  0  0  0  0  0  0  0  0  0
   39.6257   15.0973   -8.8958 H   0  0  0  0  0  0  0  0  0  0  0  0
   39.2571   16.8175   -7.7140 C   0  0  0  0  0  0  0  0  0  0  0  0
   38.0283   16.5119   -6.9382 C   0  0  0  0  0  0  0  0  0  0  0  0
   38.1919   16.5116   -5.5721 O   0  0  0  0  0  0  0  0  0  0  0  0
   38.1193   15.6272   -5.1447 H   0  0  0  0  0  0  0  0  0  0  0  0
   36.9559   17.5206   -7.3525 C   0  0  0  0  0  0  0  0  0  0  0  0
   37.2345   18.8341   -6.8992 N   0  0  0  0  0  0  0  0  0  0  0  0
   37.4660   19.7986   -7.8849 C   0  0  0  0  0  0  0  0  0  0  0  0
   37.1107   21.2067   -7.5646 C   0  0  0  0  0  0  0  0  0  0  0  0
   36.9416   21.4807   -6.2325 O   0  0  0  0  0  0  0  0  0  0  0  0
   35.9492   20.5836   -5.7728 C   0  0  0  0  0  0  0  0  0  0  0  0
   36.6462   19.2439   -5.6833 C   0  0  0  0  0  0  0  0  0  0  0  0
  1  2  1  0  0  0
  2  3  1  0  0  0
  3  4  1  0  0  0
  4  9  1  0  0  0
  9 10  2  0  0  0
 10 11  1  0  0  0
 11 12  2  0  0  0
 11 13  1  0  0  0
 13 14  1  0  0  0
 14 15  2  0  0  0
 15 16  1  0  0  0
 16 17  2  0  0  0
 17 18  1  0  0  0
 17 19  1  0  0  0
 19 20  2  0  0  0
  4  5  2  0  0  0
  5  6  1  0  0  0
  5  7  1  0  0  0
  7 22  1  0  0  0
 22 23  2  0  0  0
 22 24  1  0  0  0
 24 26  1  0  0  0
 26 27  1  0  0  0
 27 28  1  0  0  0
 27 30  1  0  0  0
 30 31  1  0  0  0
 31 32  1  0  0  0
 32 33  1  0  0  0
 33 34  1  0  0  0
 34 35  1  0  0  0
 35 36  1  0  0  0
  7  2  2  0  0  0
 36 31  1  0  0  0
 20 10  1  0  0  0
 20 14  1  0  0  0
  3  8  1  0  0  0
 13 21  1  0  0  0
 24 25  1  0  0  0
 28 29  1  0  0  0
M  END
> <minimizedAffinity>
-8.44883

> <CNNscore>
0.2788831890

> <CNNaffinity>
6.1159939766

> <CNN_VS>
1.7056479454

> <CNNaffinity_variance>
0.4176424146

$$$$
[H]O[C@]([H])(C([H])([H])N([H])C(=O)c1c(C([H])([H])[H])c(/C([H])=C2\C(=O)N([H])c3c([H])c([H])c(F)c([H])c32)n([H])c1C([H])([H])[H])C([H])([H])N1C([H])([H])C([H])([H])OC([H])([H])C1([H])[H]


 36 39  0  0  0  0  0  0  0  0999 V2000
   39.0254   16.3071  -10.3875 C   0  0  0  0  0  0  0  0  0  0  0  0
   38.3848   15.3214  -11.3109 C   0  0  0  0  0  0  0  0  0  0  0  0
   38.8748   14.8330  -12.4454 N   0  0  0  0  0  0  0  0  0  0  0  0
   38.0184   13.9861  -12.9952 C   0  0  0  0  0  0  0  0  0  0  0  0
   36.8850   13.9203  -12.1533 C   0  0  0  0  0  0  0  0  0  0  0  0
   35.7002   13.0559  -12.4088 C   0  0  0  0  0  0  0  0  0  0  0  0
   37.1113   14.7434  -11.1158 C   0  0  0  0  0  0  0  0  0  0  0  0
   39.8278   15.1280  -12.8264 H   0  0  0  0  0  0  0  0  0  0  0  0
   38.0993   13.1883  -14.2043 C   0  0  0  0  0  0  0  0  0  0  0  0
   39.1431   13.1049  -15.0004 C   0  0  0  0  0  0  0  0  0  0  0  0
   40.4243   13.7696  -14.8524 C   0  0  0  0  0  0  0  0  0  0  0  0
   40.7823   14.5437  -13.9081 O   0  0  0  0  0  0  0  0  0  0  0  0
   41.2087   13.3802  -15.9763 N   0  0  0  0  0  0  0  0  0  0  0  0
   40.4699   12.4908  -16.8317 C   0  0  0  0  0  0  0  0  0  0  0  0
   40.7807   11.8514  -18.0144 C   0  0  0  0  0  0  0  0  0  0  0  0
   39.8673   11.0392  -18.6333 C   0  0  0  0  0  0  0  0  0  0  0  0
   38.6201   10.8568  -18.0683 C   0  0  0  0  0  0  0  0  0  0  0  0
   37.7148   10.0454  -18.6914 F   0  0  0  0  0  0  0  0  0  0  0  0
   38.3254   11.5020  -16.8871 C   0  0  0  0  0  0  0  0  0  0  0  0
   39.2310   12.3212  -16.2525 C   0  0  0  0  0  0  0  0  0  0  0  0
   42.1703   13.6925  -16.1512 H   0  0  0  0  0  0  0  0  0  0  0  0
   36.2756   15.0133   -9.9426 C   0  0  0  0  0  0  0  0  0  0  0  0
   35.3664   15.9014  -10.1111 O   0  0  0  0  0  0  0  0  0  0  0  0
   36.3749   14.4053   -8.6985 N   0  0  0  0  0  0  0  0  0  0  0  0
   37.1402   13.6463   -8.5988 H   0  0  0  0  0  0  0  0  0  0  0  0
   35.5937   14.6100   -7.5164 C   0  0  0  0  0  0  0  0  0  0  0  0
   36.0414   13.8395   -6.3284 C   0  0  0  0  0  0  0  0  0  0  0  0
   36.8936   12.7951   -6.6040 O   0  0  0  0  0  0  0  0  0  0  0  0
   36.5125   11.8983   -6.4603 H   0  0  0  0  0  0  0  0  0  0  0  0
   36.6923   14.8242   -5.3558 C   0  0  0  0  0  0  0  0  0  0  0  0
   35.7684   15.3749   -4.4331 N   0  0  0  0  0  0  0  0  0  0  0  0
   35.6389   16.7673   -4.4352 C   0  0  0  0  0  0  0  0  0  0  0  0
   34.3235   17.3352   -4.0368 C   0  0  0  0  0  0  0  0  0  0  0  0
   33.4945   16.4777   -3.3616 O   0  0  0  0  0  0  0  0  0  0  0  0
   33.3339   15.3497   -4.1999 C   0  0  0  0  0  0  0  0  0  0  0  0
   34.6413   14.5960   -4.0937 C   0  0  0  0  0  0  0  0  0  0  0  0
  1  2  1  0  0  0
  2  3  1  0  0  0
  3  4  1  0  0  0
  4  9  1  0  0  0
  9 10  2  0  0  0
 10 11  1  0  0  0
 11 12  2  0  0  0
 11 13  1  0  0  0
 13 14  1  0  0  0
 14 15  2  0  0  0
 15 16  1  0  0  0
 16 17  2  0  0  0
 17 18  1  0  0  0
 17 19  1  0  0  0
 19 20  2  0  0  0
  4  5  2  0  0  0
  5  6  1  0  0  0
  5  7  1  0  0  0
  7 22  1  0  0  0
 22 23  2  0  0  0
 22 24  1  0  0  0
 24 26  1  0  0  0
 26 27  1  0  0  0
 27 28  1  0  0  0
 27 30  1  0  0  0
 30 31  1  0  0  0
 31 32  1  0  0  0
 32 33  1  0  0  0
 33 34  1  0  0  0
 34 35  1  0  0  0
 35 36  1  0  0  0
  7  2  2  0  0  0
 36 31  1  0  0  0
 20 10  1  0  0  0
 20 14  1  0  0  0
  3  8  1  0  0  0
 13 21  1  0  0  0
 24 25  1  0  0  0
 28 29  1  0  0  0
M  END
> <minimizedAffinity>
-9.21202

> <CNNscore>
0.2451955527

> <CNNaffinity>
5.8983888626

> <CNN_VS>
1.4462586641

> <CNNaffinity_variance>
0.2954288423

$$$$
[H]c1nc(OC([H])([H])c2c(-c3c([H])c([H])c([H])c([H])c3[H])noc2C([H])([H])[H])c([H])c([H])c1C(=O)N([H])C1([H])C([H])([H])C([H])([H])OC([H])([H])C1([H])[H]


 30 33  0  0  0  0  0  0  0  0999 V2000
   40.3266   12.7078  -16.1461 C   0  0  0  0  0  0  0  0  0  0  0  0
   41.1195   12.1387  -17.1453 C   0  0  0  0  0  0  0  0  0  0  0  0
   42.4907   12.1260  -17.1178 C   0  0  0  0  0  0  0  0  0  0  0  0
   43.1365   12.7176  -16.0289 C   0  0  0  0  0  0  0  0  0  0  0  0
   42.3485   13.2844  -15.0397 C   0  0  0  0  0  0  0  0  0  0  0  0
   40.9852   13.2718  -15.1110 N   0  0  0  0  0  0  0  0  0  0  0  0
   44.5984   12.7025  -15.9418 C   0  0  0  0  0  0  0  0  0  0  0  0
   45.3214   12.2656  -16.8644 O   0  0  0  0  0  0  0  0  0  0  0  0
   45.1954   13.2015  -14.7656 N   0  0  0  0  0  0  0  0  0  0  0  0
   44.6074   13.5798  -13.9941 H   0  0  0  0  0  0  0  0  0  0  0  0
   46.6600   13.2291  -14.5532 C   0  0  0  0  0  0  0  0  0  0  0  0
   47.1254   14.6703  -14.5873 C   0  0  0  0  0  0  0  0  0  0  0  0
   47.1486   15.2036  -13.1685 C   0  0  0  0  0  0  0  0  0  0  0  0
   48.1242   14.4360  -12.4990 O   0  0  0  0  0  0  0  0  0  0  0  0
   47.5165   13.2495  -12.1756 C   0  0  0  0  0  0  0  0  0  0  0  0
   47.0550   12.4481  -13.3635 C   0  0  0  0  0  0  0  0  0  0  0  0
   38.9698   12.6536  -16.2928 O   0  0  0  0  0  0  0  0  0  0  0  0
   38.1024   11.9506  -15.3941 C   0  0  0  0  0  0  0  0  0  0  0  0
   37.4921   10.3088  -18.0339 C   0  0  0  0  0  0  0  0  0  0  0  0
   36.5427   10.9937  -17.1448 C   0  0  0  0  0  0  0  0  0  0  0  0
   35.2273   10.9754  -17.3456 O   0  0  0  0  0  0  0  0  0  0  0  0
   34.6503   11.6599  -16.4017 N   0  0  0  0  0  0  0  0  0  0  0  0
   35.5566   12.1568  -15.5334 C   0  0  0  0  0  0  0  0  0  0  0  0
   36.7934   11.7253  -16.0194 C   0  0  0  0  0  0  0  0  0  0  0  0
   35.3327   12.9208  -14.3237 C   0  0  0  0  0  0  0  0  0  0  0  0
   34.2372   13.7128  -14.1562 C   0  0  0  0  0  0  0  0  0  0  0  0
   34.0081   14.4081  -12.9604 C   0  0  0  0  0  0  0  0  0  0  0  0
   34.9238   14.2764  -11.9312 C   0  0  0  0  0  0  0  0  0  0  0  0
   36.0595   13.4722  -12.0697 C   0  0  0  0  0  0  0  0  0  0  0  0
   36.2369   12.8151  -13.2636 C   0  0  0  0  0  0  0  0  0  0  0  0
 19 20  1  0  0  0
 20 21  1  0  0  0
 21 22  1  0  0  0
 22 23  2  0  0  0
 23 24  1  0  0  0
 24 18  1  0  0  0
 18 17  1  0  0  0
 17  1  1  0  0  0
  1  2  2  0  0  0
  2  3  1  0  0  0
  3  4  2  0  0  0
  4  5  1  0  0  0
  5  6  2  0  0  0
  4  7  1  0  0  0
  7  8  2  0  0  0
  7  9  1  0  0  0
  9 11  1  0  0  0
 11 12  1  0  0  0
 12 13  1  0  0  0
 13 14  1  0  0  0
 14 15  1  0  0  0
 15 16  1  0  0  0
 23 25  1  0  0  0
 25 26  2  0  0  0
 26 27  1  0  0  0
 27 28  2  0  0  0
 28 29  1  0  0  0
 29 30  2  0  0  0
 24 20  2  0  0  0
  6  1  1  0  0  0
 16 11  1  0  0  0
 30 25  1  0  0  0
  9 10  1  0  0  0
M  END
> <minimizedAffinity>
-7.97375

> <CNNscore>
0.4775503874

> <CNNaffinity>
6.3875279427

> <CNN_VS>
3.0503664017

> <CNNaffinity_variance>
0.1173225492

$$$$
[H]c1nc(OC([H])([H])c2c(-c3c([H])c([H])c([H])c([H])c3[H])noc2C([H])([H])[H])c([H])c([H])c1C(=O)N([H])C1([H])C([H])([H])C([H])([H])OC([H])([H])C1([H])[H]


 30 33  0  0  0  0  0  0  0  0999 V2000
   40.7533   12.9632  -15.6204 C   0  0  0  0  0  0  0  0  0  0  0  0
   41.9513   12.6509  -16.2673 C   0  0  0  0  0  0  0  0  0  0  0  0
   43.1910   12.9692  -15.7745 C   0  0  0  0  0  0  0  0  0  0  0  0
   43.2645   13.6473  -14.5548 C   0  0  0  0  0  0  0  0  0  0  0  0
   42.0749   13.9590  -13.9156 C   0  0  0  0  0  0  0  0  0  0  0  0
   40.8634   13.6201  -14.4459 N   0  0  0  0  0  0  0  0  0  0  0  0
   44.5670   13.9824  -13.9751 C   0  0  0  0  0  0  0  0  0  0  0  0
   45.5437   13.2022  -14.0226 O   0  0  0  0  0  0  0  0  0  0  0  0
   44.7060   15.2350  -13.3422 N   0  0  0  0  0  0  0  0  0  0  0  0
   43.9058   15.9001  -13.3054 H   0  0  0  0  0  0  0  0  0  0  0  0
   45.9665   15.6838  -12.7093 C   0  0  0  0  0  0  0  0  0  0  0  0
   46.6844   16.6110  -13.6683 C   0  0  0  0  0  0  0  0  0  0  0  0
   46.2911   18.0388  -13.3446 C   0  0  0  0  0  0  0  0  0  0  0  0
   46.7841   18.2741  -12.0442 O   0  0  0  0  0  0  0  0  0  0  0  0
   45.8807   17.6991  -11.1868 C   0  0  0  0  0  0  0  0  0  0  0  0
   45.7382   16.2092  -11.3480 C   0  0  0  0  0  0  0  0  0  0  0  0
   39.5834   12.5891  -16.2177 O   0  0  0  0  0  0  0  0  0  0  0  0
   38.7498   11.5284  -15.7340 C   0  0  0  0  0  0  0  0  0  0  0  0
   37.6930   10.2692  -18.4421 C   0  0  0  0  0  0  0  0  0  0  0  0
   36.9519   11.0711  -17.4579 C   0  0  0  0  0  0  0  0  0  0  0  0
   35.6578   11.3529  -17.5872 O   0  0  0  0  0  0  0  0  0  0  0  0
   35.2817   12.0696  -16.5687 N   0  0  0  0  0  0  0  0  0  0  0  0
   36.3077   12.2895  -15.7194 C   0  0  0  0  0  0  0  0  0  0  0  0
   37.4001   11.6407  -16.3006 C   0  0  0  0  0  0  0  0  0  0  0  0
   36.3036   12.9865  -14.4500 C   0  0  0  0  0  0  0  0  0  0  0  0
   35.7110   12.4688  -13.3381 C   0  0  0  0  0  0  0  0  0  0  0  0
   35.7576   13.1317  -12.1035 C   0  0  0  0  0  0  0  0  0  0  0  0
   36.4273   14.3402  -12.0250 C   0  0  0  0  0  0  0  0  0  0  0  0
   37.0460   14.9006  -13.1470 C   0  0  0  0  0  0  0  0  0  0  0  0
   36.9676   14.2103  -14.3327 C   0  0  0  0  0  0  0  0  0  0  0  0
 19 20  1  0  0  0
 20 21  1  0  0  0
 21 22  1  0  0  0
 22 23  2  0  0  0
 23 24  1  0  0  0
 24 18  1  0  0  0
 18 17  1  0  0  0
 17  1  1  0  0  0
  1  2  2  0  0  0
  2  3  1  0  0  0
  3  4  2  0  0  0
  4  5  1  0  0  0
  5  6  2  0  0  0
  4  7  1  0  0  0
  7  8  2  0  0  0
  7  9  1  0  0  0
  9 11  1  0  0  0
 11 12  1  0  0  0
 12 13  1  0  0  0
 13 14  1  0  0  0
 14 15  1  0  0  0
 15 16  1  0  0  0
 23 25  1  0  0  0
 25 26  2  0  0  0
 26 27  1  0  0  0
 27 28  2  0  0  0
 28 29  1  0  0  0
 29 30  2  0  0  0
 24 20  2  0  0  0
  6  1  1  0  0  0
 16 11  1  0  0  0
 30 25  1  0  0  0
  9 10  1  0  0  0
M  END
> <minimizedAffinity>
-7.60416

> <CNNscore>
0.3701350391

> <CNNaffinity>
6.2204461098

> <CNN_VS>
2.3024051189

> <CNNaffinity_variance>
0.1964816004

$$$$
[H]c1nc(OC([H])([H])c2c(-c3c([H])c([H])c([H])c([H])c3[H])noc2C([H])([H])[H])c([H])c([H])c1C(=O)N([H])C1([H])C([H])([H])C([H])([H])OC([H])([H])C1([H])[H]


 30 33  0  0  0  0  0  0  0  0999 V2000
   39.1930   15.2562  -13.0719 C   0  0  0  0  0  0  0  0  0  0  0  0
   38.0326   15.1413  -12.3030 C   0  0  0  0  0  0  0  0  0  0  0  0
   37.8796   15.7048  -11.0620 C   0  0  0  0  0  0  0  0  0  0  0  0
   38.9454   16.4362  -10.5311 C   0  0  0  0  0  0  0  0  0  0  0  0
   40.0972   16.5470  -11.2939 C   0  0  0  0  0  0  0  0  0  0  0  0
   40.2021   15.9681  -12.5259 N   0  0  0  0  0  0  0  0  0  0  0  0
   38.8177   17.0806   -9.2221 C   0  0  0  0  0  0  0  0  0  0  0  0
   39.3569   16.6198   -8.1916 O   0  0  0  0  0  0  0  0  0  0  0  0
   38.0531   18.2627   -9.1393 N   0  0  0  0  0  0  0  0  0  0  0  0
   37.6085   18.6650   -9.9904 H   0  0  0  0  0  0  0  0  0  0  0  0
   37.8405   18.9991   -7.8731 C   0  0  0  0  0  0  0  0  0  0  0  0
   38.0056   20.4806   -8.1430 C   0  0  0  0  0  0  0  0  0  0  0  0
   36.6416   21.0719   -8.4395 C   0  0  0  0  0  0  0  0  0  0  0  0
   35.9021   20.9156   -7.2487 O   0  0  0  0  0  0  0  0  0  0  0  0
   35.4727   19.6128   -7.2377 C   0  0  0  0  0  0  0  0  0  0  0  0
   36.5832   18.5968   -7.2108 C   0  0  0  0  0  0  0  0  0  0  0  0
   39.2176   14.6471  -14.2941 O   0  0  0  0  0  0  0  0  0  0  0  0
   39.9638   13.4552  -14.5713 C   0  0  0  0  0  0  0  0  0  0  0  0
   41.4108   12.3380  -17.1585 C   0  0  0  0  0  0  0  0  0  0  0  0
   39.9948   12.2202  -16.7819 C   0  0  0  0  0  0  0  0  0  0  0  0
   39.1061   11.5605  -17.5208 O   0  0  0  0  0  0  0  0  0  0  0  0
   37.9456   11.6251  -16.9365 N   0  0  0  0  0  0  0  0  0  0  0  0
   38.0159   12.3254  -15.7846 C   0  0  0  0  0  0  0  0  0  0  0  0
   39.3531   12.7176  -15.6840 C   0  0  0  0  0  0  0  0  0  0  0  0
   36.9736   12.5840  -14.8130 C   0  0  0  0  0  0  0  0  0  0  0  0
   36.9272   11.9475  -13.6096 C   0  0  0  0  0  0  0  0  0  0  0  0
   35.9408   12.2438  -12.6582 C   0  0  0  0  0  0  0  0  0  0  0  0
   34.9978   13.2104  -12.9604 C   0  0  0  0  0  0  0  0  0  0  0  0
   35.0156   13.8826  -14.1866 C   0  0  0  0  0  0  0  0  0  0  0  0
   36.0027   13.5516  -15.0837 C   0  0  0  0  0  0  0  0  0  0  0  0
 19 20  1  0  0  0
 20 21  1  0  0  0
 21 22  1  0  0  0
 22 23  2  0  0  0
 23 24  1  0  0  0
 24 18  1  0  0  0
 18 17  1  0  0  0
 17  1  1  0  0  0
  1  2  2  0  0  0
  2  3  1  0  0  0
  3  4  2  0  0  0
  4  5  1  0  0  0
  5  6  2  0  0  0
  4  7  1  0  0  0
  7  8  2  0  0  0
  7  9  1  0  0  0
  9 11  1  0  0  0
 11 12  1  0  0  0
 12 13  1  0  0  0
 13 14  1  0  0  0
 14 15  1  0  0  0
 15 16  1  0  0  0
 23 25  1  0  0  0
 25 26  2  0  0  0
 26 27  1  0  0  0
 27 28  2  0  0  0
 28 29  1  0  0  0
 29 30  2  0  0  0
 24 20  2  0  0  0
  6  1  1  0  0  0
 16 11  1  0  0  0
 30 25  1  0  0  0
  9 10  1  0  0  0
M  END
> <minimizedAffinity>
-8.05230

> <CNNscore>
0.3682113290

> <CNNaffinity>
5.9704089165

> <CNN_VS>
2.1983721256

> <CNNaffinity_variance>
0.2350718528

$$$$
[H]c1nc(OC([H])([H])c2c(-c3c([H])c([H])c([H])c([H])c3[H])noc2C([H])([H])[H])c([H])c([H])c1C(=O)N([H])C1([H])C([H])([H])C([H])([H])OC([H])([H])C1([H])[H]


 30 33  0  0  0  0  0  0  0  0999 V2000
   41.0673   13.3303  -15.3268 C   0  0  0  0  0  0  0  0  0  0  0  0
   42.2821   13.0368  -15.9508 C   0  0  0  0  0  0  0  0  0  0  0  0
   43.5073   13.2238  -15.3635 C   0  0  0  0  0  0  0  0  0  0  0  0
   43.5474   13.7398  -14.0654 C   0  0  0  0  0  0  0  0  0  0  0  0
   42.3415   14.0332  -13.4487 C   0  0  0  0  0  0  0  0  0  0  0  0
   41.1454   13.8289  -14.0744 N   0  0  0  0  0  0  0  0  0  0  0  0
   44.8314   13.9292  -13.3868 C   0  0  0  0  0  0  0  0  0  0  0  0
   45.0780   13.4318  -12.2657 O   0  0  0  0  0  0  0  0  0  0  0  0
   45.8136   14.7057  -14.0359 N   0  0  0  0  0  0  0  0  0  0  0  0
   45.6276   15.1159  -14.9745 H   0  0  0  0  0  0  0  0  0  0  0  0
   47.1444   14.9787  -13.4485 C   0  0  0  0  0  0  0  0  0  0  0  0
   48.1815   14.9107  -14.5506 C   0  0  0  0  0  0  0  0  0  0  0  0
   48.3984   16.3085  -15.0960 C   0  0  0  0  0  0  0  0  0  0  0  0
   48.9374   17.0467  -14.0219 O   0  0  0  0  0  0  0  0  0  0  0  0
   47.8740   17.3880  -13.2254 C   0  0  0  0  0  0  0  0  0  0  0  0
   47.1412   16.2124  -12.6364 C   0  0  0  0  0  0  0  0  0  0  0  0
   39.9147   13.0973  -16.0215 O   0  0  0  0  0  0  0  0  0  0  0  0
   39.0483   11.9838  -15.7695 C   0  0  0  0  0  0  0  0  0  0  0  0
   40.6161   11.0296  -18.3517 C   0  0  0  0  0  0  0  0  0  0  0  0
   39.1642   11.0570  -18.1234 C   0  0  0  0  0  0  0  0  0  0  0  0
   38.2856   10.6270  -19.0257 O   0  0  0  0  0  0  0  0  0  0  0  0
   37.0860   10.7716  -18.5438 N   0  0  0  0  0  0  0  0  0  0  0  0
   37.1178   11.2984  -17.3013 C   0  0  0  0  0  0  0  0  0  0  0  0
   38.4745   11.4886  -17.0267 C   0  0  0  0  0  0  0  0  0  0  0  0
   36.0172   11.5665  -16.3992 C   0  0  0  0  0  0  0  0  0  0  0  0
   36.0877   12.5203  -15.4293 C   0  0  0  0  0  0  0  0  0  0  0  0
   34.9968   12.8033  -14.5951 C   0  0  0  0  0  0  0  0  0  0  0  0
   33.8241   12.0905  -14.7730 C   0  0  0  0  0  0  0  0  0  0  0  0
   33.7175   11.1040  -15.7585 C   0  0  0  0  0  0  0  0  0  0  0  0
   34.8177   10.8651  -16.5467 C   0  0  0  0  0  0  0  0  0  0  0  0
 19 20  1  0  0  0
 20 21  1  0  0  0
 21 22  1  0  0  0
 22 23  2  0  0  0
 23 24  1  0  0  0
 24 18  1  0  0  0
 18 17  1  0  0  0
 17  1  1  0  0  0
  1  2  2  0  0  0
  2  3  1  0  0  0
  3  4  2  0  0  0
  4  5  1  0  0  0
  5  6  2  0  0  0
  4  7  1  0  0  0
  7  8  2  0  0  0
  7  9  1  0  0  0
  9 11  1  0  0  0
 11 12  1  0  0  0
 12 13  1  0  0  0
 13 14  1  0  0  0
 14 15  1  0  0  0
 15 16  1  0  0  0
 23 25  1  0  0  0
 25 26  2  0  0  0
 26 27  1  0  0  0
 27 28  2  0  0  0
 28 29  1  0  0  0
 29 30  2  0  0  0
 24 20  2  0  0  0
  6  1  1  0  0  0
 16 11  1  0  0  0
 30 25  1  0  0  0
  9 10  1  0  0  0
M  END
> <minimizedAffinity>
-8.05559

> <CNNscore>
0.3509662747

> <CNNaffinity>
6.1558251381

> <CNN_VS>
2.1604869366

> <CNNaffinity_variance>
0.1588996947

$$$$
[H]c1nc(OC([H])([H])c2c(-c3c([H])c([H])c([H])c([H])c3[H])noc2C([H])([H])[H])c([H])c([H])c1C(=O)N([H])C1([H])C([H])([H])C([H])([H])OC([H])([H])C1([H])[H]


 30 33  0  0  0  0  0  0  0  0999 V2000
   41.0516   13.3038  -15.3465 C   0  0  0  0  0  0  0  0  0  0  0  0
   42.2603   12.9751  -15.9647 C   0  0  0  0  0  0  0  0  0  0  0  0
   43.4888   13.1442  -15.3789 C   0  0  0  0  0  0  0  0  0  0  0  0
   43.5389   13.6782  -14.0884 C   0  0  0  0  0  0  0  0  0  0  0  0
   42.3391   14.0065  -13.4774 C   0  0  0  0  0  0  0  0  0  0  0  0
   41.1394   13.8189  -14.1015 N   0  0  0  0  0  0  0  0  0  0  0  0
   44.8261   13.8499  -13.4112 C   0  0  0  0  0  0  0  0  0  0  0  0
   45.5193   14.8834  -13.5390 O   0  0  0  0  0  0  0  0  0  0  0  0
   45.2859   12.7996  -12.5900 N   0  0  0  0  0  0  0  0  0  0  0  0
   44.7145   11.9385  -12.4640 H   0  0  0  0  0  0  0  0  0  0  0  0
   46.5742   12.8487  -11.8629 C   0  0  0  0  0  0  0  0  0  0  0  0
   46.3596   12.3090  -10.4638 C   0  0  0  0  0  0  0  0  0  0  0  0
   46.6867   10.8288  -10.4622 C   0  0  0  0  0  0  0  0  0  0  0  0
   48.0625   10.7521  -10.7632 O   0  0  0  0  0  0  0  0  0  0  0  0
   48.1616   10.8995  -12.1234 C   0  0  0  0  0  0  0  0  0  0  0  0
   47.6644   12.2236  -12.6389 C   0  0  0  0  0  0  0  0  0  0  0  0
   39.8948   13.0855  -16.0390 O   0  0  0  0  0  0  0  0  0  0  0  0
   39.0099   11.9886  -15.7789 C   0  0  0  0  0  0  0  0  0  0  0  0
   40.5763   11.0302  -18.3604 C   0  0  0  0  0  0  0  0  0  0  0  0
   39.1247   11.0540  -18.1298 C   0  0  0  0  0  0  0  0  0  0  0  0
   38.2460   10.6184  -19.0292 O   0  0  0  0  0  0  0  0  0  0  0  0
   37.0466   10.7610  -18.5459 N   0  0  0  0  0  0  0  0  0  0  0  0
   37.0789   11.2923  -17.3053 C   0  0  0  0  0  0  0  0  0  0  0  0
   38.4355   11.4873  -17.0335 C   0  0  0  0  0  0  0  0  0  0  0  0
   35.9790   11.5601  -16.4022 C   0  0  0  0  0  0  0  0  0  0  0  0
   36.0445   12.5243  -15.4422 C   0  0  0  0  0  0  0  0  0  0  0  0
   34.9540   12.8065  -14.6074 C   0  0  0  0  0  0  0  0  0  0  0  0
   33.7867   12.0821  -14.7743 C   0  0  0  0  0  0  0  0  0  0  0  0
   33.6854   11.0848  -15.7494 C   0  0  0  0  0  0  0  0  0  0  0  0
   34.7850   10.8473  -16.5387 C   0  0  0  0  0  0  0  0  0  0  0  0
 19 20  1  0  0  0
 20 21  1  0  0  0
 21 22  1  0  0  0
 22 23  2  0  0  0
 23 24  1  0  0  0
 24 18  1  0  0  0
 18 17  1  0  0  0
 17  1  1  0  0  0
  1  2  2  0  0  0
  2  3  1  0  0  0
  3  4  2  0  0  0
  4  5  1  0  0  0
  5  6  2  0  0  0
  4  7  1  0  0  0
  7  8  2  0  0  0
  7  9  1  0  0  0
  9 11  1  0  0  0
 11 12  1  0  0  0
 12 13  1  0  0  0
 13 14  1  0  0  0
 14 15  1  0  0  0
 15 16  1  0  0  0
 23 25  1  0  0  0
 25 26  2  0  0  0
 26 27  1  0  0  0
 27 28  2  0  0  0
 28 29  1  0  0  0
 29 30  2  0  0  0
 24 20  2  0  0  0
  6  1  1  0  0  0
 16 11  1  0  0  0
 30 25  1  0  0  0
  9 10  1  0  0  0
M  END
> <minimizedAffinity>
-8.30569

> <CNNscore>
0.3261700869

> <CNNaffinity>
6.2405333519

> <CNN_VS>
2.0354752541

> <CNNaffinity_variance>
0.2372843325

$$$$
[H]c1nc(OC([H])([H])c2c(-c3c([H])c([H])c([H])c([H])c3[H])noc2C([H])([H])[H])c([H])c([H])c1C(=O)N([H])C1([H])C([H])([H])C([H])([H])OC([H])([H])C1([H])[H]


 30 33  0  0  0  0  0  0  0  0999 V2000
   37.3517   14.6133  -12.9691 C   0  0  0  0  0  0  0  0  0  0  0  0
   35.9879   14.3328  -12.8584 C   0  0  0  0  0  0  0  0  0  0  0  0
   35.1950   14.7871  -11.8357 C   0  0  0  0  0  0  0  0  0  0  0  0
   35.7825   15.5759  -10.8429 C   0  0  0  0  0  0  0  0  0  0  0  0
   37.1364   15.8510  -10.9525 C   0  0  0  0  0  0  0  0  0  0  0  0
   37.8849   15.3762  -11.9909 N   0  0  0  0  0  0  0  0  0  0  0  0
   34.9696   16.1080   -9.7470 C   0  0  0  0  0  0  0  0  0  0  0  0
   35.3917   16.9875   -8.9639 O   0  0  0  0  0  0  0  0  0  0  0  0
   33.6656   15.5965   -9.5828 N   0  0  0  0  0  0  0  0  0  0  0  0
   33.2960   14.8732  -10.2340 H   0  0  0  0  0  0  0  0  0  0  0  0
   32.7526   16.0446   -8.5075 C   0  0  0  0  0  0  0  0  0  0  0  0
   31.3704   16.2365   -9.0969 C   0  0  0  0  0  0  0  0  0  0  0  0
   30.5825   14.9554   -8.9066 C   0  0  0  0  0  0  0  0  0  0  0  0
   30.4543   14.8022   -7.5104 O   0  0  0  0  0  0  0  0  0  0  0  0
   31.6461   14.2807   -7.0753 C   0  0  0  0  0  0  0  0  0  0  0  0
   32.8355   15.1704   -7.3199 C   0  0  0  0  0  0  0  0  0  0  0  0
   38.0292   14.1000  -14.0382 O   0  0  0  0  0  0  0  0  0  0  0  0
   38.3345   12.7079  -14.1895 C   0  0  0  0  0  0  0  0  0  0  0  0
   41.1193   12.9357  -15.6826 C   0  0  0  0  0  0  0  0  0  0  0  0
   39.8302   12.4767  -16.2199 C   0  0  0  0  0  0  0  0  0  0  0  0
   39.6838   12.0478  -17.4711 O   0  0  0  0  0  0  0  0  0  0  0  0
   38.4417   11.7076  -17.6543 N   0  0  0  0  0  0  0  0  0  0  0  0
   37.7132   11.8917  -16.5328 C   0  0  0  0  0  0  0  0  0  0  0  0
   38.6182   12.3973  -15.5960 C   0  0  0  0  0  0  0  0  0  0  0  0
   36.3170   11.5893  -16.2958 C   0  0  0  0  0  0  0  0  0  0  0  0
   35.5470   12.3264  -15.4477 C   0  0  0  0  0  0  0  0  0  0  0  0
   34.1840   12.0526  -15.2657 C   0  0  0  0  0  0  0  0  0  0  0  0
   33.6180   11.0064  -15.9728 C   0  0  0  0  0  0  0  0  0  0  0  0
   34.3795   10.2289  -16.8511 C   0  0  0  0  0  0  0  0  0  0  0  0
   35.7112   10.5387  -16.9899 C   0  0  0  0  0  0  0  0  0  0  0  0
 19 20  1  0  0  0
 20 21  1  0  0  0
 21 22  1  0  0  0
 22 23  2  0  0  0
 23 24  1  0  0  0
 24 18  1  0  0  0
 18 17  1  0  0  0
 17  1  1  0  0  0
  1  2  2  0  0  0
  2  3  1  0  0  0
  3  4  2  0  0  0
  4  5  1  0  0  0
  5  6  2  0  0  0
  4  7  1  0  0  0
  7  8  2  0  0  0
  7  9  1  0  0  0
  9 11  1  0  0  0
 11 12  1  0  0  0
 12 13  1  0  0  0
 13 14  1  0  0  0
 14 15  1  0  0  0
 15 16  1  0  0  0
 23 25  1  0  0  0
 25 26  2  0  0  0
 26 27  1  0  0  0
 27 28  2  0  0  0
 28 29  1  0  0  0
 29 30  2  0  0  0
 24 20  2  0  0  0
  6  1  1  0  0  0
 16 11  1  0  0  0
 30 25  1  0  0  0
  9 10  1  0  0  0
M  END
> <minimizedAffinity>
-8.64470

> <CNNscore>
0.3179396391

> <CNNaffinity>
6.1083765030

> <CNN_VS>
1.9420950413

> <CNNaffinity_variance>
0.3331223428

$$$$
[H]c1nc(OC([H])([H])c2c(-c3c([H])c([H])c([H])c([H])c3[H])noc2C([H])([H])[H])c([H])c([H])c1C(=O)N([H])C1([H])C([H])([H])C([H])([H])OC([H])([H])C1([H])[H]


 30 33  0  0  0  0  0  0  0  0999 V2000
   38.2313   14.6625  -12.6906 C   0  0  0  0  0  0  0  0  0  0  0  0
   39.2247   15.5078  -12.1911 C   0  0  0  0  0  0  0  0  0  0  0  0
   39.1466   16.1461  -10.9797 C   0  0  0  0  0  0  0  0  0  0  0  0
   38.0071   15.9430  -10.1967 C   0  0  0  0  0  0  0  0  0  0  0  0
   37.0210   15.1062  -10.6949 C   0  0  0  0  0  0  0  0  0  0  0  0
   37.1445   14.4918  -11.9078 N   0  0  0  0  0  0  0  0  0  0  0  0
   37.8920   16.5804   -8.8831 C   0  0  0  0  0  0  0  0  0  0  0  0
   38.8815   17.0401   -8.2711 O   0  0  0  0  0  0  0  0  0  0  0  0
   36.6104   16.6685   -8.3014 N   0  0  0  0  0  0  0  0  0  0  0  0
   35.7757   16.3015   -8.8039 H   0  0  0  0  0  0  0  0  0  0  0  0
   36.3664   17.2788   -6.9752 C   0  0  0  0  0  0  0  0  0  0  0  0
   35.3107   18.3547   -7.1259 C   0  0  0  0  0  0  0  0  0  0  0  0
   33.9546   17.7447   -6.8307 C   0  0  0  0  0  0  0  0  0  0  0  0
   34.0078   17.3594   -5.4750 O   0  0  0  0  0  0  0  0  0  0  0  0
   34.6884   16.1687   -5.4459 C   0  0  0  0  0  0  0  0  0  0  0  0
   36.1071   16.2560   -5.9417 C   0  0  0  0  0  0  0  0  0  0  0  0
   38.4316   14.0866  -13.9128 O   0  0  0  0  0  0  0  0  0  0  0  0
   38.3821   12.6725  -14.1408 C   0  0  0  0  0  0  0  0  0  0  0  0
   41.2112   12.8527  -15.5552 C   0  0  0  0  0  0  0  0  0  0  0  0
   39.9274   12.4285  -16.1322 C   0  0  0  0  0  0  0  0  0  0  0  0
   39.8059   12.0157  -17.3915 O   0  0  0  0  0  0  0  0  0  0  0  0
   38.5620   11.7055  -17.6120 N   0  0  0  0  0  0  0  0  0  0  0  0
   37.8073   11.8945  -16.5088 C   0  0  0  0  0  0  0  0  0  0  0  0
   38.6973   12.3700  -15.5423 C   0  0  0  0  0  0  0  0  0  0  0  0
   36.3987   11.6212  -16.3132 C   0  0  0  0  0  0  0  0  0  0  0  0
   35.7539   10.6192  -16.9733 C   0  0  0  0  0  0  0  0  0  0  0  0
   34.4016   10.3340  -16.7372 C   0  0  0  0  0  0  0  0  0  0  0  0
   33.7164   11.0950  -15.8064 C   0  0  0  0  0  0  0  0  0  0  0  0
   34.3474   12.1316  -15.1115 C   0  0  0  0  0  0  0  0  0  0  0  0
   35.6732   12.3703  -15.3832 C   0  0  0  0  0  0  0  0  0  0  0  0
 19 20  1  0  0  0
 20 21  1  0  0  0
 21 22  1  0  0  0
 22 23  2  0  0  0
 23 24  1  0  0  0
 24 18  1  0  0  0
 18 17  1  0  0  0
 17  1  1  0  0  0
  1  2  2  0  0  0
  2  3  1  0  0  0
  3  4  2  0  0  0
  4  5  1  0  0  0
  5  6  2  0  0  0
  4  7  1  0  0  0
  7  8  2  0  0  0
  7  9  1  0  0  0
  9 11  1  0  0  0
 11 12  1  0  0  0
 12 13  1  0  0  0
 13 14  1  0  0  0
 14 15  1  0  0  0
 15 16  1  0  0  0
 23 25  1  0  0  0
 25 26  2  0  0  0
 26 27  1  0  0  0
 27 28  2  0  0  0
 28 29  1  0  0  0
 29 30  2  0  0  0
 24 20  2  0  0  0
  6  1  1  0  0  0
 16 11  1  0  0  0
 30 25  1  0  0  0
  9 10  1  0  0  0
M  END
> <minimizedAffinity>
-7.77365

> <CNNscore>
0.3124498427

> <CNNaffinity>
6.0132956505

> <CNN_VS>
1.8788533211

> <CNNaffinity_variance>
0.4951042533

$$$$
[H]c1nc(OC([H])([H])c2c(-c3c([H])c([H])c([H])c([H])c3[H])noc2C([H])([H])[H])c([H])c([H])c1C(=O)N([H])C1([H])C([H])([H])C([H])([H])OC([H])([H])C1([H])[H]


 30 33  0  0  0  0  0  0  0  0999 V2000
   37.3473   15.1278  -12.4043 C   0  0  0  0  0  0  0  0  0  0  0  0
   36.0611   14.7826  -11.9829 C   0  0  0  0  0  0  0  0  0  0  0  0
   35.4515   15.3147  -10.8755 C   0  0  0  0  0  0  0  0  0  0  0  0
   36.1556   16.2566  -10.1206 C   0  0  0  0  0  0  0  0  0  0  0  0
   37.4327   16.5961  -10.5384 C   0  0  0  0  0  0  0  0  0  0  0  0
   37.9977   16.0390  -11.6494 N   0  0  0  0  0  0  0  0  0  0  0  0
   35.5344   16.8738   -8.9467 C   0  0  0  0  0  0  0  0  0  0  0  0
   34.3455   16.6562   -8.6239 O   0  0  0  0  0  0  0  0  0  0  0  0
   36.3207   17.7444   -8.1640 N   0  0  0  0  0  0  0  0  0  0  0  0
   37.3152   17.9258   -8.4128 H   0  0  0  0  0  0  0  0  0  0  0  0
   35.8045   18.4371   -6.9621 C   0  0  0  0  0  0  0  0  0  0  0  0
   36.7317   18.1438   -5.8006 C   0  0  0  0  0  0  0  0  0  0  0  0
   37.7579   19.2559   -5.7096 C   0  0  0  0  0  0  0  0  0  0  0  0
   37.0194   20.4189   -5.4075 O   0  0  0  0  0  0  0  0  0  0  0  0
   36.4803   20.8445   -6.5949 C   0  0  0  0  0  0  0  0  0  0  0  0
   35.5301   19.8637   -7.2285 C   0  0  0  0  0  0  0  0  0  0  0  0
   37.8400   14.5245  -13.5262 O   0  0  0  0  0  0  0  0  0  0  0  0
   38.0569   13.1122  -13.6370 C   0  0  0  0  0  0  0  0  0  0  0  0
   40.9717   13.4438  -14.8328 C   0  0  0  0  0  0  0  0  0  0  0  0
   39.7743   12.8950  -15.4854 C   0  0  0  0  0  0  0  0  0  0  0  0
   39.7872   12.4154  -16.7266 O   0  0  0  0  0  0  0  0  0  0  0  0
   38.5916   12.0000  -17.0273 N   0  0  0  0  0  0  0  0  0  0  0  0
   37.7371   12.1818  -15.9982 C   0  0  0  0  0  0  0  0  0  0  0  0
   38.5074   12.7694  -14.9915 C   0  0  0  0  0  0  0  0  0  0  0  0
   36.3410   11.8099  -15.8994 C   0  0  0  0  0  0  0  0  0  0  0  0
   35.5092   12.3493  -14.9652 C   0  0  0  0  0  0  0  0  0  0  0  0
   34.1480   12.0171  -14.9128 C   0  0  0  0  0  0  0  0  0  0  0  0
   33.6487   11.1195  -15.8401 C   0  0  0  0  0  0  0  0  0  0  0  0
   34.4747   10.5463  -16.8121 C   0  0  0  0  0  0  0  0  0  0  0  0
   35.8015   10.9047  -16.8169 C   0  0  0  0  0  0  0  0  0  0  0  0
 19 20  1  0  0  0
 20 21  1  0  0  0
 21 22  1  0  0  0
 22 23  2  0  0  0
 23 24  1  0  0  0
 24 18  1  0  0  0
 18 17  1  0  0  0
 17  1  1  0  0  0
  1  2  2  0  0  0
  2  3  1  0  0  0
  3  4  2  0  0  0
  4  5  1  0  0  0
  5  6  2  0  0  0
  4  7  1  0  0  0
  7  8  2  0  0  0
  7  9  1  0  0  0
  9 11  1  0  0  0
 11 12  1  0  0  0
 12 13  1  0  0  0
 13 14  1  0  0  0
 14 15  1  0  0  0
 15 16  1  0  0  0
 23 25  1  0  0  0
 25 26  2  0  0  0
 26 27  1  0  0  0
 27 28  2  0  0  0
 28 29  1  0  0  0
 29 30  2  0  0  0
 24 20  2  0  0  0
  6  1  1  0  0  0
 16 11  1  0  0  0
 30 25  1  0  0  0
  9 10  1  0  0  0
M  END
> <minimizedAffinity>
-8.25791

> <CNNscore>
0.3039614856

> <CNNaffinity>
5.9954428673

> <CNN_VS>
1.8223837614

> <CNNaffinity_variance>
0.4323948920

$$$$
[H]c1nc(OC([H])([H])c2c(-c3c([H])c([H])c([H])c([H])c3[H])noc2C([H])([H])[H])c([H])c([H])c1C(=O)N([H])C1([H])C([H])([H])C([H])([H])OC([H])([H])C1([H])[H]


 30 33  0  0  0  0  0  0  0  0999 V2000
   40.7067   13.1507  -15.4662 C   0  0  0  0  0  0  0  0  0  0  0  0
   41.9000   12.8526  -16.1283 C   0  0  0  0  0  0  0  0  0  0  0  0
   43.1439   13.1399  -15.6273 C   0  0  0  0  0  0  0  0  0  0  0  0
   43.2271   13.7694  -14.3825 C   0  0  0  0  0  0  0  0  0  0  0  0
   42.0423   14.0671  -13.7280 C   0  0  0  0  0  0  0  0  0  0  0  0
   40.8262   13.7604  -14.2674 N   0  0  0  0  0  0  0  0  0  0  0  0
   44.5343   14.0696  -13.7941 C   0  0  0  0  0  0  0  0  0  0  0  0
   45.0511   15.2073  -13.8517 O   0  0  0  0  0  0  0  0  0  0  0  0
   45.2219   13.0240  -13.1438 N   0  0  0  0  0  0  0  0  0  0  0  0
   44.7993   12.0749  -13.0770 H   0  0  0  0  0  0  0  0  0  0  0  0
   46.5532   13.1987  -12.5209 C   0  0  0  0  0  0  0  0  0  0  0  0
   46.3733   13.3088  -11.0208 C   0  0  0  0  0  0  0  0  0  0  0  0
   46.5329   11.9292  -10.4131 C   0  0  0  0  0  0  0  0  0  0  0  0
   47.8685   11.5599  -10.6758 O   0  0  0  0  0  0  0  0  0  0  0  0
   47.8926   11.1259  -11.9769 C   0  0  0  0  0  0  0  0  0  0  0  0
   47.5129   12.1768  -12.9856 C   0  0  0  0  0  0  0  0  0  0  0  0
   39.5317   12.8110  -16.0740 O   0  0  0  0  0  0  0  0  0  0  0  0
   38.8206   11.5966  -15.8027 C   0  0  0  0  0  0  0  0  0  0  0  0
   37.6440   10.2673  -18.4266 C   0  0  0  0  0  0  0  0  0  0  0  0
   36.9453   11.0877  -17.4267 C   0  0  0  0  0  0  0  0  0  0  0  0
   35.6445   11.3586  -17.5000 O   0  0  0  0  0  0  0  0  0  0  0  0
   35.3127   12.0969  -16.4817 N   0  0  0  0  0  0  0  0  0  0  0  0
   36.3767   12.3430  -15.6882 C   0  0  0  0  0  0  0  0  0  0  0  0
   37.4445   11.6873  -16.3061 C   0  0  0  0  0  0  0  0  0  0  0  0
   36.4285   13.0699  -14.4367 C   0  0  0  0  0  0  0  0  0  0  0  0
   36.9000   14.3453  -14.3555 C   0  0  0  0  0  0  0  0  0  0  0  0
   36.8983   15.0546  -13.1461 C   0  0  0  0  0  0  0  0  0  0  0  0
   36.4005   14.4334  -12.0142 C   0  0  0  0  0  0  0  0  0  0  0  0
   35.9095   13.1248  -12.0618 C   0  0  0  0  0  0  0  0  0  0  0  0
   35.9370   12.4744  -13.2721 C   0  0  0  0  0  0  0  0  0  0  0  0
 19 20  1  0  0  0
 20 21  1  0  0  0
 21 22  1  0  0  0
 22 23  2  0  0  0
 23 24  1  0  0  0
 24 18  1  0  0  0
 18 17  1  0  0  0
 17  1  1  0  0  0
  1  2  2  0  0  0
  2  3  1  0  0  0
  3  4  2  0  0  0
  4  5  1  0  0  0
  5  6  2  0  0  0
  4  7  1  0  0  0
  7  8  2  0  0  0
  7  9  1  0  0  0
  9 11  1  0  0  0
 11 12  1  0  0  0
 12 13  1  0  0  0
 13 14  1  0  0  0
 14 15  1  0  0  0
 15 16  1  0  0  0
 23 25  1  0  0  0
 25 26  2  0  0  0
 26 27  1  0  0  0
 27 28  2  0  0  0
 28 29  1  0  0  0
 29 30  2  0  0  0
 24 20  2  0  0  0
  6  1  1  0  0  0
 16 11  1  0  0  0
 30 25  1  0  0  0
  9 10  1  0  0  0
M  END
> <minimizedAffinity>
-7.59671

> <CNNscore>
0.3005827963

> <CNNaffinity>
6.0847105980

> <CNN_VS>
1.8289593458

> <CNNaffinity_variance>
0.2455091774

$$$$
[H]c1c([H])c([H])c2c(c1[H])c1c3c(c4c5c([H])c([H])c([H])c([H])c5n5c4c1n2[C@]1([H])O[C@]5(C([H])([H])[H])[C@]([H])(OC([H])([H])[H])[C@]([H])(N([H])C([H])([H])[H])C1([H])[H])C([H])([H])N([H])C3=O


 37 44  0  0  0  0  0  0  0  0999 V2000
   35.0111   15.5076  -11.6230 C   0  0  0  0  0  0  0  0  0  0  0  0
   34.6942   14.3090  -12.5785 C   0  0  0  0  0  0  0  0  0  0  0  0
   35.9516   14.0204  -13.0606 C   0  0  0  0  0  0  0  0  0  0  0  0
   36.7078   13.7308  -11.9342 O   0  0  0  0  0  0  0  0  0  0  0  0
   37.4781   14.9066  -11.6656 C   0  0  0  0  0  0  0  0  0  0  0  0
   37.9234   14.6230  -10.2101 C   0  0  0  0  0  0  0  0  0  0  0  0
   36.4894   15.9642  -11.7423 C   0  0  0  0  0  0  0  0  0  0  0  0
   38.6146   14.8109  -12.5530 N   0  0  0  0  0  0  0  0  0  0  0  0
   39.8546   15.3176  -12.3292 C   0  0  0  0  0  0  0  0  0  0  0  0
   40.3488   16.1340  -11.3619 C   0  0  0  0  0  0  0  0  0  0  0  0
   41.6970   16.5394  -11.3486 C   0  0  0  0  0  0  0  0  0  0  0  0
   42.5495   16.1035  -12.3394 C   0  0  0  0  0  0  0  0  0  0  0  0
   42.0763   15.2689  -13.3438 C   0  0  0  0  0  0  0  0  0  0  0  0
   40.7466   14.9064  -13.3028 C   0  0  0  0  0  0  0  0  0  0  0  0
   40.0430   14.1264  -14.1605 C   0  0  0  0  0  0  0  0  0  0  0  0
   40.3226   13.3880  -15.3110 C   0  0  0  0  0  0  0  0  0  0  0  0
   41.6357   13.2736  -15.9968 C   0  0  0  0  0  0  0  0  0  0  0  0
   41.3759   12.4046  -17.1188 N   0  0  0  0  0  0  0  0  0  0  0  0
   39.9884   12.0017  -17.1292 C   0  0  0  0  0  0  0  0  0  0  0  0
   39.5609   11.2471  -18.0203 O   0  0  0  0  0  0  0  0  0  0  0  0
   39.3769   12.6397  -15.9850 C   0  0  0  0  0  0  0  0  0  0  0  0
   38.0735   12.6073  -15.5168 C   0  0  0  0  0  0  0  0  0  0  0  0
   36.8979   12.0498  -15.9314 C   0  0  0  0  0  0  0  0  0  0  0  0
   36.5398   11.2414  -16.9593 C   0  0  0  0  0  0  0  0  0  0  0  0
   35.1981   10.8595  -17.0766 C   0  0  0  0  0  0  0  0  0  0  0  0
   34.2554   11.2905  -16.1722 C   0  0  0  0  0  0  0  0  0  0  0  0
   34.6127   12.1143  -15.1219 C   0  0  0  0  0  0  0  0  0  0  0  0
   35.9492   12.4814  -15.0241 C   0  0  0  0  0  0  0  0  0  0  0  0
   36.4897   13.2541  -14.1026 N   0  0  0  0  0  0  0  0  0  0  0  0
   37.8172   13.3395  -14.3849 C   0  0  0  0  0  0  0  0  0  0  0  0
   38.7852   14.0906  -13.6990 C   0  0  0  0  0  0  0  0  0  0  0  0
   42.1047   12.1288  -17.8019 H   0  0  0  0  0  0  0  0  0  0  0  0
   33.3776   15.7592   -9.9519 C   0  0  0  0  0  0  0  0  0  0  0  0
   34.6640   15.2194  -10.2774 N   0  0  0  0  0  0  0  0  0  0  0  0
   35.3926   15.4353   -9.6017 H   0  0  0  0  0  0  0  0  0  0  0  0
   36.6131   16.7368  -10.5463 O   0  0  0  0  0  0  0  0  0  0  0  0
   37.4972   17.7784  -10.6852 C   0  0  0  0  0  0  0  0  0  0  0  0
 33 34  1  0  0  0
 34  1  1  0  0  0
  1  2  1  0  0  0
  2  3  1  0  0  0
  3  4  1  0  0  0
  4  5  1  0  0  0
  5  6  1  0  0  0
  5  7  1  0  0  0
  7 36  1  0  0  0
 36 37  1  0  0  0
  5  8  1  0  0  0
  8  9  1  0  0  0
  9 10  2  0  0  0
 10 11  1  0  0  0
 11 12  2  0  0  0
 12 13  1  0  0  0
 13 14  2  0  0  0
 14 15  1  0  0  0
 15 16  2  0  0  0
 16 17  1  0  0  0
 17 18  1  0  0  0
 18 19  1  0  0  0
 19 20  2  0  0  0
 19 21  1  0  0  0
 21 22  2  0  0  0
 22 23  1  0  0  0
 23 24  2  0  0  0
 24 25  1  0  0  0
 25 26  2  0  0  0
 26 27  1  0  0  0
 27 28  2  0  0  0
 28 29  1  0  0  0
 29 30  1  0  0  0
 30 31  2  0  0  0
  7  1  1  0  0  0
 31  8  1  0  0  0
 29  3  1  0  0  0
 14  9  1  0  0  0
 31 15  1  0  0  0
 21 16  1  0  0  0
 30 22  1  0  0  0
 28 23  1  0  0  0
 34 35  1  0  0  0
 18 32  1  0  0  0
M  END
> <minimizedAffinity>
-11.69773

> <CNNscore>
0.6991915703

> <CNNaffinity>
7.2046370506

> <CNN_VS>
5.0374217033

> <CNNaffinity_variance>
0.1174464002

$$$$
[H]c1c([H])c([H])c2c(c1[H])c1c3c(c4c5c([H])c([H])c([H])c([H])c5n5c4c1n2[C@]1([H])O[C@]5(C([H])([H])[H])[C@]([H])(OC([H])([H])[H])[C@]([H])(N([H])C([H])([H])[H])C1([H])[H])C([H])([H])N([H])C3=O


 37 44  0  0  0  0  0  0  0  0999 V2000
   36.3945   14.5119  -11.7135 C   0  0  0  0  0  0  0  0  0  0  0  0
   37.7665   15.2507  -11.5652 C   0  0  0  0  0  0  0  0  0  0  0  0
   38.4457   14.7612  -12.6587 C   0  0  0  0  0  0  0  0  0  0  0  0
   37.6666   15.1154  -13.7506 O   0  0  0  0  0  0  0  0  0  0  0  0
   36.9513   13.9331  -14.1226 C   0  0  0  0  0  0  0  0  0  0  0  0
   35.8510   14.5438  -15.0246 C   0  0  0  0  0  0  0  0  0  0  0  0
   36.4258   13.4624  -12.8560 C   0  0  0  0  0  0  0  0  0  0  0  0
   37.8835   13.1792  -14.9293 N   0  0  0  0  0  0  0  0  0  0  0  0
   37.5675   12.3246  -15.9365 C   0  0  0  0  0  0  0  0  0  0  0  0
   36.3821   11.8265  -16.3761 C   0  0  0  0  0  0  0  0  0  0  0  0
   36.3087   10.9260  -17.4558 C   0  0  0  0  0  0  0  0  0  0  0  0
   37.4646   10.5302  -18.0928 C   0  0  0  0  0  0  0  0  0  0  0  0
   38.6931   11.0198  -17.6679 C   0  0  0  0  0  0  0  0  0  0  0  0
   38.7004   11.8986  -16.6055 C   0  0  0  0  0  0  0  0  0  0  0  0
   39.7524   12.4992  -15.9959 C   0  0  0  0  0  0  0  0  0  0  0  0
   41.1359   12.5319  -16.1749 C   0  0  0  0  0  0  0  0  0  0  0  0
   41.9170   11.7968  -17.2030 C   0  0  0  0  0  0  0  0  0  0  0  0
   43.2853   12.1773  -16.9489 N   0  0  0  0  0  0  0  0  0  0  0  0
   43.3511   13.0937  -15.8338 C   0  0  0  0  0  0  0  0  0  0  0  0
   44.4469   13.5427  -15.4546 O   0  0  0  0  0  0  0  0  0  0  0  0
   41.9887   13.2819  -15.3883 C   0  0  0  0  0  0  0  0  0  0  0  0
   41.4685   14.0475  -14.3575 C   0  0  0  0  0  0  0  0  0  0  0  0
   41.9820   14.8413  -13.3722 C   0  0  0  0  0  0  0  0  0  0  0  0
   43.2297   15.2512  -13.0354 C   0  0  0  0  0  0  0  0  0  0  0  0
   43.3838   16.0890  -11.9246 C   0  0  0  0  0  0  0  0  0  0  0  0
   42.2973   16.4934  -11.1840 C   0  0  0  0  0  0  0  0  0  0  0  0
   41.0226   16.0801  -11.5211 C   0  0  0  0  0  0  0  0  0  0  0  0
   40.8920   15.2490  -12.6268 C   0  0  0  0  0  0  0  0  0  0  0  0
   39.7719   14.7488  -13.1099 N   0  0  0  0  0  0  0  0  0  0  0  0
   40.1065   14.0025  -14.1963 C   0  0  0  0  0  0  0  0  0  0  0  0
   39.2440   13.2455  -15.0055 C   0  0  0  0  0  0  0  0  0  0  0  0
   44.0841   11.8241  -17.5066 H   0  0  0  0  0  0  0  0  0  0  0  0
   34.7902   15.8227  -10.6034 C   0  0  0  0  0  0  0  0  0  0  0  0
   35.3169   15.4214  -11.8736 N   0  0  0  0  0  0  0  0  0  0  0  0
   34.6130   15.1226  -12.5440 H   0  0  0  0  0  0  0  0  0  0  0  0
   35.0250   13.2474  -13.0409 O   0  0  0  0  0  0  0  0  0  0  0  0
   34.7347   11.9478  -13.3759 C   0  0  0  0  0  0  0  0  0  0  0  0
 33 34  1  0  0  0
 34  1  1  0  0  0
  1  2  1  0  0  0
  2  3  1  0  0  0
  3  4  1  0  0  0
  4  5  1  0  0  0
  5  6  1  0  0  0
  5  7  1  0  0  0
  7 36  1  0  0  0
 36 37  1  0  0  0
  5  8  1  0  0  0
  8  9  1  0  0  0
  9 10  2  0  0  0
 10 11  1  0  0  0
 11 12  2  0  0  0
 12 13  1  0  0  0
 13 14  2  0  0  0
 14 15  1  0  0  0
 15 16  2  0  0  0
 16 17  1  0  0  0
 17 18  1  0  0  0
 18 19  1  0  0  0
 19 20  2  0  0  0
 19 21  1  0  0  0
 21 22  2  0  0  0
 22 23  1  0  0  0
 23 24  2  0  0  0
 24 25  1  0  0  0
 25 26  2  0  0  0
 26 27  1  0  0  0
 27 28  2  0  0  0
 28 29  1  0  0  0
 29 30  1  0  0  0
 30 31  2  0  0  0
  7  1  1  0  0  0
 31  8  1  0  0  0
 29  3  1  0  0  0
 14  9  1  0  0  0
 31 15  1  0  0  0
 21 16  1  0  0  0
 30 22  1  0  0  0
 28 23  1  0  0  0
 34 35  1  0  0  0
 18 32  1  0  0  0
M  END
> <minimizedAffinity>
-11.78846

> <CNNscore>
0.5521911979

> <CNNaffinity>
7.1164803505

> <CNN_VS>
3.9296576977

> <CNNaffinity_variance>
0.0721416399

$$$$
[H]c1c([H])c([H])c2c(c1[H])c1c3c(c4c5c([H])c([H])c([H])c([H])c5n5c4c1n2[C@]1([H])O[C@]5(C([H])([H])[H])[C@]([H])(OC([H])([H])[H])[C@]([H])(N([H])C([H])([H])[H])C1([H])[H])C([H])([H])N([H])C3=O


 37 44  0  0  0  0  0  0  0  0999 V2000
   38.7217   15.6964  -10.1145 C   0  0  0  0  0  0  0  0  0  0  0  0
   40.0001   15.6626  -11.0171 C   0  0  0  0  0  0  0  0  0  0  0  0
   39.5055   15.0493  -12.1467 C   0  0  0  0  0  0  0  0  0  0  0  0
   38.4688   15.8672  -12.5720 O   0  0  0  0  0  0  0  0  0  0  0  0
   37.2629   15.2293  -12.1400 C   0  0  0  0  0  0  0  0  0  0  0  0
   36.2600   16.4001  -12.2835 C   0  0  0  0  0  0  0  0  0  0  0  0
   37.5444   14.9130  -10.7534 C   0  0  0  0  0  0  0  0  0  0  0  0
   36.9958   14.2291  -13.1482 N   0  0  0  0  0  0  0  0  0  0  0  0
   35.7738   13.7645  -13.5162 C   0  0  0  0  0  0  0  0  0  0  0  0
   34.5299   13.9546  -13.0034 C   0  0  0  0  0  0  0  0  0  0  0  0
   33.3929   13.3429  -13.5649 C   0  0  0  0  0  0  0  0  0  0  0  0
   33.5323   12.5253  -14.6652 C   0  0  0  0  0  0  0  0  0  0  0  0
   34.7899   12.3090  -15.2136 C   0  0  0  0  0  0  0  0  0  0  0  0
   35.8649   12.9357  -14.6196 C   0  0  0  0  0  0  0  0  0  0  0  0
   37.1800   12.8771  -14.9457 C   0  0  0  0  0  0  0  0  0  0  0  0
   37.9450   12.2655  -15.9396 C   0  0  0  0  0  0  0  0  0  0  0  0
   37.4488   11.3818  -17.0260 C   0  0  0  0  0  0  0  0  0  0  0  0
   38.6361   11.0251  -17.7640 N   0  0  0  0  0  0  0  0  0  0  0  0
   39.7981   11.6498  -17.1749 C   0  0  0  0  0  0  0  0  0  0  0  0
   40.9255   11.4675  -17.6668 O   0  0  0  0  0  0  0  0  0  0  0  0
   39.3149   12.4099  -16.0440 C   0  0  0  0  0  0  0  0  0  0  0  0
   39.9896   13.1948  -15.1231 C   0  0  0  0  0  0  0  0  0  0  0  0
   41.2945   13.5149  -14.8791 C   0  0  0  0  0  0  0  0  0  0  0  0
   42.4724   13.2312  -15.4874 C   0  0  0  0  0  0  0  0  0  0  0  0
   43.6526   13.7458  -14.9377 C   0  0  0  0  0  0  0  0  0  0  0  0
   43.6272   14.5246  -13.8040 C   0  0  0  0  0  0  0  0  0  0  0  0
   42.4306   14.8183  -13.1785 C   0  0  0  0  0  0  0  0  0  0  0  0
   41.2715   14.2975  -13.7404 C   0  0  0  0  0  0  0  0  0  0  0  0
   40.0393   14.4601  -13.3001 N   0  0  0  0  0  0  0  0  0  0  0  0
   39.2211   13.7878  -14.1531 C   0  0  0  0  0  0  0  0  0  0  0  0
   37.8275   13.6447  -14.0581 C   0  0  0  0  0  0  0  0  0  0  0  0
   38.6217   10.4058  -18.5946 H   0  0  0  0  0  0  0  0  0  0  0  0
   38.6444   17.3151   -8.4121 C   0  0  0  0  0  0  0  0  0  0  0  0
   38.3424   17.0228   -9.7816 N   0  0  0  0  0  0  0  0  0  0  0  0
   37.3981   17.2718  -10.0651 H   0  0  0  0  0  0  0  0  0  0  0  0
   36.4540   15.4203   -9.9813 O   0  0  0  0  0  0  0  0  0  0  0  0
   36.1156   14.5875   -8.9432 C   0  0  0  0  0  0  0  0  0  0  0  0
 33 34  1  0  0  0
 34  1  1  0  0  0
  1  2  1  0  0  0
  2  3  1  0  0  0
  3  4  1  0  0  0
  4  5  1  0  0  0
  5  6  1  0  0  0
  5  7  1  0  0  0
  7 36  1  0  0  0
 36 37  1  0  0  0
  5  8  1  0  0  0
  8  9  1  0  0  0
  9 10  2  0  0  0
 10 11  1  0  0  0
 11 12  2  0  0  0
 12 13  1  0  0  0
 13 14  2  0  0  0
 14 15  1  0  0  0
 15 16  2  0  0  0
 16 17  1  0  0  0
 17 18  1  0  0  0
 18 19  1  0  0  0
 19 20  2  0  0  0
 19 21  1  0  0  0
 21 22  2  0  0  0
 22 23  1  0  0  0
 23 24  2  0  0  0
 24 25  1  0  0  0
 25 26  2  0  0  0
 26 27  1  0  0  0
 27 28  2  0  0  0
 28 29  1  0  0  0
 29 30  1  0  0  0
 30 31  2  0  0  0
  7  1  1  0  0  0
 31  8  1  0  0  0
 29  3  1  0  0  0
 14  9  1  0  0  0
 31 15  1  0  0  0
 21 16  1  0  0  0
 30 22  1  0  0  0
 28 23  1  0  0  0
 34 35  1  0  0  0
 18 32  1  0  0  0
M  END
> <minimizedAffinity>
-10.63304

> <CNNscore>
0.3911268711

> <CNNaffinity>
6.9425187111

> <CNN_VS>
2.7154057026

> <CNNaffinity_variance>
0.0716995522

$$$$
[H]c1c([H])c([H])c2c(c1[H])c1c3c(c4c5c([H])c([H])c([H])c([H])c5n5c4c1n2[C@]1([H])O[C@]5(C([H])([H])[H])[C@]([H])(OC([H])([H])[H])[C@]([H])(N([H])C([H])([H])[H])C1([H])[H])C([H])([H])N([H])C3=O


 37 44  0  0  0  0  0  0  0  0999 V2000
   34.3021   13.8031  -12.5645 C   0  0  0  0  0  0  0  0  0  0  0  0
   35.3453   14.7852  -11.9343 C   0  0  0  0  0  0  0  0  0  0  0  0
   36.4511   14.5262  -12.7134 C   0  0  0  0  0  0  0  0  0  0  0  0
   36.0459   14.8027  -14.0111 O   0  0  0  0  0  0  0  0  0  0  0  0
   35.7743   13.5346  -14.6162 C   0  0  0  0  0  0  0  0  0  0  0  0
   34.9552   13.9834  -15.8510 C   0  0  0  0  0  0  0  0  0  0  0  0
   34.9528   12.8724  -13.6221 C   0  0  0  0  0  0  0  0  0  0  0  0
   37.0670   13.0451  -15.0375 N   0  0  0  0  0  0  0  0  0  0  0  0
   37.3120   12.2257  -16.0925 C   0  0  0  0  0  0  0  0  0  0  0  0
   36.4896   11.5383  -16.9277 C   0  0  0  0  0  0  0  0  0  0  0  0
   36.9910   10.7276  -17.9637 C   0  0  0  0  0  0  0  0  0  0  0  0
   38.3525   10.6191  -18.1459 C   0  0  0  0  0  0  0  0  0  0  0  0
   39.2212   11.3079  -17.3091 C   0  0  0  0  0  0  0  0  0  0  0  0
   38.6701   12.0856  -16.3129 C   0  0  0  0  0  0  0  0  0  0  0  0
   39.2897   12.8336  -15.3664 C   0  0  0  0  0  0  0  0  0  0  0  0
   40.6078   13.1535  -15.0388 C   0  0  0  0  0  0  0  0  0  0  0  0
   41.8359   12.6697  -15.7208 C   0  0  0  0  0  0  0  0  0  0  0  0
   42.9150   13.2927  -14.9936 N   0  0  0  0  0  0  0  0  0  0  0  0
   42.3909   14.1147  -13.9272 C   0  0  0  0  0  0  0  0  0  0  0  0
   43.1631   14.7411  -13.1805 O   0  0  0  0  0  0  0  0  0  0  0  0
   40.9520   13.9942  -13.9980 C   0  0  0  0  0  0  0  0  0  0  0  0
   39.9545   14.5593  -13.2202 C   0  0  0  0  0  0  0  0  0  0  0  0
   39.9103   15.3603  -12.1151 C   0  0  0  0  0  0  0  0  0  0  0  0
   40.8443   15.9818  -11.3538 C   0  0  0  0  0  0  0  0  0  0  0  0
   40.4190   16.7448  -10.2599 C   0  0  0  0  0  0  0  0  0  0  0  0
   39.0830   16.8674   -9.9562 C   0  0  0  0  0  0  0  0  0  0  0  0
   38.1252   16.2372  -10.7274 C   0  0  0  0  0  0  0  0  0  0  0  0
   38.5688   15.4849  -11.8081 C   0  0  0  0  0  0  0  0  0  0  0  0
   37.8215   14.8118  -12.6606 N   0  0  0  0  0  0  0  0  0  0  0  0
   38.6648   14.2331  -13.5568 C   0  0  0  0  0  0  0  0  0  0  0  0
   38.3212   13.3853  -14.6221 C   0  0  0  0  0  0  0  0  0  0  0  0
   43.9138   13.1491  -15.2294 H   0  0  0  0  0  0  0  0  0  0  0  0
   32.5112   15.2469  -12.0823 C   0  0  0  0  0  0  0  0  0  0  0  0
   33.1811   14.4908  -13.0980 N   0  0  0  0  0  0  0  0  0  0  0  0
   32.5659   13.9123  -13.6646 H   0  0  0  0  0  0  0  0  0  0  0  0
   33.7846   12.3992  -14.2960 O   0  0  0  0  0  0  0  0  0  0  0  0
   33.8537   11.0584  -14.5843 C   0  0  0  0  0  0  0  0  0  0  0  0
 33 34  1  0  0  0
 34  1  1  0  0  0
  1  2  1  0  0  0
  2  3  1  0  0  0
  3  4  1  0  0  0
  4  5  1  0  0  0
  5  6  1  0  0  0
  5  7  1  0  0  0
  7 36  1  0  0  0
 36 37  1  0  0  0
  5  8  1  0  0  0
  8  9  1  0  0  0
  9 10  2  0  0  0
 10 11  1  0  0  0
 11 12  2  0  0  0
 12 13  1  0  0  0
 13 14  2  0  0  0
 14 15  1  0  0  0
 15 16  2  0  0  0
 16 17  1  0  0  0
 17 18  1  0  0  0
 18 19  1  0  0  0
 19 20  2  0  0  0
 19 21  1  0  0  0
 21 22  2  0  0  0
 22 23  1  0  0  0
 23 24  2  0  0  0
 24 25  1  0  0  0
 25 26  2  0  0  0
 26 27  1  0  0  0
 27 28  2  0  0  0
 28 29  1  0  0  0
 29 30  1  0  0  0
 30 31  2  0  0  0
  7  1  1  0  0  0
 31  8  1  0  0  0
 29  3  1  0  0  0
 14  9  1  0  0  0
 31 15  1  0  0  0
 21 16  1  0  0  0
 30 22  1  0  0  0
 28 23  1  0  0  0
 34 35  1  0  0  0
 18 32  1  0  0  0
M  END
> <minimizedAffinity>
-10.72787

> <CNNscore>
0.3535740674

> <CNNaffinity>
6.9489417076

> <CNN_VS>
2.4569656849

> <CNNaffinity_variance>
0.2243199050

$$$$
[H]c1c([H])c([H])c2c(c1[H])c1c3c(c4c5c([H])c([H])c([H])c([H])c5n5c4c1n2[C@]1([H])O[C@]5(C([H])([H])[H])[C@]([H])(OC([H])([H])[H])[C@]([H])(N([H])C([H])([H])[H])C1([H])[H])C([H])([H])N([H])C3=O


 37 44  0  0  0  0  0  0  0  0999 V2000
   43.9944   14.0396  -12.0989 C   0  0  0  0  0  0  0  0  0  0  0  0
   44.6643   12.6609  -11.7818 C   0  0  0  0  0  0  0  0  0  0  0  0
   45.0264   12.8435  -10.4656 C   0  0  0  0  0  0  0  0  0  0  0  0
   43.8390   13.1216   -9.8042 O   0  0  0  0  0  0  0  0  0  0  0  0
   43.8176   14.5399   -9.6155 C   0  0  0  0  0  0  0  0  0  0  0  0
   42.3216   14.7550   -9.2793 C   0  0  0  0  0  0  0  0  0  0  0  0
   44.1643   15.0452  -10.9293 C   0  0  0  0  0  0  0  0  0  0  0  0
   44.6218   14.7650   -8.4362 N   0  0  0  0  0  0  0  0  0  0  0  0
   44.4770   15.7802   -7.5457 C   0  0  0  0  0  0  0  0  0  0  0  0
   43.7033   16.8972   -7.5491 C   0  0  0  0  0  0  0  0  0  0  0  0
   43.7369   17.8280   -6.4933 C   0  0  0  0  0  0  0  0  0  0  0  0
   44.5745   17.6120   -5.4208 C   0  0  0  0  0  0  0  0  0  0  0  0
   45.3794   16.4805   -5.3863 C   0  0  0  0  0  0  0  0  0  0  0  0
   45.3021   15.6060   -6.4495 C   0  0  0  0  0  0  0  0  0  0  0  0
   45.9843   14.4538   -6.6643 C   0  0  0  0  0  0  0  0  0  0  0  0
   46.9281   13.6974   -5.9684 C   0  0  0  0  0  0  0  0  0  0  0  0
   47.5260   14.0190   -4.6468 C   0  0  0  0  0  0  0  0  0  0  0  0
   48.4306   12.9247   -4.3904 N   0  0  0  0  0  0  0  0  0  0  0  0
   48.3960   11.9801   -5.4831 C   0  0  0  0  0  0  0  0  0  0  0  0
   49.1072   10.9606   -5.4539 O   0  0  0  0  0  0  0  0  0  0  0  0
   47.4467   12.5063   -6.4382 C   0  0  0  0  0  0  0  0  0  0  0  0
   47.0272   12.0170   -7.6646 C   0  0  0  0  0  0  0  0  0  0  0  0
   47.3442   10.9475   -8.4523 C   0  0  0  0  0  0  0  0  0  0  0  0
   48.1740    9.8834   -8.3213 C   0  0  0  0  0  0  0  0  0  0  0  0
   48.2468    8.9563   -9.3676 C   0  0  0  0  0  0  0  0  0  0  0  0
   47.4952    9.1135  -10.5091 C   0  0  0  0  0  0  0  0  0  0  0  0
   46.6471   10.1952  -10.6499 C   0  0  0  0  0  0  0  0  0  0  0  0
   46.5901   11.1032   -9.5998 C   0  0  0  0  0  0  0  0  0  0  0  0
   45.8496   12.1923   -9.5379 N   0  0  0  0  0  0  0  0  0  0  0  0
   46.0993   12.7742   -8.3344 C   0  0  0  0  0  0  0  0  0  0  0  0
   45.5690   13.9795   -7.8470 C   0  0  0  0  0  0  0  0  0  0  0  0
   49.0089   12.8572   -3.5332 H   0  0  0  0  0  0  0  0  0  0  0  0
   42.5016   13.6145  -13.8638 C   0  0  0  0  0  0  0  0  0  0  0  0
   42.6309   13.8951  -12.4650 N   0  0  0  0  0  0  0  0  0  0  0  0
   42.0260   14.6403  -12.1291 H   0  0  0  0  0  0  0  0  0  0  0  0
   43.1705   16.0109  -11.2793 O   0  0  0  0  0  0  0  0  0  0  0  0
   43.6625   16.9934  -12.1028 C   0  0  0  0  0  0  0  0  0  0  0  0
 33 34  1  0  0  0
 34  1  1  0  0  0
  1  2  1  0  0  0
  2  3  1  0  0  0
  3  4  1  0  0  0
  4  5  1  0  0  0
  5  6  1  0  0  0
  5  7  1  0  0  0
  7 36  1  0  0  0
 36 37  1  0  0  0
  5  8  1  0  0  0
  8  9  1  0  0  0
  9 10  2  0  0  0
 10 11  1  0  0  0
 11 12  2  0  0  0
 12 13  1  0  0  0
 13 14  2  0  0  0
 14 15  1  0  0  0
 15 16  2  0  0  0
 16 17  1  0  0  0
 17 18  1  0  0  0
 18 19  1  0  0  0
 19 20  2  0  0  0
 19 21  1  0  0  0
 21 22  2  0  0  0
 22 23  1  0  0  0
 23 24  2  0  0  0
 24 25  1  0  0  0
 25 26  2  0  0  0
 26 27  1  0  0  0
 27 28  2  0  0  0
 28 29  1  0  0  0
 29 30  1  0  0  0
 30 31  2  0  0  0
  7  1  1  0  0  0
 31  8  1  0  0  0
 29  3  1  0  0  0
 14  9  1  0  0  0
 31 15  1  0  0  0
 21 16  1  0  0  0
 30 22  1  0  0  0
 28 23  1  0  0  0
 34 35  1  0  0  0
 18 32  1  0  0  0
M  END
> <minimizedAffinity>
-5.43998

> <CNNscore>
0.1895827651

> <CNNaffinity>
5.2198944092

> <CNN_VS>
0.9896020293

> <CNNaffinity_variance>
0.1007912159

$$$$
[H]c1c([H])c([H])c2c(c1[H])c1c3c(c4c5c([H])c([H])c([H])c([H])c5n5c4c1n2[C@]1([H])O[C@]5(C([H])([H])[H])[C@]([H])(OC([H])([H])[H])[C@]([H])(N([H])C([H])([H])[H])C1([H])[H])C([H])([H])N([H])C3=O


 37 44  0  0  0  0  0  0  0  0999 V2000
   44.6584   14.1383  -11.0708 C   0  0  0  0  0  0  0  0  0  0  0  0
   43.2665   14.2824  -10.3694 C   0  0  0  0  0  0  0  0  0  0  0  0
   43.5134   15.3325   -9.5132 C   0  0  0  0  0  0  0  0  0  0  0  0
   43.9036   16.3793  -10.3358 O   0  0  0  0  0  0  0  0  0  0  0  0
   45.3300   16.4424  -10.2410 C   0  0  0  0  0  0  0  0  0  0  0  0
   45.6543   17.3168  -11.4770 C   0  0  0  0  0  0  0  0  0  0  0  0
   45.7268   15.0603  -10.4256 C   0  0  0  0  0  0  0  0  0  0  0  0
   45.5844   17.1908   -9.0313 N   0  0  0  0  0  0  0  0  0  0  0  0
   46.6624   17.9792   -8.7849 C   0  0  0  0  0  0  0  0  0  0  0  0
   47.8204   18.1850   -9.4654 C   0  0  0  0  0  0  0  0  0  0  0  0
   48.8149   19.0622   -8.9924 C   0  0  0  0  0  0  0  0  0  0  0  0
   48.6208   19.7365   -7.8066 C   0  0  0  0  0  0  0  0  0  0  0  0
   47.4487   19.5481   -7.0855 C   0  0  0  0  0  0  0  0  0  0  0  0
   46.5124   18.6765   -7.6001 C   0  0  0  0  0  0  0  0  0  0  0  0
   45.3104   18.3093   -7.0904 C   0  0  0  0  0  0  0  0  0  0  0  0
   44.5471   18.6419   -5.9707 C   0  0  0  0  0  0  0  0  0  0  0  0
   44.9190   19.5933   -4.8918 C   0  0  0  0  0  0  0  0  0  0  0  0
   43.7926   19.5665   -3.9906 N   0  0  0  0  0  0  0  0  0  0  0  0
   42.7820   18.6569   -4.4796 C   0  0  0  0  0  0  0  0  0  0  0  0
   41.7266   18.4911   -3.8434 O   0  0  0  0  0  0  0  0  0  0  0  0
   43.2993   18.1080   -5.7130 C   0  0  0  0  0  0  0  0  0  0  0  0
   42.7562   17.1883   -6.5952 C   0  0  0  0  0  0  0  0  0  0  0  0
   41.6205   16.4315   -6.6445 C   0  0  0  0  0  0  0  0  0  0  0  0
   40.5204   16.3164   -5.8606 C   0  0  0  0  0  0  0  0  0  0  0  0
   39.5240   15.4060   -6.2321 C   0  0  0  0  0  0  0  0  0  0  0  0
   39.6498   14.6398   -7.3677 C   0  0  0  0  0  0  0  0  0  0  0  0
   40.7680   14.7516   -8.1718 C   0  0  0  0  0  0  0  0  0  0  0  0
   41.7447   15.6609   -7.7848 C   0  0  0  0  0  0  0  0  0  0  0  0
   42.8772   15.9160   -8.4100 N   0  0  0  0  0  0  0  0  0  0  0  0
   43.5210   16.8733   -7.6901 C   0  0  0  0  0  0  0  0  0  0  0  0
   44.7848   17.4267   -7.9513 C   0  0  0  0  0  0  0  0  0  0  0  0
   43.7475   20.1323   -3.1237 H   0  0  0  0  0  0  0  0  0  0  0  0
   43.3814   13.7533  -13.0061 C   0  0  0  0  0  0  0  0  0  0  0  0
   44.5706   14.3470  -12.4718 N   0  0  0  0  0  0  0  0  0  0  0  0
   45.4194   14.1187  -12.9830 H   0  0  0  0  0  0  0  0  0  0  0  0
   46.7242   15.0470  -11.4492 O   0  0  0  0  0  0  0  0  0  0  0  0
   47.9097   14.5045  -11.0177 C   0  0  0  0  0  0  0  0  0  0  0  0
 33 34  1  0  0  0
 34  1  1  0  0  0
  1  2  1  0  0  0
  2  3  1  0  0  0
  3  4  1  0  0  0
  4  5  1  0  0  0
  5  6  1  0  0  0
  5  7  1  0  0  0
  7 36  1  0  0  0
 36 37  1  0  0  0
  5  8  1  0  0  0
  8  9  1  0  0  0
  9 10  2  0  0  0
 10 11  1  0  0  0
 11 12  2  0  0  0
 12 13  1  0  0  0
 13 14  2  0  0  0
 14 15  1  0  0  0
 15 16  2  0  0  0
 16 17  1  0  0  0
 17 18  1  0  0  0
 18 19  1  0  0  0
 19 20  2  0  0  0
 19 21  1  0  0  0
 21 22  2  0  0  0
 22 23  1  0  0  0
 23 24  2  0  0  0
 24 25  1  0  0  0
 25 26  2  0  0  0
 26 27  1  0  0  0
 27 28  2  0  0  0
 28 29  1  0  0  0
 29 30  1  0  0  0
 30 31  2  0  0  0
  7  1  1  0  0  0
 31  8  1  0  0  0
 29  3  1  0  0  0
 14  9  1  0  0  0
 31 15  1  0  0  0
 21 16  1  0  0  0
 30 22  1  0  0  0
 28 23  1  0  0  0
 34 35  1  0  0  0
 18 32  1  0  0  0
M  END
> <minimizedAffinity>
-4.48055

> <CNNscore>
0.1892379373

> <CNNaffinity>
5.0761113167

> <CNN_VS>
0.9605928063

> <CNNaffinity_variance>
0.3171485066

$$$$
[H]c1c([H])c([H])c2c(c1[H])c1c3c(c4c5c([H])c([H])c([H])c([H])c5n5c4c1n2[C@]1([H])O[C@]5(C([H])([H])[H])[C@]([H])(OC([H])([H])[H])[C@]([H])(N([H])C([H])([H])[H])C1([H])[H])C([H])([H])N([H])C3=O


 37 44  0  0  0  0  0  0  0  0999 V2000
   34.7107   12.4167  -15.7408 C   0  0  0  0  0  0  0  0  0  0  0  0
   35.9586   11.8074  -16.4628 C   0  0  0  0  0  0  0  0  0  0  0  0
   36.9790   12.2981  -15.6787 C   0  0  0  0  0  0  0  0  0  0  0  0
   36.7087   11.8236  -14.4034 O   0  0  0  0  0  0  0  0  0  0  0  0
   36.1247   12.9196  -13.6923 C   0  0  0  0  0  0  0  0  0  0  0  0
   35.5007   12.1717  -12.4887 C   0  0  0  0  0  0  0  0  0  0  0  0
   35.1208   13.4063  -14.6181 C   0  0  0  0  0  0  0  0  0  0  0  0
   37.2502   13.7096  -13.2480 N   0  0  0  0  0  0  0  0  0  0  0  0
   37.3001   14.4820  -12.1320 C   0  0  0  0  0  0  0  0  0  0  0  0
   36.3514   14.8533  -11.2328 C   0  0  0  0  0  0  0  0  0  0  0  0
   36.6498   15.6887  -10.1395 C   0  0  0  0  0  0  0  0  0  0  0  0
   37.9364   16.1503   -9.9658 C   0  0  0  0  0  0  0  0  0  0  0  0
   38.9299   15.7904  -10.8674 C   0  0  0  0  0  0  0  0  0  0  0  0
   38.5762   14.9700  -11.9176 C   0  0  0  0  0  0  0  0  0  0  0  0
   39.3423   14.4938  -12.9302 C   0  0  0  0  0  0  0  0  0  0  0  0
   40.6858   14.5715  -13.2993 C   0  0  0  0  0  0  0  0  0  0  0  0
   41.7596   15.3186  -12.5949 C   0  0  0  0  0  0  0  0  0  0  0  0
   42.9415   15.0708  -13.3844 N   0  0  0  0  0  0  0  0  0  0  0  0
   42.6233   14.2207  -14.5085 C   0  0  0  0  0  0  0  0  0  0  0  0
   43.5102   13.8875  -15.3138 O   0  0  0  0  0  0  0  0  0  0  0  0
   41.2088   13.9384  -14.4102 C   0  0  0  0  0  0  0  0  0  0  0  0
   40.3756   13.1836  -15.2197 C   0  0  0  0  0  0  0  0  0  0  0  0
   40.5121   12.4874  -16.3866 C   0  0  0  0  0  0  0  0  0  0  0  0
   41.5528   12.2041  -17.2081 C   0  0  0  0  0  0  0  0  0  0  0  0
   41.3128   11.4397  -18.3560 C   0  0  0  0  0  0  0  0  0  0  0  0
   40.0503   10.9808  -18.6523 C   0  0  0  0  0  0  0  0  0  0  0  0
   38.9847   11.2651  -17.8198 C   0  0  0  0  0  0  0  0  0  0  0  0
   39.2448   12.0253  -16.6863 C   0  0  0  0  0  0  0  0  0  0  0  0
   38.3728   12.4021  -15.7718 N   0  0  0  0  0  0  0  0  0  0  0  0
   39.0582   13.1189  -14.8414 C   0  0  0  0  0  0  0  0  0  0  0  0
   38.5346   13.7571  -13.7056 C   0  0  0  0  0  0  0  0  0  0  0  0
   43.8715   15.4631  -13.1499 H   0  0  0  0  0  0  0  0  0  0  0  0
   33.2759   10.6504  -16.3289 C   0  0  0  0  0  0  0  0  0  0  0  0
   33.8369   11.4108  -15.2522 N   0  0  0  0  0  0  0  0  0  0  0  0
   33.1561   11.7414  -14.5730 H   0  0  0  0  0  0  0  0  0  0  0  0
   33.8920   13.4901  -13.8930 O   0  0  0  0  0  0  0  0  0  0  0  0
   33.6684   14.7463  -13.3856 C   0  0  0  0  0  0  0  0  0  0  0  0
 33 34  1  0  0  0
 34  1  1  0  0  0
  1  2  1  0  0  0
  2  3  1  0  0  0
  3  4  1  0  0  0
  4  5  1  0  0  0
  5  6  1  0  0  0
  5  7  1  0  0  0
  7 36  1  0  0  0
 36 37  1  0  0  0
  5  8  1  0  0  0
  8  9  1  0  0  0
  9 10  2  0  0  0
 10 11  1  0  0  0
 11 12  2  0  0  0
 12 13  1  0  0  0
 13 14  2  0  0  0
 14 15  1  0  0  0
 15 16  2  0  0  0
 16 17  1  0  0  0
 17 18  1  0  0  0
 18 19  1  0  0  0
 19 20  2  0  0  0
 19 21  1  0  0  0
 21 22  2  0  0  0
 22 23  1  0  0  0
 23 24  2  0  0  0
 24 25  1  0  0  0
 25 26  2  0  0  0
 26 27  1  0  0  0
 27 28  2  0  0  0
 28 29  1  0  0  0
 29 30  1  0  0  0
 30 31  2  0  0  0
  7  1  1  0  0  0
 31  8  1  0  0  0
 29  3  1  0  0  0
 14  9  1  0  0  0
 31 15  1  0  0  0
 21 16  1  0  0  0
 30 22  1  0  0  0
 28 23  1  0  0  0
 34 35  1  0  0  0
 18 32  1  0  0  0
M  END
> <minimizedAffinity>
-9.94564

> <CNNscore>
0.1658798456

> <CNNaffinity>
6.5279655457

> <CNN_VS>
1.0828579664

> <CNNaffinity_variance>
0.3203697801

$$$$
[H]c1c([H])c([H])c2c(c1[H])c1c3c(c4c5c([H])c([H])c([H])c([H])c5n5c4c1n2[C@]1([H])O[C@]5(C([H])([H])[H])[C@]([H])(OC([H])([H])[H])[C@]([H])(N([H])C([H])([H])[H])C1([H])[H])C([H])([H])N([H])C3=O


 37 44  0  0  0  0  0  0  0  0999 V2000
   40.8668   13.5689  -15.9792 C   0  0  0  0  0  0  0  0  0  0  0  0
   40.8787   14.2350  -14.5628 C   0  0  0  0  0  0  0  0  0  0  0  0
   39.5670   14.0603  -14.1814 C   0  0  0  0  0  0  0  0  0  0  0  0
   39.3642   12.6884  -14.2187 O   0  0  0  0  0  0  0  0  0  0  0  0
   38.6633   12.4281  -15.4388 C   0  0  0  0  0  0  0  0  0  0  0  0
   38.8763   10.8996  -15.5635 C   0  0  0  0  0  0  0  0  0  0  0  0
   39.4319   13.1722  -16.4172 C   0  0  0  0  0  0  0  0  0  0  0  0
   37.2787   12.7063  -15.1327 N   0  0  0  0  0  0  0  0  0  0  0  0
   36.1951   12.1215  -15.7058 C   0  0  0  0  0  0  0  0  0  0  0  0
   36.0626   11.2754  -16.7608 C   0  0  0  0  0  0  0  0  0  0  0  0
   34.8046   10.8042  -17.1823 C   0  0  0  0  0  0  0  0  0  0  0  0
   33.6679   11.2057  -16.5150 C   0  0  0  0  0  0  0  0  0  0  0  0
   33.7681   12.0708  -15.4330 C   0  0  0  0  0  0  0  0  0  0  0  0
   35.0272   12.4977  -15.0677 C   0  0  0  0  0  0  0  0  0  0  0  0
   35.3913   13.3444  -14.0729 C   0  0  0  0  0  0  0  0  0  0  0  0
   34.7387   14.0480  -13.0598 C   0  0  0  0  0  0  0  0  0  0  0  0
   33.2773   14.0718  -12.7931 C   0  0  0  0  0  0  0  0  0  0  0  0
   33.1387   14.9423  -11.6509 N   0  0  0  0  0  0  0  0  0  0  0  0
   34.4334   15.4279  -11.2317 C   0  0  0  0  0  0  0  0  0  0  0  0
   34.5305   16.1952  -10.2581 O   0  0  0  0  0  0  0  0  0  0  0  0
   35.3944   14.8428  -12.1396 C   0  0  0  0  0  0  0  0  0  0  0  0
   36.7724   14.9683  -12.2070 C   0  0  0  0  0  0  0  0  0  0  0  0
   37.7247   15.6802  -11.5352 C   0  0  0  0  0  0  0  0  0  0  0  0
   37.7082   16.5246  -10.4746 C   0  0  0  0  0  0  0  0  0  0  0  0
   38.9157   17.0899  -10.0481 C   0  0  0  0  0  0  0  0  0  0  0  0
   40.0997   16.8002  -10.6858 C   0  0  0  0  0  0  0  0  0  0  0  0
   40.1246   15.9405  -11.7673 C   0  0  0  0  0  0  0  0  0  0  0  0
   38.9153   15.3907  -12.1742 C   0  0  0  0  0  0  0  0  0  0  0  0
   38.7261   14.5544  -13.1758 N   0  0  0  0  0  0  0  0  0  0  0  0
   37.3968   14.2697  -13.2096 C   0  0  0  0  0  0  0  0  0  0  0  0
   36.7254   13.4558  -14.1361 C   0  0  0  0  0  0  0  0  0  0  0  0
   32.2246   15.1665  -11.2175 H   0  0  0  0  0  0  0  0  0  0  0  0
   43.0907   12.8569  -15.7118 C   0  0  0  0  0  0  0  0  0  0  0  0
   41.7559   12.4653  -16.0539 N   0  0  0  0  0  0  0  0  0  0  0  0
   41.6841   11.9273  -16.9138 H   0  0  0  0  0  0  0  0  0  0  0  0
   39.7331   12.2696  -17.4836 O   0  0  0  0  0  0  0  0  0  0  0  0
   40.0448   12.9233  -18.6503 C   0  0  0  0  0  0  0  0  0  0  0  0
 33 34  1  0  0  0
 34  1  1  0  0  0
  1  2  1  0  0  0
  2  3  1  0  0  0
  3  4  1  0  0  0
  4  5  1  0  0  0
  5  6  1  0  0  0
  5  7  1  0  0  0
  7 36  1  0  0  0
 36 37  1  0  0  0
  5  8  1  0  0  0
  8  9  1  0  0  0
  9 10  2  0  0  0
 10 11  1  0  0  0
 11 12  2  0  0  0
 12 13  1  0  0  0
 13 14  2  0  0  0
 14 15  1  0  0  0
 15 16  2  0  0  0
 16 17  1  0  0  0
 17 18  1  0  0  0
 18 19  1  0  0  0
 19 20  2  0  0  0
 19 21  1  0  0  0
 21 22  2  0  0  0
 22 23  1  0  0  0
 23 24  2  0  0  0
 24 25  1  0  0  0
 25 26  2  0  0  0
 26 27  1  0  0  0
 27 28  2  0  0  0
 28 29  1  0  0  0
 29 30  1  0  0  0
 30 31  2  0  0  0
  7  1  1  0  0  0
 31  8  1  0  0  0
 29  3  1  0  0  0
 14  9  1  0  0  0
 31 15  1  0  0  0
 21 16  1  0  0  0
 30 22  1  0  0  0
 28 23  1  0  0  0
 34 35  1  0  0  0
 18 32  1  0  0  0
M  END
> <minimizedAffinity>
-10.59972

> <CNNscore>
0.1482236087

> <CNNaffinity>
6.5995507240

> <CNN_VS>
0.9782091975

> <CNNaffinity_variance>
0.1473478973

$$$$
[H]c1c([H])c([H])c2c(c1[H])c1c3c(c4c5c([H])c([H])c([H])c([H])c5n5c4c1n2[C@]1([H])O[C@]5(C([H])([H])[H])[C@]([H])(OC([H])([H])[H])[C@]([H])(N([H])C([H])([H])[H])C1([H])[H])C([H])([H])N([H])C3=O


 37 44  0  0  0  0  0  0  0  0999 V2000
   44.3839   16.4600  -12.3031 C   0  0  0  0  0  0  0  0  0  0  0  0
   45.7543   16.9462  -11.7239 C   0  0  0  0  0  0  0  0  0  0  0  0
   45.4539   17.0346  -10.3827 C   0  0  0  0  0  0  0  0  0  0  0  0
   45.0479   15.7577  -10.0231 O   0  0  0  0  0  0  0  0  0  0  0  0
   43.6184   15.7997   -9.9735 C   0  0  0  0  0  0  0  0  0  0  0  0
   43.2931   14.2861   -9.9913 C   0  0  0  0  0  0  0  0  0  0  0  0
   43.2715   16.4516  -11.2211 C   0  0  0  0  0  0  0  0  0  0  0  0
   43.3127   16.3511   -8.6733 N   0  0  0  0  0  0  0  0  0  0  0  0
   42.2040   16.0955   -7.9317 C   0  0  0  0  0  0  0  0  0  0  0  0
   41.0553   15.4229   -8.2047 C   0  0  0  0  0  0  0  0  0  0  0  0
   40.0222   15.3003   -7.2561 C   0  0  0  0  0  0  0  0  0  0  0  0
   40.1676   15.8748   -6.0122 C   0  0  0  0  0  0  0  0  0  0  0  0
   41.3289   16.5702   -5.7008 C   0  0  0  0  0  0  0  0  0  0  0  0
   42.3047   16.6558   -6.6713 C   0  0  0  0  0  0  0  0  0  0  0  0
   43.5064   17.2827   -6.6269 C   0  0  0  0  0  0  0  0  0  0  0  0
   44.2333   18.0011   -5.6767 C   0  0  0  0  0  0  0  0  0  0  0  0
   43.8064   18.3282   -4.2918 C   0  0  0  0  0  0  0  0  0  0  0  0
   44.9127   19.0766   -3.7464 N   0  0  0  0  0  0  0  0  0  0  0  0
   45.9633   19.2051   -4.7299 C   0  0  0  0  0  0  0  0  0  0  0  0
   47.0093   19.8184   -4.4542 O   0  0  0  0  0  0  0  0  0  0  0  0
   45.4919   18.5194   -5.9123 C   0  0  0  0  0  0  0  0  0  0  0  0
   46.0846   18.3339   -7.1507 C   0  0  0  0  0  0  0  0  0  0  0  0
   47.2453   18.7317   -7.7500 C   0  0  0  0  0  0  0  0  0  0  0  0
   48.3310   19.4359   -7.3455 C   0  0  0  0  0  0  0  0  0  0  0  0
   49.3648   19.6605   -8.2622 C   0  0  0  0  0  0  0  0  0  0  0  0
   49.2896   19.1802   -9.5491 C   0  0  0  0  0  0  0  0  0  0  0  0
   48.1865   18.4615   -9.9687 C   0  0  0  0  0  0  0  0  0  0  0  0
   47.1720   18.2501   -9.0432 C   0  0  0  0  0  0  0  0  0  0  0  0
   46.0459   17.5941   -9.2430 N   0  0  0  0  0  0  0  0  0  0  0  0
   45.3550   17.6257   -8.0721 C   0  0  0  0  0  0  0  0  0  0  0  0
   44.0798   17.0931   -7.8234 C   0  0  0  0  0  0  0  0  0  0  0  0
   44.9198   19.4545   -2.7816 H   0  0  0  0  0  0  0  0  0  0  0  0
   45.4207   15.2551  -14.0345 C   0  0  0  0  0  0  0  0  0  0  0  0
   44.4959   15.1977  -12.9420 N   0  0  0  0  0  0  0  0  0  0  0  0
   43.6051   14.7629  -13.1690 H   0  0  0  0  0  0  0  0  0  0  0  0
   42.2981   15.6267  -11.8650 O   0  0  0  0  0  0  0  0  0  0  0  0
   41.1832   16.3323  -12.2453 C   0  0  0  0  0  0  0  0  0  0  0  0
 33 34  1  0  0  0
 34  1  1  0  0  0
  1  2  1  0  0  0
  2  3  1  0  0  0
  3  4  1  0  0  0
  4  5  1  0  0  0
  5  6  1  0  0  0
  5  7  1  0  0  0
  7 36  1  0  0  0
 36 37  1  0  0  0
  5  8  1  0  0  0
  8  9  1  0  0  0
  9 10  2  0  0  0
 10 11  1  0  0  0
 11 12  2  0  0  0
 12 13  1  0  0  0
 13 14  2  0  0  0
 14 15  1  0  0  0
 15 16  2  0  0  0
 16 17  1  0  0  0
 17 18  1  0  0  0
 18 19  1  0  0  0
 19 20  2  0  0  0
 19 21  1  0  0  0
 21 22  2  0  0  0
 22 23  1  0  0  0
 23 24  2  0  0  0
 24 25  1  0  0  0
 25 26  2  0  0  0
 26 27  1  0  0  0
 27 28  2  0  0  0
 28 29  1  0  0  0
 29 30  1  0  0  0
 30 31  2  0  0  0
  7  1  1  0  0  0
 31  8  1  0  0  0
 29  3  1  0  0  0
 14  9  1  0  0  0
 31 15  1  0  0  0
 21 16  1  0  0  0
 30 22  1  0  0  0
 28 23  1  0  0  0
 34 35  1  0  0  0
 18 32  1  0  0  0
M  END
> <minimizedAffinity>
-4.54657

> <CNNscore>
0.1480215937

> <CNNaffinity>
5.0459299088

> <CNN_VS>
0.7469065785

> <CNNaffinity_variance>
0.4068617821

$$$$
[H]c1c([H])c([N+](=O)[O-])c([H])c([H])c1N1C([H])([H])C([H])([H])N(C(=O)N([H])C2([H])C([H])([H])C([H])([H])C([H])([H])C([H])([H])C([H])([H])C2([H])[H])C([H])([H])C1([H])[H]


 26 28  0  0  0  0  0  0  0  0999 V2000
   44.9813   13.3337   -7.0385 N   0  0  0  0  0  0  0  0  0  0  0  0
   45.2435   13.0715   -8.4325 C   0  0  0  0  0  0  0  0  0  0  0  0
   45.6875   14.2174   -9.2548 C   0  0  0  0  0  0  0  0  0  0  0  0
   45.3639   15.5176   -8.7157 N   0  0  0  0  0  0  0  0  0  0  0  0
   44.9040   15.6960   -7.3531 C   0  0  0  0  0  0  0  0  0  0  0  0
   45.4314   14.5565   -6.4739 C   0  0  0  0  0  0  0  0  0  0  0  0
   45.5071   16.6481   -9.5440 C   0  0  0  0  0  0  0  0  0  0  0  0
   45.2173   17.7804   -9.0710 O   0  0  0  0  0  0  0  0  0  0  0  0
   45.9621   16.5855  -10.8902 N   0  0  0  0  0  0  0  0  0  0  0  0
   46.2051   15.6533  -11.2858 H   0  0  0  0  0  0  0  0  0  0  0  0
   46.0930   17.7760  -11.7050 C   0  0  0  0  0  0  0  0  0  0  0  0
   47.4243   17.7843  -12.4117 C   0  0  0  0  0  0  0  0  0  0  0  0
   47.3523   18.3202  -13.8034 C   0  0  0  0  0  0  0  0  0  0  0  0
   46.7534   17.3817  -14.7999 C   0  0  0  0  0  0  0  0  0  0  0  0
   46.0976   16.1753  -14.1789 C   0  0  0  0  0  0  0  0  0  0  0  0
   44.8388   16.5055  -13.4302 C   0  0  0  0  0  0  0  0  0  0  0  0
   44.9323   17.7909  -12.6746 C   0  0  0  0  0  0  0  0  0  0  0  0
   42.8636   10.3346   -4.8781 C   0  0  0  0  0  0  0  0  0  0  0  0
   43.6870    9.9950   -5.9269 C   0  0  0  0  0  0  0  0  0  0  0  0
   44.3743   10.9696   -6.6257 C   0  0  0  0  0  0  0  0  0  0  0  0
   44.2764   12.3105   -6.3182 C   0  0  0  0  0  0  0  0  0  0  0  0
   43.4391   12.6133   -5.2578 C   0  0  0  0  0  0  0  0  0  0  0  0
   42.7445   11.6630   -4.5468 C   0  0  0  0  0  0  0  0  0  0  0  0
   42.6365    8.0989   -4.0164 O   0  0  0  0  0  0  0  0  0  0  0  0
   42.1451    9.3640   -4.1409 N   0  0  0  0  0  0  0  0  0  0  0  0
   41.0745    9.6603   -3.6106 O   0  0  0  0  0  0  0  0  0  0  0  0
 24 25  1  0  0  0
 25 26  2  0  0  0
 25 18  1  0  0  0
 18 19  2  0  0  0
 19 20  1  0  0  0
 20 21  2  0  0  0
 21 22  1  0  0  0
 22 23  2  0  0  0
 21  1  1  0  0  0
  1  2  1  0  0  0
  2  3  1  0  0  0
  3  4  1  0  0  0
  4  5  1  0  0  0
  5  6  1  0  0  0
  4  7  1  0  0  0
  7  8  2  0  0  0
  7  9  1  0  0  0
  9 11  1  0  0  0
 11 12  1  0  0  0
 12 13  1  0  0  0
 13 14  1  0  0  0
 14 15  1  0  0  0
 15 16  1  0  0  0
 16 17  1  0  0  0
 23 18  1  0  0  0
  6  1  1  0  0  0
 17 11  1  0  0  0
  9 10  1  0  0  0
M  CHG 1  24  -1
M  CHG 1  25   1
M  END
> <minimizedAffinity>
-5.10405

> <CNNscore>
0.3985705078

> <CNNaffinity>
4.1893715858

> <CNN_VS>
1.6697599888

> <CNNaffinity_variance>
0.1739012897

$$$$
[H]c1c([H])c([N+](=O)[O-])c([H])c([H])c1N1C([H])([H])C([H])([H])N(C(=O)N([H])C2([H])C([H])([H])C([H])([H])C([H])([H])C([H])([H])C([H])([H])C2([H])[H])C([H])([H])C1([H])[H]


 26 28  0  0  0  0  0  0  0  0999 V2000
   39.8605   14.0653   -6.5838 N   0  0  0  0  0  0  0  0  0  0  0  0
   38.6514   13.2844   -6.6777 C   0  0  0  0  0  0  0  0  0  0  0  0
   37.3902   14.0294   -6.8793 C   0  0  0  0  0  0  0  0  0  0  0  0
   37.4351   15.4213   -6.4964 N   0  0  0  0  0  0  0  0  0  0  0  0
   38.6813   16.1042   -6.2125 C   0  0  0  0  0  0  0  0  0  0  0  0
   39.8279   15.4302   -6.9746 C   0  0  0  0  0  0  0  0  0  0  0  0
   36.2251   16.1364   -6.4026 C   0  0  0  0  0  0  0  0  0  0  0  0
   36.2688   17.3497   -6.0618 O   0  0  0  0  0  0  0  0  0  0  0  0
   34.9501   15.5660   -6.6716 N   0  0  0  0  0  0  0  0  0  0  0  0
   34.9078   14.5650   -6.9556 H   0  0  0  0  0  0  0  0  0  0  0  0
   33.7315   16.3411   -6.5611 C   0  0  0  0  0  0  0  0  0  0  0  0
   32.8388   16.0871   -7.7488 C   0  0  0  0  0  0  0  0  0  0  0  0
   31.3886   16.0309   -7.3979 C   0  0  0  0  0  0  0  0  0  0  0  0
   30.9618   14.7685   -6.7222 C   0  0  0  0  0  0  0  0  0  0  0  0
   32.1104   13.8959   -6.2859 C   0  0  0  0  0  0  0  0  0  0  0  0
   32.8973   14.4785   -5.1475 C   0  0  0  0  0  0  0  0  0  0  0  0
   33.0682   15.9586   -5.2568 C   0  0  0  0  0  0  0  0  0  0  0  0
   43.3338   12.0791   -5.1218 C   0  0  0  0  0  0  0  0  0  0  0  0
   42.3008   11.3648   -5.6838 C   0  0  0  0  0  0  0  0  0  0  0  0
   41.1753   12.0114   -6.1588 C   0  0  0  0  0  0  0  0  0  0  0  0
   41.0262   13.3812   -6.0982 C   0  0  0  0  0  0  0  0  0  0  0  0
   42.0855   14.0654   -5.5265 C   0  0  0  0  0  0  0  0  0  0  0  0
   43.2156   13.4461   -5.0466 C   0  0  0  0  0  0  0  0  0  0  0  0
   45.1034   11.9223   -3.4981 O   0  0  0  0  0  0  0  0  0  0  0  0
   44.5003   11.4506   -4.6255 N   0  0  0  0  0  0  0  0  0  0  0  0
   44.9728   10.4765   -5.2113 O   0  0  0  0  0  0  0  0  0  0  0  0
 24 25  1  0  0  0
 25 26  2  0  0  0
 25 18  1  0  0  0
 18 19  2  0  0  0
 19 20  1  0  0  0
 20 21  2  0  0  0
 21 22  1  0  0  0
 22 23  2  0  0  0
 21  1  1  0  0  0
  1  2  1  0  0  0
  2  3  1  0  0  0
  3  4  1  0  0  0
  4  5  1  0  0  0
  5  6  1  0  0  0
  4  7  1  0  0  0
  7  8  2  0  0  0
  7  9  1  0  0  0
  9 11  1  0  0  0
 11 12  1  0  0  0
 12 13  1  0  0  0
 13 14  1  0  0  0
 14 15  1  0  0  0
 15 16  1  0  0  0
 16 17  1  0  0  0
 23 18  1  0  0  0
  6  1  1  0  0  0
 17 11  1  0  0  0
  9 10  1  0  0  0
M  CHG 1  24  -1
M  CHG 1  25   1
M  END
> <minimizedAffinity>
-5.13189

> <CNNscore>
0.3658472896

> <CNNaffinity>
4.3226609230

> <CNN_VS>
1.5814337730

> <CNNaffinity_variance>
0.1807208508

$$$$
[H]c1c([H])c([N+](=O)[O-])c([H])c([H])c1N1C([H])([H])C([H])([H])N(C(=O)N([H])C2([H])C([H])([H])C([H])([H])C([H])([H])C([H])([H])C([H])([H])C2([H])[H])C([H])([H])C1([H])[H]


 26 28  0  0  0  0  0  0  0  0999 V2000
   36.4774   16.3381   -7.4420 N   0  0  0  0  0  0  0  0  0  0  0  0
   36.8785   15.3777   -6.4432 C   0  0  0  0  0  0  0  0  0  0  0  0
   38.3315   15.1811   -6.2524 C   0  0  0  0  0  0  0  0  0  0  0  0
   39.1549   15.5939   -7.3647 N   0  0  0  0  0  0  0  0  0  0  0  0
   38.6357   16.3965   -8.4539 C   0  0  0  0  0  0  0  0  0  0  0  0
   37.4493   17.2334   -7.9622 C   0  0  0  0  0  0  0  0  0  0  0  0
   40.5090   15.2061   -7.3846 C   0  0  0  0  0  0  0  0  0  0  0  0
   41.2225   15.5635   -8.3609 O   0  0  0  0  0  0  0  0  0  0  0  0
   41.1212   14.4304   -6.3614 N   0  0  0  0  0  0  0  0  0  0  0  0
   40.5377   14.1341   -5.5514 H   0  0  0  0  0  0  0  0  0  0  0  0
   42.5186   14.0544   -6.4251 C   0  0  0  0  0  0  0  0  0  0  0  0
   43.1126   14.0066   -5.0406 C   0  0  0  0  0  0  0  0  0  0  0  0
   44.0811   12.8863   -4.8504 C   0  0  0  0  0  0  0  0  0  0  0  0
   43.4511   11.5399   -4.6994 C   0  0  0  0  0  0  0  0  0  0  0  0
   41.9795   11.5191   -5.0235 C   0  0  0  0  0  0  0  0  0  0  0  0
   41.6922   11.7141   -6.4843 C   0  0  0  0  0  0  0  0  0  0  0  0
   42.5959   12.7162   -7.1255 C   0  0  0  0  0  0  0  0  0  0  0  0
   32.3661   16.2898   -8.5562 C   0  0  0  0  0  0  0  0  0  0  0  0
   33.3428   15.9411   -9.4605 C   0  0  0  0  0  0  0  0  0  0  0  0
   34.6761   15.9560   -9.0965 C   0  0  0  0  0  0  0  0  0  0  0  0
   35.0954   16.3139   -7.8322 C   0  0  0  0  0  0  0  0  0  0  0  0
   34.0849   16.6582   -6.9506 C   0  0  0  0  0  0  0  0  0  0  0  0
   32.7517   16.6515   -7.2877 C   0  0  0  0  0  0  0  0  0  0  0  0
   30.5670   15.6451  -10.0191 O   0  0  0  0  0  0  0  0  0  0  0  0
   30.9921   16.2858   -8.8939 N   0  0  0  0  0  0  0  0  0  0  0  0
   30.1780   16.8613   -8.1720 O   0  0  0  0  0  0  0  0  0  0  0  0
 24 25  1  0  0  0
 25 26  2  0  0  0
 25 18  1  0  0  0
 18 19  2  0  0  0
 19 20  1  0  0  0
 20 21  2  0  0  0
 21 22  1  0  0  0
 22 23  2  0  0  0
 21  1  1  0  0  0
  1  2  1  0  0  0
  2  3  1  0  0  0
  3  4  1  0  0  0
  4  5  1  0  0  0
  5  6  1  0  0  0
  4  7  1  0  0  0
  7  8  2  0  0  0
  7  9  1  0  0  0
  9 11  1  0  0  0
 11 12  1  0  0  0
 12 13  1  0  0  0
 13 14  1  0  0  0
 14 15  1  0  0  0
 15 16  1  0  0  0
 16 17  1  0  0  0
 23 18  1  0  0  0
  6  1  1  0  0  0
 17 11  1  0  0  0
  9 10  1  0  0  0
M  CHG 1  24  -1
M  CHG 1  25   1
M  END
> <minimizedAffinity>
-5.28773

> <CNNscore>
0.3575521111

> <CNNaffinity>
4.4345154762

> <CNN_VS>
1.5855703354

> <CNNaffinity_variance>
0.2856752276

$$$$
[H]c1c([H])c([N+](=O)[O-])c([H])c([H])c1N1C([H])([H])C([H])([H])N(C(=O)N([H])C2([H])C([H])([H])C([H])([H])C([H])([H])C([H])([H])C([H])([H])C2([H])[H])C([H])([H])C1([H])[H]


 26 28  0  0  0  0  0  0  0  0999 V2000
   43.6577   14.1293  -13.4157 N   0  0  0  0  0  0  0  0  0  0  0  0
   42.9822   14.5184  -12.2021 C   0  0  0  0  0  0  0  0  0  0  0  0
   43.8316   14.7794  -11.0202 C   0  0  0  0  0  0  0  0  0  0  0  0
   45.1444   14.1793  -11.0671 N   0  0  0  0  0  0  0  0  0  0  0  0
   45.6924   13.6147  -12.2841 C   0  0  0  0  0  0  0  0  0  0  0  0
   45.0648   14.3004  -13.5029 C   0  0  0  0  0  0  0  0  0  0  0  0
   45.9168   14.1490   -9.8894 C   0  0  0  0  0  0  0  0  0  0  0  0
   47.0598   13.6183   -9.9336 O   0  0  0  0  0  0  0  0  0  0  0  0
   45.4795   14.6855   -8.6467 N   0  0  0  0  0  0  0  0  0  0  0  0
   44.5373   15.1270   -8.6044 H   0  0  0  0  0  0  0  0  0  0  0  0
   46.3091   14.6307   -7.4606 C   0  0  0  0  0  0  0  0  0  0  0  0
   46.2019   15.9191   -6.6856 C   0  0  0  0  0  0  0  0  0  0  0  0
   46.1974   15.7209   -5.2057 C   0  0  0  0  0  0  0  0  0  0  0  0
   44.9098   15.2028   -4.6525 C   0  0  0  0  0  0  0  0  0  0  0  0
   43.9427   14.7309   -5.7076 C   0  0  0  0  0  0  0  0  0  0  0  0
   44.3867   13.4736   -6.3979 C   0  0  0  0  0  0  0  0  0  0  0  0
   45.8592   13.4370   -6.6480 C   0  0  0  0  0  0  0  0  0  0  0  0
   41.1692   12.5679  -16.5005 C   0  0  0  0  0  0  0  0  0  0  0  0
   42.5379   12.4472  -16.5740 C   0  0  0  0  0  0  0  0  0  0  0  0
   43.3434   12.9533  -15.5713 C   0  0  0  0  0  0  0  0  0  0  0  0
   42.8323   13.5949  -14.4625 C   0  0  0  0  0  0  0  0  0  0  0  0
   41.4520   13.6972  -14.4239 C   0  0  0  0  0  0  0  0  0  0  0  0
   40.6287   13.2024  -15.4080 C   0  0  0  0  0  0  0  0  0  0  0  0
   40.8114   11.7705  -18.7430 O   0  0  0  0  0  0  0  0  0  0  0  0
   40.3143   12.0620  -17.5080 N   0  0  0  0  0  0  0  0  0  0  0  0
   39.1195   11.8843  -17.2710 O   0  0  0  0  0  0  0  0  0  0  0  0
 24 25  1  0  0  0
 25 26  2  0  0  0
 25 18  1  0  0  0
 18 19  2  0  0  0
 19 20  1  0  0  0
 20 21  2  0  0  0
 21 22  1  0  0  0
 22 23  2  0  0  0
 21  1  1  0  0  0
  1  2  1  0  0  0
  2  3  1  0  0  0
  3  4  1  0  0  0
  4  5  1  0  0  0
  5  6  1  0  0  0
  4  7  1  0  0  0
  7  8  2  0  0  0
  7  9  1  0  0  0
  9 11  1  0  0  0
 11 12  1  0  0  0
 12 13  1  0  0  0
 13 14  1  0  0  0
 14 15  1  0  0  0
 15 16  1  0  0  0
 16 17  1  0  0  0
 23 18  1  0  0  0
  6  1  1  0  0  0
 17 11  1  0  0  0
  9 10  1  0  0  0
M  CHG 1  24  -1
M  CHG 1  25   1
M  END
> <minimizedAffinity>
-5.42193

> <CNNscore>
0.2781383991

> <CNNaffinity>
4.9411530495

> <CNN_VS>
1.3743244410

> <CNNaffinity_variance>
0.0752282888

$$$$
[H]c1c([H])c([N+](=O)[O-])c([H])c([H])c1N1C([H])([H])C([H])([H])N(C(=O)N([H])C2([H])C([H])([H])C([H])([H])C([H])([H])C([H])([H])C([H])([H])C2([H])[H])C([H])([H])C1([H])[H]


 26 28  0  0  0  0  0  0  0  0999 V2000
   36.2807   14.5627  -13.4977 N   0  0  0  0  0  0  0  0  0  0  0  0
   35.3824   15.3449  -12.6841 C   0  0  0  0  0  0  0  0  0  0  0  0
   35.9950   16.1844  -11.6323 C   0  0  0  0  0  0  0  0  0  0  0  0
   37.3234   15.7860  -11.2295 N   0  0  0  0  0  0  0  0  0  0  0  0
   38.1057   14.8295  -11.9865 C   0  0  0  0  0  0  0  0  0  0  0  0
   37.6707   14.8506  -13.4562 C   0  0  0  0  0  0  0  0  0  0  0  0
   37.8755   16.3531  -10.0641 C   0  0  0  0  0  0  0  0  0  0  0  0
   39.0332   15.9975   -9.7128 O   0  0  0  0  0  0  0  0  0  0  0  0
   37.1989   17.3088   -9.2566 N   0  0  0  0  0  0  0  0  0  0  0  0
   36.2434   17.6081   -9.5428 H   0  0  0  0  0  0  0  0  0  0  0  0
   37.8069   17.8645   -8.0651 C   0  0  0  0  0  0  0  0  0  0  0  0
   37.7305   19.3697   -8.0903 C   0  0  0  0  0  0  0  0  0  0  0  0
   37.4561   19.9709   -6.7515 C   0  0  0  0  0  0  0  0  0  0  0  0
   36.0410   19.8398   -6.2903 C   0  0  0  0  0  0  0  0  0  0  0  0
   35.2124   18.9053   -7.1336 C   0  0  0  0  0  0  0  0  0  0  0  0
   35.6081   17.4647   -6.9840 C   0  0  0  0  0  0  0  0  0  0  0  0
   37.0860   17.2766   -6.8725 C   0  0  0  0  0  0  0  0  0  0  0  0
   34.5486   11.5116  -15.9137 C   0  0  0  0  0  0  0  0  0  0  0  0
   33.7999   12.1614  -14.9597 C   0  0  0  0  0  0  0  0  0  0  0  0
   34.3635   13.1521  -14.1778 C   0  0  0  0  0  0  0  0  0  0  0  0
   35.6813   13.5382  -14.3063 C   0  0  0  0  0  0  0  0  0  0  0  0
   36.4025   12.8622  -15.2759 C   0  0  0  0  0  0  0  0  0  0  0  0
   35.8655   11.8734  -16.0665 C   0  0  0  0  0  0  0  0  0  0  0  0
   34.5546    9.2461  -16.7262 O   0  0  0  0  0  0  0  0  0  0  0  0
   34.0049   10.4931  -16.7317 N   0  0  0  0  0  0  0  0  0  0  0  0
   33.0341   10.7316  -17.4500 O   0  0  0  0  0  0  0  0  0  0  0  0
 24 25  1  0  0  0
 25 26  2  0  0  0
 25 18  1  0  0  0
 18 19  2  0  0  0
 19 20  1  0  0  0
 20 21  2  0  0  0
 21 22  1  0  0  0
 22 23  2  0  0  0
 21  1  1  0  0  0
  1  2  1  0  0  0
  2  3  1  0  0  0
  3  4  1  0  0  0
  4  5  1  0  0  0
  5  6  1  0  0  0
  4  7  1  0  0  0
  7  8  2  0  0  0
  7  9  1  0  0  0
  9 11  1  0  0  0
 11 12  1  0  0  0
 12 13  1  0  0  0
 13 14  1  0  0  0
 14 15  1  0  0  0
 15 16  1  0  0  0
 16 17  1  0  0  0
 23 18  1  0  0  0
  6  1  1  0  0  0
 17 11  1  0  0  0
  9 10  1  0  0  0
M  CHG 1  24  -1
M  CHG 1  25   1
M  END
> <minimizedAffinity>
-7.29400

> <CNNscore>
0.2460900843

> <CNNaffinity>
5.4930796623

> <CNN_VS>
1.3517924547

> <CNNaffinity_variance>
0.1278231144

$$$$
[H]c1c([H])c([N+](=O)[O-])c([H])c([H])c1N1C([H])([H])C([H])([H])N(C(=O)N([H])C2([H])C([H])([H])C([H])([H])C([H])([H])C([H])([H])C([H])([H])C2([H])[H])C([H])([H])C1([H])[H]


 26 28  0  0  0  0  0  0  0  0999 V2000
   34.8180   14.7943  -12.5856 N   0  0  0  0  0  0  0  0  0  0  0  0
   33.4365   15.0002  -12.2255 C   0  0  0  0  0  0  0  0  0  0  0  0
   33.1771   15.7410  -10.9724 C   0  0  0  0  0  0  0  0  0  0  0  0
   34.2763   15.7604  -10.0357 N   0  0  0  0  0  0  0  0  0  0  0  0
   35.6136   15.3424  -10.4057 C   0  0  0  0  0  0  0  0  0  0  0  0
   35.8212   15.5399  -11.9115 C   0  0  0  0  0  0  0  0  0  0  0  0
   34.0371   16.2069   -8.7212 C   0  0  0  0  0  0  0  0  0  0  0  0
   34.9983   16.2161   -7.9052 O   0  0  0  0  0  0  0  0  0  0  0  0
   32.7671   16.6503   -8.2589 N   0  0  0  0  0  0  0  0  0  0  0  0
   31.9698   16.6471   -8.9288 H   0  0  0  0  0  0  0  0  0  0  0  0
   32.5683   17.1004   -6.8965 C   0  0  0  0  0  0  0  0  0  0  0  0
   31.5027   18.1653   -6.8461 C   0  0  0  0  0  0  0  0  0  0  0  0
   30.6188   18.0618   -5.6471 C   0  0  0  0  0  0  0  0  0  0  0  0
   29.6105   16.9612   -5.7122 C   0  0  0  0  0  0  0  0  0  0  0  0
   29.8357   15.9990   -6.8501 C   0  0  0  0  0  0  0  0  0  0  0  0
   31.0567   15.1441   -6.6696 C   0  0  0  0  0  0  0  0  0  0  0  0
   32.2037   15.8888   -6.0680 C   0  0  0  0  0  0  0  0  0  0  0  0
   35.5198   11.9341  -15.6635 C   0  0  0  0  0  0  0  0  0  0  0  0
   36.4517   12.9068  -15.3832 C   0  0  0  0  0  0  0  0  0  0  0  0
   36.2227   13.8330  -14.3831 C   0  0  0  0  0  0  0  0  0  0  0  0
   35.0708   13.8354  -13.6245 C   0  0  0  0  0  0  0  0  0  0  0  0
   34.1572   12.8425  -13.9355 C   0  0  0  0  0  0  0  0  0  0  0  0
   34.3610   11.9097  -14.9251 C   0  0  0  0  0  0  0  0  0  0  0  0
   36.8687   10.9809  -17.4140 O   0  0  0  0  0  0  0  0  0  0  0  0
   35.7207   10.9703  -16.6797 N   0  0  0  0  0  0  0  0  0  0  0  0
   34.8588   10.1202  -16.9025 O   0  0  0  0  0  0  0  0  0  0  0  0
 24 25  1  0  0  0
 25 26  2  0  0  0
 25 18  1  0  0  0
 18 19  2  0  0  0
 19 20  1  0  0  0
 20 21  2  0  0  0
 21 22  1  0  0  0
 22 23  2  0  0  0
 21  1  1  0  0  0
  1  2  1  0  0  0
  2  3  1  0  0  0
  3  4  1  0  0  0
  4  5  1  0  0  0
  5  6  1  0  0  0
  4  7  1  0  0  0
  7  8  2  0  0  0
  7  9  1  0  0  0
  9 11  1  0  0  0
 11 12  1  0  0  0
 12 13  1  0  0  0
 13 14  1  0  0  0
 14 15  1  0  0  0
 15 16  1  0  0  0
 16 17  1  0  0  0
 23 18  1  0  0  0
  6  1  1  0  0  0
 17 11  1  0  0  0
  9 10  1  0  0  0
M  CHG 1  24  -1
M  CHG 1  25   1
M  END
> <minimizedAffinity>
-7.51790

> <CNNscore>
0.2420911044

> <CNNaffinity>
5.3166761398

> <CNN_VS>
1.2871199846

> <CNNaffinity_variance>
0.2052886486

$$$$
[H]c1c([H])c([N+](=O)[O-])c([H])c([H])c1N1C([H])([H])C([H])([H])N(C(=O)N([H])C2([H])C([H])([H])C([H])([H])C([H])([H])C([H])([H])C([H])([H])C2([H])[H])C([H])([H])C1([H])[H]


 26 28  0  0  0  0  0  0  0  0999 V2000
   39.5154   12.6713  -16.4399 N   0  0  0  0  0  0  0  0  0  0  0  0
   39.9046   13.1761  -15.1459 C   0  0  0  0  0  0  0  0  0  0  0  0
   41.3365   13.4926  -14.9565 C   0  0  0  0  0  0  0  0  0  0  0  0
   42.2336   12.8409  -15.8818 N   0  0  0  0  0  0  0  0  0  0  0  0
   41.7581   12.1659  -17.0728 C   0  0  0  0  0  0  0  0  0  0  0  0
   40.4282   12.7815  -17.5223 C   0  0  0  0  0  0  0  0  0  0  0  0
   43.6169   12.8697  -15.6169 C   0  0  0  0  0  0  0  0  0  0  0  0
   44.3957   12.2940  -16.4243 O   0  0  0  0  0  0  0  0  0  0  0  0
   44.1888   13.5145  -14.4853 N   0  0  0  0  0  0  0  0  0  0  0  0
   43.5508   13.9936  -13.8160 H   0  0  0  0  0  0  0  0  0  0  0  0
   45.6186   13.5174  -14.2534 C   0  0  0  0  0  0  0  0  0  0  0  0
   46.0909   14.9062  -13.9067 C   0  0  0  0  0  0  0  0  0  0  0  0
   47.1536   14.9253  -12.8580 C   0  0  0  0  0  0  0  0  0  0  0  0
   46.6608   14.6738  -11.4701 C   0  0  0  0  0  0  0  0  0  0  0  0
   45.2338   14.1925  -11.4111 C   0  0  0  0  0  0  0  0  0  0  0  0
   45.0562   12.8001  -11.9441 C   0  0  0  0  0  0  0  0  0  0  0  0
   45.8999   12.5261  -13.1463 C   0  0  0  0  0  0  0  0  0  0  0  0
   35.6452   10.9175  -16.7426 C   0  0  0  0  0  0  0  0  0  0  0  0
   35.9080   11.8793  -15.7944 C   0  0  0  0  0  0  0  0  0  0  0  0
   37.1641   12.4481  -15.6988 C   0  0  0  0  0  0  0  0  0  0  0  0
   38.2045   12.0917  -16.5311 C   0  0  0  0  0  0  0  0  0  0  0  0
   37.9023   11.1217  -17.4717 C   0  0  0  0  0  0  0  0  0  0  0  0
   36.6614   10.5404  -17.5874 C   0  0  0  0  0  0  0  0  0  0  0  0
   33.2981   11.0588  -17.2561 O   0  0  0  0  0  0  0  0  0  0  0  0
   34.3717   10.3140  -16.8691 N   0  0  0  0  0  0  0  0  0  0  0  0
   34.2311    9.1148  -16.6297 O   0  0  0  0  0  0  0  0  0  0  0  0
 24 25  1  0  0  0
 25 26  2  0  0  0
 25 18  1  0  0  0
 18 19  2  0  0  0
 19 20  1  0  0  0
 20 21  2  0  0  0
 21 22  1  0  0  0
 22 23  2  0  0  0
 21  1  1  0  0  0
  1  2  1  0  0  0
  2  3  1  0  0  0
  3  4  1  0  0  0
  4  5  1  0  0  0
  5  6  1  0  0  0
  4  7  1  0  0  0
  7  8  2  0  0  0
  7  9  1  0  0  0
  9 11  1  0  0  0
 11 12  1  0  0  0
 12 13  1  0  0  0
 13 14  1  0  0  0
 14 15  1  0  0  0
 15 16  1  0  0  0
 16 17  1  0  0  0
 23 18  1  0  0  0
  6  1  1  0  0  0
 17 11  1  0  0  0
  9 10  1  0  0  0
M  CHG 1  24  -1
M  CHG 1  25   1
M  END
> <minimizedAffinity>
-7.83361

> <CNNscore>
0.2309677601

> <CNNaffinity>
5.8529987335

> <CNN_VS>
1.3518539667

> <CNNaffinity_variance>
0.0021510348

$$$$
[H]c1c([H])c([N+](=O)[O-])c([H])c([H])c1N1C([H])([H])C([H])([H])N(C(=O)N([H])C2([H])C([H])([H])C([H])([H])C([H])([H])C([H])([H])C([H])([H])C2([H])[H])C([H])([H])C1([H])[H]


 26 28  0  0  0  0  0  0  0  0999 V2000
   43.8730   15.5977  -11.2007 N   0  0  0  0  0  0  0  0  0  0  0  0
   42.4540   15.5493  -10.9461 C   0  0  0  0  0  0  0  0  0  0  0  0
   41.9888   16.1004   -9.6553 C   0  0  0  0  0  0  0  0  0  0  0  0
   43.0000   16.1855   -8.6276 N   0  0  0  0  0  0  0  0  0  0  0  0
   44.4104   16.0198   -8.9164 C   0  0  0  0  0  0  0  0  0  0  0  0
   44.6915   16.4099  -10.3718 C   0  0  0  0  0  0  0  0  0  0  0  0
   42.5978   16.4440   -7.3025 C   0  0  0  0  0  0  0  0  0  0  0  0
   43.4835   16.5111   -6.4076 O   0  0  0  0  0  0  0  0  0  0  0  0
   41.2429   16.6348   -6.9137 N   0  0  0  0  0  0  0  0  0  0  0  0
   40.5069   16.5828   -7.6487 H   0  0  0  0  0  0  0  0  0  0  0  0
   40.8763   16.8978   -5.5373 C   0  0  0  0  0  0  0  0  0  0  0  0
   39.9239   18.0636   -5.4617 C   0  0  0  0  0  0  0  0  0  0  0  0
   38.8564   17.8899   -4.4322 C   0  0  0  0  0  0  0  0  0  0  0  0
   37.7695   16.9405   -4.8190 C   0  0  0  0  0  0  0  0  0  0  0  0
   38.0772   16.1382   -6.0571 C   0  0  0  0  0  0  0  0  0  0  0  0
   39.1663   15.1255   -5.8508 C   0  0  0  0  0  0  0  0  0  0  0  0
   40.2706   15.6291   -4.9796 C   0  0  0  0  0  0  0  0  0  0  0  0
   45.3301   13.2385  -14.4346 C   0  0  0  0  0  0  0  0  0  0  0  0
   44.0985   13.8475  -14.5089 C   0  0  0  0  0  0  0  0  0  0  0  0
   43.6282   14.6137  -13.4590 C   0  0  0  0  0  0  0  0  0  0  0  0
   44.3514   14.8079  -12.3008 C   0  0  0  0  0  0  0  0  0  0  0  0
   45.5848   14.1799  -12.2628 C   0  0  0  0  0  0  0  0  0  0  0  0
   46.0754   13.4126  -13.2932 C   0  0  0  0  0  0  0  0  0  0  0  0
   47.1716   12.4881  -15.7905 O   0  0  0  0  0  0  0  0  0  0  0  0
   45.8431   12.4474  -15.4896 N   0  0  0  0  0  0  0  0  0  0  0  0
   45.0901   11.7208  -16.1379 O   0  0  0  0  0  0  0  0  0  0  0  0
 24 25  1  0  0  0
 25 26  2  0  0  0
 25 18  1  0  0  0
 18 19  2  0  0  0
 19 20  1  0  0  0
 20 21  2  0  0  0
 21 22  1  0  0  0
 22 23  2  0  0  0
 21  1  1  0  0  0
  1  2  1  0  0  0
  2  3  1  0  0  0
  3  4  1  0  0  0
  4  5  1  0  0  0
  5  6  1  0  0  0
  4  7  1  0  0  0
  7  8  2  0  0  0
  7  9  1  0  0  0
  9 11  1  0  0  0
 11 12  1  0  0  0
 12 13  1  0  0  0
 13 14  1  0  0  0
 14 15  1  0  0  0
 15 16  1  0  0  0
 16 17  1  0  0  0
 23 18  1  0  0  0
  6  1  1  0  0  0
 17 11  1  0  0  0
  9 10  1  0  0  0
M  CHG 1  24  -1
M  CHG 1  25   1
M  END
> <minimizedAffinity>
-5.03330

> <CNNscore>
0.2172590047

> <CNNaffinity>
4.4769949913

> <CNN_VS>
0.9726674557

> <CNNaffinity_variance>
0.2222708762

$$$$
[H]c1c([H])c([N+](=O)[O-])c([H])c([H])c1N1C([H])([H])C([H])([H])N(C(=O)N([H])C2([H])C([H])([H])C([H])([H])C([H])([H])C([H])([H])C([H])([H])C2([H])[H])C([H])([H])C1([H])[H]


 26 28  0  0  0  0  0  0  0  0999 V2000
   39.3526   12.9397  -16.0237 N   0  0  0  0  0  0  0  0  0  0  0  0
   39.5424   13.4827  -14.7009 C   0  0  0  0  0  0  0  0  0  0  0  0
   40.9127   13.9095  -14.3453 C   0  0  0  0  0  0  0  0  0  0  0  0
   41.9622   13.3215  -15.1444 N   0  0  0  0  0  0  0  0  0  0  0  0
   41.6872   12.6029  -16.3725 C   0  0  0  0  0  0  0  0  0  0  0  0
   40.3794   13.1113  -16.9896 C   0  0  0  0  0  0  0  0  0  0  0  0
   43.2968   13.4583  -14.7149 C   0  0  0  0  0  0  0  0  0  0  0  0
   44.2092   12.9379  -15.4125 O   0  0  0  0  0  0  0  0  0  0  0  0
   43.6766   14.1536  -13.5335 N   0  0  0  0  0  0  0  0  0  0  0  0
   42.9278   14.5875  -12.9544 H   0  0  0  0  0  0  0  0  0  0  0  0
   45.0633   14.2679  -13.1308 C   0  0  0  0  0  0  0  0  0  0  0  0
   45.6229   15.6032  -13.5503 C   0  0  0  0  0  0  0  0  0  0  0  0
   46.5529   16.1974  -12.5446 C   0  0  0  0  0  0  0  0  0  0  0  0
   45.8798   16.7808  -11.3450 C   0  0  0  0  0  0  0  0  0  0  0  0
   44.4163   16.4361  -11.2433 C   0  0  0  0  0  0  0  0  0  0  0  0
   44.1693   14.9887  -10.9297 C   0  0  0  0  0  0  0  0  0  0  0  0
   45.1173   14.0720  -11.6321 C   0  0  0  0  0  0  0  0  0  0  0  0
   35.6432   10.9581  -16.7018 C   0  0  0  0  0  0  0  0  0  0  0  0
   36.7502   10.6549  -17.4606 C   0  0  0  0  0  0  0  0  0  0  0  0
   37.9532   11.2980  -17.2380 C   0  0  0  0  0  0  0  0  0  0  0  0
   38.1098   12.2606  -16.2627 C   0  0  0  0  0  0  0  0  0  0  0  0
   36.9748   12.5387  -15.5202 C   0  0  0  0  0  0  0  0  0  0  0  0
   35.7667   11.9134  -15.7217 C   0  0  0  0  0  0  0  0  0  0  0  0
   33.3201   11.0408  -17.3257 O   0  0  0  0  0  0  0  0  0  0  0  0
   34.3963   10.3200  -16.9018 N   0  0  0  0  0  0  0  0  0  0  0  0
   34.2810    9.1124  -16.6931 O   0  0  0  0  0  0  0  0  0  0  0  0
 24 25  1  0  0  0
 25 26  2  0  0  0
 25 18  1  0  0  0
 18 19  2  0  0  0
 19 20  1  0  0  0
 20 21  2  0  0  0
 21 22  1  0  0  0
 22 23  2  0  0  0
 21  1  1  0  0  0
  1  2  1  0  0  0
  2  3  1  0  0  0
  3  4  1  0  0  0
  4  5  1  0  0  0
  5  6  1  0  0  0
  4  7  1  0  0  0
  7  8  2  0  0  0
  7  9  1  0  0  0
  9 11  1  0  0  0
 11 12  1  0  0  0
 12 13  1  0  0  0
 13 14  1  0  0  0
 14 15  1  0  0  0
 15 16  1  0  0  0
 16 17  1  0  0  0
 23 18  1  0  0  0
  6  1  1  0  0  0
 17 11  1  0  0  0
  9 10  1  0  0  0
M  CHG 1  24  -1
M  CHG 1  25   1
M  END
> <minimizedAffinity>
-7.86200

> <CNNscore>
0.2023977488

> <CNNaffinity>
5.7003517151

> <CNN_VS>
1.1537383795

> <CNNaffinity_variance>
0.0271175914

$$$$
[H]Oc1c([H])c([H])c(C([H])([H])[C@@]([H])(C(=O)N([H])[C@]([H])(C(=O)N2C([H])([H])C([H])([H])C([H])([H])[C@@]2([H])C(=O)N([H])[C@]([H])(C(=O)N([H])[C@]([H])(C(=O)N([H])[C@]([H])(C(=O)N([H])[H])C([H])([H])c2c([H])c([H])c([H])c([H])c2[H])C([H])([H])C([H])(C([H])([H])[H])C([H])([H])[H])C([H])([H])c2c([H])c([H])c([H])c([H])c2[H])C([H])(C([H])([H])[H])C([H])([H])[H])N([H])[H])c([H])c1[H]


 66 69  0  0  0  0  0  0  0  0999 V2000
   36.4869   13.7067  -12.5957 C   0  0  0  0  0  0  0  0  0  0  0  0
   36.8043   14.9789  -11.9261 N   0  0  0  0  0  0  0  0  0  0  0  0
   36.7555   15.0800  -10.5128 C   0  0  0  0  0  0  0  0  0  0  0  0
   36.4224   14.0251   -9.8868 O   0  0  0  0  0  0  0  0  0  0  0  0
   37.0698   15.8265  -12.4655 H   0  0  0  0  0  0  0  0  0  0  0  0
   37.0565   16.2825   -9.7367 C   0  0  0  0  0  0  0  0  0  0  0  0
   37.8046   17.3509  -10.4669 C   0  0  0  0  0  0  0  0  0  0  0  0
   39.2402   16.9026  -10.3986 C   0  0  0  0  0  0  0  0  0  0  0  0
   39.2601   15.8593   -9.2856 C   0  0  0  0  0  0  0  0  0  0  0  0
   37.9695   15.9565   -8.6436 N   0  0  0  0  0  0  0  0  0  0  0  0
   37.7119   15.8025   -7.2754 C   0  0  0  0  0  0  0  0  0  0  0  0
   36.5161   16.0188   -6.9079 O   0  0  0  0  0  0  0  0  0  0  0  0
   38.6822   15.4196   -6.2344 C   0  0  0  0  0  0  0  0  0  0  0  0
   39.5162   14.3277   -6.6891 N   0  0  0  0  0  0  0  0  0  0  0  0
   39.8659   13.2162   -5.9245 C   0  0  0  0  0  0  0  0  0  0  0  0
   39.4520   13.1120   -4.7508 O   0  0  0  0  0  0  0  0  0  0  0  0
   39.8671   14.4054   -7.6655 H   0  0  0  0  0  0  0  0  0  0  0  0
   40.7219   12.1495   -6.4711 C   0  0  0  0  0  0  0  0  0  0  0  0
   40.6906   12.1872   -7.9489 N   0  0  0  0  0  0  0  0  0  0  0  0
   40.5817   13.2028   -8.1968 H   0  0  0  0  0  0  0  0  0  0  0  0
   39.7912   11.7304   -8.2869 H   0  0  0  0  0  0  0  0  0  0  0  0
   42.1747   12.3082   -6.0364 C   0  0  0  0  0  0  0  0  0  0  0  0
   42.4928   11.1289   -5.1673 C   0  0  0  0  0  0  0  0  0  0  0  0
   41.7303   10.7420   -4.0964 C   0  0  0  0  0  0  0  0  0  0  0  0
   42.0700    9.6412   -3.3326 C   0  0  0  0  0  0  0  0  0  0  0  0
   43.1901    8.8952   -3.6255 C   0  0  0  0  0  0  0  0  0  0  0  0
   43.5407    7.7781   -2.8568 O   0  0  0  0  0  0  0  0  0  0  0  0
   43.9669    9.2741   -4.7018 C   0  0  0  0  0  0  0  0  0  0  0  0
   43.6117   10.3763   -5.4524 C   0  0  0  0  0  0  0  0  0  0  0  0
   43.1938    6.8573   -3.0982 H   0  0  0  0  0  0  0  0  0  0  0  0
   39.5053   16.5986   -5.7796 C   0  0  0  0  0  0  0  0  0  0  0  0
   40.8783   16.6522   -6.3507 C   0  0  0  0  0  0  0  0  0  0  0  0
   39.5463   16.6608   -4.2439 C   0  0  0  0  0  0  0  0  0  0  0  0
   38.6141   13.8932  -14.0479 N   0  0  0  0  0  0  0  0  0  0  0  0
   37.6828   13.1834  -13.2824 C   0  0  0  0  0  0  0  0  0  0  0  0
   37.8770   11.9395  -13.1640 O   0  0  0  0  0  0  0  0  0  0  0  0
   38.4509   14.9252  -14.1246 H   0  0  0  0  0  0  0  0  0  0  0  0
   39.7578   13.3421  -14.7132 C   0  0  0  0  0  0  0  0  0  0  0  0
   41.0028   13.9997  -14.2716 C   0  0  0  0  0  0  0  0  0  0  0  0
   40.9573   15.1486  -13.8110 O   0  0  0  0  0  0  0  0  0  0  0  0
   42.2825   13.3553  -14.3474 N   0  0  0  0  0  0  0  0  0  0  0  0
   42.2886   12.3621  -14.7698 H   0  0  0  0  0  0  0  0  0  0  0  0
   43.5246   13.9035  -13.9210 C   0  0  0  0  0  0  0  0  0  0  0  0
   44.4854   14.2248  -15.0152 C   0  0  0  0  0  0  0  0  0  0  0  0
   44.2583   13.6896  -16.3162 N   0  0  0  0  0  0  0  0  0  0  0  0
   45.4856   14.9421  -14.8532 O   0  0  0  0  0  0  0  0  0  0  0  0
   43.5835   14.0666  -17.0052 H   0  0  0  0  0  0  0  0  0  0  0  0
   44.8174   12.8555  -16.5893 H   0  0  0  0  0  0  0  0  0  0  0  0
   44.1858   13.2398  -12.7617 C   0  0  0  0  0  0  0  0  0  0  0  0
   43.8081   13.7884  -11.4408 C   0  0  0  0  0  0  0  0  0  0  0  0
   43.2109   15.0185  -11.2890 C   0  0  0  0  0  0  0  0  0  0  0  0
   42.8718   15.5243  -10.0457 C   0  0  0  0  0  0  0  0  0  0  0  0
   43.1454   14.7599   -8.9128 C   0  0  0  0  0  0  0  0  0  0  0  0
   43.7412   13.5271   -9.0263 C   0  0  0  0  0  0  0  0  0  0  0  0
   44.0621   13.0644  -10.2950 C   0  0  0  0  0  0  0  0  0  0  0  0
   39.6382   13.0701  -16.1580 C   0  0  0  0  0  0  0  0  0  0  0  0
   38.7638   11.1383  -17.4468 C   0  0  0  0  0  0  0  0  0  0  0  0
   39.9726   11.7268  -16.6782 C   0  0  0  0  0  0  0  0  0  0  0  0
   41.0280   11.8915  -17.7876 C   0  0  0  0  0  0  0  0  0  0  0  0
   35.2975   13.9712  -13.4459 C   0  0  0  0  0  0  0  0  0  0  0  0
   34.9782   12.9538  -14.4575 C   0  0  0  0  0  0  0  0  0  0  0  0
   33.8842   12.1423  -14.2684 C   0  0  0  0  0  0  0  0  0  0  0  0
   33.5160   11.1811  -15.1853 C   0  0  0  0  0  0  0  0  0  0  0  0
   34.2696   11.0263  -16.3329 C   0  0  0  0  0  0  0  0  0  0  0  0
   35.3711   11.8228  -16.5529 C   0  0  0  0  0  0  0  0  0  0  0  0
   35.7104   12.7804  -15.6057 C   0  0  0  0  0  0  0  0  0  0  0  0
 57 58  1  0  0  0
 58 59  1  0  0  0
 58 56  1  0  0  0
 56 38  1  0  0  0
 38 34  1  0  0  0
 34 35  1  0  0  0
 35 36  2  0  0  0
 35  1  1  0  0  0
  1 60  1  0  0  0
 60 61  1  0  0  0
 61 62  2  0  0  0
 62 63  1  0  0  0
 63 64  2  0  0  0
 64 65  1  0  0  0
 65 66  2  0  0  0
  1  2  1  0  0  0
  2  3  1  0  0  0
  3  4  2  0  0  0
  3  6  1  0  0  0
  6  7  1  0  0  0
  7  8  1  0  0  0
  8  9  1  0  0  0
  9 10  1  0  0  0
 10 11  1  0  0  0
 11 12  2  0  0  0
 11 13  1  0  0  0
 13 14  1  0  0  0
 14 15  1  0  0  0
 15 16  2  0  0  0
 15 18  1  0  0  0
 18 19  1  0  0  0
 18 22  1  0  0  0
 22 23  1  0  0  0
 23 24  2  0  0  0
 24 25  1  0  0  0
 25 26  2  0  0  0
 26 27  1  0  0  0
 26 28  1  0  0  0
 28 29  2  0  0  0
 13 31  1  0  0  0
 31 32  1  0  0  0
 31 33  1  0  0  0
 38 39  1  0  0  0
 39 40  2  0  0  0
 39 41  1  0  0  0
 41 43  1  0  0  0
 43 49  1  0  0  0
 49 50  1  0  0  0
 50 51  2  0  0  0
 51 52  1  0  0  0
 52 53  2  0  0  0
 53 54  1  0  0  0
 54 55  2  0  0  0
 43 44  1  0  0  0
 44 45  1  0  0  0
 44 46  2  0  0  0
 66 61  1  0  0  0
 10  6  1  0  0  0
 29 23  1  0  0  0
 55 50  1  0  0  0
 34 37  1  0  0  0
  2  5  1  0  0  0
 14 17  1  0  0  0
 19 20  1  0  0  0
 19 21  1  0  0  0
 27 30  1  0  0  0
 41 42  1  0  0  0
 45 47  1  0  0  0
 45 48  1  0  0  0
M  END
> <minimizedAffinity>
-9.57090

> <CNNscore>
0.4337143898

> <CNNaffinity>
7.6465635300

> <CNN_VS>
3.3164246082

> <CNNaffinity_variance>
0.7725099325

$$$$
[H]Oc1c([H])c([H])c(C([H])([H])[C@@]([H])(C(=O)N([H])[C@]([H])(C(=O)N2C([H])([H])C([H])([H])C([H])([H])[C@@]2([H])C(=O)N([H])[C@]([H])(C(=O)N([H])[C@]([H])(C(=O)N([H])[C@]([H])(C(=O)N([H])[H])C([H])([H])c2c([H])c([H])c([H])c([H])c2[H])C([H])([H])C([H])(C([H])([H])[H])C([H])([H])[H])C([H])([H])c2c([H])c([H])c([H])c([H])c2[H])C([H])(C([H])([H])[H])C([H])([H])[H])N([H])[H])c([H])c1[H]


 66 69  0  0  0  0  0  0  0  0999 V2000
   38.0879   14.9710  -12.6491 C   0  0  0  0  0  0  0  0  0  0  0  0
   37.8432   15.9661  -11.5920 N   0  0  0  0  0  0  0  0  0  0  0  0
   37.2287   15.5843  -10.3727 C   0  0  0  0  0  0  0  0  0  0  0  0
   36.9098   14.3586  -10.2657 O   0  0  0  0  0  0  0  0  0  0  0  0
   38.1116   16.9630  -11.7102 H   0  0  0  0  0  0  0  0  0  0  0  0
   36.9425   16.4770   -9.2501 C   0  0  0  0  0  0  0  0  0  0  0  0
   36.9491   17.9373   -9.5696 C   0  0  0  0  0  0  0  0  0  0  0  0
   38.4075   18.3101   -9.5422 C   0  0  0  0  0  0  0  0  0  0  0  0
   39.0800   17.1599   -8.7989 C   0  0  0  0  0  0  0  0  0  0  0  0
   38.0002   16.3743   -8.2474 N   0  0  0  0  0  0  0  0  0  0  0  0
   38.0032   15.7158   -7.0111 C   0  0  0  0  0  0  0  0  0  0  0  0
   36.9138   15.1555   -6.6780 O   0  0  0  0  0  0  0  0  0  0  0  0
   39.1335   15.6127   -6.0712 C   0  0  0  0  0  0  0  0  0  0  0  0
   40.0526   14.5753   -6.4881 N   0  0  0  0  0  0  0  0  0  0  0  0
   40.1835   13.3297   -5.8768 C   0  0  0  0  0  0  0  0  0  0  0  0
   39.4749   13.0426   -4.8893 O   0  0  0  0  0  0  0  0  0  0  0  0
   40.6484   14.8050   -7.3096 H   0  0  0  0  0  0  0  0  0  0  0  0
   41.1481   12.3322   -6.3706 C   0  0  0  0  0  0  0  0  0  0  0  0
   41.2791   12.4431   -7.8392 N   0  0  0  0  0  0  0  0  0  0  0  0
   41.1468   13.4639   -8.0517 H   0  0  0  0  0  0  0  0  0  0  0  0
   40.4472   11.9635   -8.2972 H   0  0  0  0  0  0  0  0  0  0  0  0
   42.5338   12.5347   -5.7674 C   0  0  0  0  0  0  0  0  0  0  0  0
   42.8598   11.2808   -5.0134 C   0  0  0  0  0  0  0  0  0  0  0  0
   44.0686   10.6392   -5.0851 C   0  0  0  0  0  0  0  0  0  0  0  0
   44.3148    9.4871   -4.3622 C   0  0  0  0  0  0  0  0  0  0  0  0
   43.3489    8.9457   -3.5432 C   0  0  0  0  0  0  0  0  0  0  0  0
   43.5908    7.7790   -2.8069 O   0  0  0  0  0  0  0  0  0  0  0  0
   42.1267    9.5822   -3.4617 C   0  0  0  0  0  0  0  0  0  0  0  0
   41.8995   10.7313   -4.1914 C   0  0  0  0  0  0  0  0  0  0  0  0
   43.9737    7.8311   -1.8704 H   0  0  0  0  0  0  0  0  0  0  0  0
   39.8315   16.9376   -5.8920 C   0  0  0  0  0  0  0  0  0  0  0  0
   41.1527   16.8543   -5.2128 C   0  0  0  0  0  0  0  0  0  0  0  0
   38.9072   17.9355   -5.1752 C   0  0  0  0  0  0  0  0  0  0  0  0
   40.6618   15.0090  -12.4433 N   0  0  0  0  0  0  0  0  0  0  0  0
   39.4648   15.1040  -13.1611 C   0  0  0  0  0  0  0  0  0  0  0  0
   39.5639   15.3392  -14.3996 O   0  0  0  0  0  0  0  0  0  0  0  0
   40.5664   14.7978  -11.4216 H   0  0  0  0  0  0  0  0  0  0  0  0
   41.9830   15.1605  -12.9780 C   0  0  0  0  0  0  0  0  0  0  0  0
   42.3913   13.9666  -13.7431 C   0  0  0  0  0  0  0  0  0  0  0  0
   42.8881   13.0001  -13.1489 O   0  0  0  0  0  0  0  0  0  0  0  0
   42.2304   13.8717  -15.1657 N   0  0  0  0  0  0  0  0  0  0  0  0
   41.8109   14.7380  -15.6540 H   0  0  0  0  0  0  0  0  0  0  0  0
   42.5707   12.7522  -15.9758 C   0  0  0  0  0  0  0  0  0  0  0  0
   44.0270   12.5871  -16.2504 C   0  0  0  0  0  0  0  0  0  0  0  0
   44.4390   12.0402  -17.5002 N   0  0  0  0  0  0  0  0  0  0  0  0
   44.9123   12.9036  -15.4396 O   0  0  0  0  0  0  0  0  0  0  0  0
   44.4857   12.5638  -18.3922 H   0  0  0  0  0  0  0  0  0  0  0  0
   44.7133   11.0365  -17.5105 H   0  0  0  0  0  0  0  0  0  0  0  0
   41.7351   12.5260  -17.1891 C   0  0  0  0  0  0  0  0  0  0  0  0
   40.3455   12.1026  -16.9093 C   0  0  0  0  0  0  0  0  0  0  0  0
   39.7021   12.3943  -15.7287 C   0  0  0  0  0  0  0  0  0  0  0  0
   38.4046   11.9830  -15.4758 C   0  0  0  0  0  0  0  0  0  0  0  0
   37.7309   11.2498  -16.4510 C   0  0  0  0  0  0  0  0  0  0  0  0
   38.3421   10.9397  -17.6418 C   0  0  0  0  0  0  0  0  0  0  0  0
   39.6440   11.3748  -17.8473 C   0  0  0  0  0  0  0  0  0  0  0  0
   43.0073   15.7573  -12.1003 C   0  0  0  0  0  0  0  0  0  0  0  0
   43.3357   14.3079  -10.1133 C   0  0  0  0  0  0  0  0  0  0  0  0
   42.8449   15.6820  -10.6325 C   0  0  0  0  0  0  0  0  0  0  0  0
   43.8446   16.6607   -9.9887 C   0  0  0  0  0  0  0  0  0  0  0  0
   36.9935   15.1406  -13.6395 C   0  0  0  0  0  0  0  0  0  0  0  0
   36.1044   13.9866  -13.8349 C   0  0  0  0  0  0  0  0  0  0  0  0
   35.2668   13.9642  -14.9253 C   0  0  0  0  0  0  0  0  0  0  0  0
   34.4214   12.9055  -15.1799 C   0  0  0  0  0  0  0  0  0  0  0  0
   34.4141   11.8304  -14.3122 C   0  0  0  0  0  0  0  0  0  0  0  0
   35.2407   11.8212  -13.2110 C   0  0  0  0  0  0  0  0  0  0  0  0
   36.0784   12.9065  -12.9881 C   0  0  0  0  0  0  0  0  0  0  0  0
 57 58  1  0  0  0
 58 59  1  0  0  0
 58 56  1  0  0  0
 56 38  1  0  0  0
 38 34  1  0  0  0
 34 35  1  0  0  0
 35 36  2  0  0  0
 35  1  1  0  0  0
  1 60  1  0  0  0
 60 61  1  0  0  0
 61 62  2  0  0  0
 62 63  1  0  0  0
 63 64  2  0  0  0
 64 65  1  0  0  0
 65 66  2  0  0  0
  1  2  1  0  0  0
  2  3  1  0  0  0
  3  4  2  0  0  0
  3  6  1  0  0  0
  6  7  1  0  0  0
  7  8  1  0  0  0
  8  9  1  0  0  0
  9 10  1  0  0  0
 10 11  1  0  0  0
 11 12  2  0  0  0
 11 13  1  0  0  0
 13 14  1  0  0  0
 14 15  1  0  0  0
 15 16  2  0  0  0
 15 18  1  0  0  0
 18 19  1  0  0  0
 18 22  1  0  0  0
 22 23  1  0  0  0
 23 24  2  0  0  0
 24 25  1  0  0  0
 25 26  2  0  0  0
 26 27  1  0  0  0
 26 28  1  0  0  0
 28 29  2  0  0  0
 13 31  1  0  0  0
 31 32  1  0  0  0
 31 33  1  0  0  0
 38 39  1  0  0  0
 39 40  2  0  0  0
 39 41  1  0  0  0
 41 43  1  0  0  0
 43 49  1  0  0  0
 49 50  1  0  0  0
 50 51  2  0  0  0
 51 52  1  0  0  0
 52 53  2  0  0  0
 53 54  1  0  0  0
 54 55  2  0  0  0
 43 44  1  0  0  0
 44 45  1  0  0  0
 44 46  2  0  0  0
 66 61  1  0  0  0
 10  6  1  0  0  0
 29 23  1  0  0  0
 55 50  1  0  0  0
 34 37  1  0  0  0
  2  5  1  0  0  0
 14 17  1  0  0  0
 19 20  1  0  0  0
 19 21  1  0  0  0
 27 30  1  0  0  0
 41 42  1  0  0  0
 45 47  1  0  0  0
 45 48  1  0  0  0
M  END
> <minimizedAffinity>
-9.43583

> <CNNscore>
0.4199932218

> <CNNaffinity>
7.7742857933

> <CNN_VS>
3.2651474476

> <CNNaffinity_variance>
0.3649039567

$$$$
[H]Oc1c([H])c([H])c(C([H])([H])[C@@]([H])(C(=O)N([H])[C@]([H])(C(=O)N2C([H])([H])C([H])([H])C([H])([H])[C@@]2([H])C(=O)N([H])[C@]([H])(C(=O)N([H])[C@]([H])(C(=O)N([H])[C@]([H])(C(=O)N([H])[H])C([H])([H])c2c([H])c([H])c([H])c([H])c2[H])C([H])([H])C([H])(C([H])([H])[H])C([H])([H])[H])C([H])([H])c2c([H])c([H])c([H])c([H])c2[H])C([H])(C([H])([H])[H])C([H])([H])[H])N([H])[H])c([H])c1[H]


 66 69  0  0  0  0  0  0  0  0999 V2000
   41.1430   14.6507  -13.3035 C   0  0  0  0  0  0  0  0  0  0  0  0
   41.5904   14.6576  -11.9008 N   0  0  0  0  0  0  0  0  0  0  0  0
   42.2686   15.7825  -11.3673 C   0  0  0  0  0  0  0  0  0  0  0  0
   42.4603   16.7521  -12.1665 O   0  0  0  0  0  0  0  0  0  0  0  0
   41.4226   13.8475  -11.2720 H   0  0  0  0  0  0  0  0  0  0  0  0
   42.7518   15.9094   -9.9928 C   0  0  0  0  0  0  0  0  0  0  0  0
   44.1545   15.4498   -9.7573 C   0  0  0  0  0  0  0  0  0  0  0  0
   44.0300   13.9562   -9.6148 C   0  0  0  0  0  0  0  0  0  0  0  0
   42.5456   13.7220   -9.3513 C   0  0  0  0  0  0  0  0  0  0  0  0
   41.9859   15.0320   -9.1105 N   0  0  0  0  0  0  0  0  0  0  0  0
   40.9679   15.3426   -8.1999 C   0  0  0  0  0  0  0  0  0  0  0  0
   40.6873   16.5749   -8.0801 O   0  0  0  0  0  0  0  0  0  0  0  0
   40.2016   14.3898   -7.3773 C   0  0  0  0  0  0  0  0  0  0  0  0
   41.0668   13.7217   -6.4288 N   0  0  0  0  0  0  0  0  0  0  0  0
   41.2167   12.3405   -6.3180 C   0  0  0  0  0  0  0  0  0  0  0  0
   40.5744   11.5813   -7.0736 O   0  0  0  0  0  0  0  0  0  0  0  0
   41.6058   14.3453   -5.7938 H   0  0  0  0  0  0  0  0  0  0  0  0
   42.1230   11.7464   -5.3205 C   0  0  0  0  0  0  0  0  0  0  0  0
   41.3529   10.9069   -4.3779 N   0  0  0  0  0  0  0  0  0  0  0  0
   40.5661   10.5042   -4.9466 H   0  0  0  0  0  0  0  0  0  0  0  0
   40.8746   11.5368   -3.6663 H   0  0  0  0  0  0  0  0  0  0  0  0
   43.1798   10.8596   -5.9701 C   0  0  0  0  0  0  0  0  0  0  0  0
   44.2544   10.6535   -4.9455 C   0  0  0  0  0  0  0  0  0  0  0  0
   45.1685   11.6122   -4.5944 C   0  0  0  0  0  0  0  0  0  0  0  0
   46.1355   11.3670   -3.6377 C   0  0  0  0  0  0  0  0  0  0  0  0
   46.2108   10.1463   -3.0042 C   0  0  0  0  0  0  0  0  0  0  0  0
   47.1873    9.8903   -2.0333 O   0  0  0  0  0  0  0  0  0  0  0  0
   45.2958    9.1718   -3.3486 C   0  0  0  0  0  0  0  0  0  0  0  0
   44.3378    9.4352   -4.3064 C   0  0  0  0  0  0  0  0  0  0  0  0
   47.0049   10.0840   -1.0557 H   0  0  0  0  0  0  0  0  0  0  0  0
   39.0344   15.0571   -6.6941 C   0  0  0  0  0  0  0  0  0  0  0  0
   38.8841   14.7179   -5.2531 C   0  0  0  0  0  0  0  0  0  0  0  0
   37.7332   14.7756   -7.4632 C   0  0  0  0  0  0  0  0  0  0  0  0
   38.7436   14.3392  -12.4009 N   0  0  0  0  0  0  0  0  0  0  0  0
   39.6722   14.7422  -13.3665 C   0  0  0  0  0  0  0  0  0  0  0  0
   39.2036   15.2409  -14.4300 O   0  0  0  0  0  0  0  0  0  0  0  0
   39.1452   13.9429  -11.5182 H   0  0  0  0  0  0  0  0  0  0  0  0
   37.3174   14.4319  -12.5084 C   0  0  0  0  0  0  0  0  0  0  0  0
   36.7735   13.3571  -13.3607 C   0  0  0  0  0  0  0  0  0  0  0  0
   36.3918   12.2993  -12.8417 O   0  0  0  0  0  0  0  0  0  0  0  0
   36.6596   13.4874  -14.7850 N   0  0  0  0  0  0  0  0  0  0  0  0
   37.0175   14.4144  -15.2063 H   0  0  0  0  0  0  0  0  0  0  0  0
   36.1245   12.5155  -15.6764 C   0  0  0  0  0  0  0  0  0  0  0  0
   34.6883   12.1783  -15.4594 C   0  0  0  0  0  0  0  0  0  0  0  0
   33.8614   13.0940  -14.7463 N   0  0  0  0  0  0  0  0  0  0  0  0
   34.1661   11.1298  -15.8709 O   0  0  0  0  0  0  0  0  0  0  0  0
   33.4418   13.9521  -15.1460 H   0  0  0  0  0  0  0  0  0  0  0  0
   33.6676   12.8778  -13.7471 H   0  0  0  0  0  0  0  0  0  0  0  0
   36.9597   11.3068  -15.9277 C   0  0  0  0  0  0  0  0  0  0  0  0
   38.1818   11.5574  -16.7228 C   0  0  0  0  0  0  0  0  0  0  0  0
   39.1561   12.4456  -16.3297 C   0  0  0  0  0  0  0  0  0  0  0  0
   40.2904   12.6782  -17.0886 C   0  0  0  0  0  0  0  0  0  0  0  0
   40.4474   11.9884  -18.2894 C   0  0  0  0  0  0  0  0  0  0  0  0
   39.4946   11.0940  -18.7137 C   0  0  0  0  0  0  0  0  0  0  0  0
   38.3753   10.8962  -17.9172 C   0  0  0  0  0  0  0  0  0  0  0  0
   36.7356   15.7742  -12.6966 C   0  0  0  0  0  0  0  0  0  0  0  0
   35.2501   15.3473  -10.7554 C   0  0  0  0  0  0  0  0  0  0  0  0
   36.0059   16.4166  -11.5823 C   0  0  0  0  0  0  0  0  0  0  0  0
   37.0418   16.9496  -10.5751 C   0  0  0  0  0  0  0  0  0  0  0  0
   41.7597   13.4527  -13.9294 C   0  0  0  0  0  0  0  0  0  0  0  0
   43.1892   13.5497  -14.2573 C   0  0  0  0  0  0  0  0  0  0  0  0
   44.0984   13.7271  -13.2409 C   0  0  0  0  0  0  0  0  0  0  0  0
   45.4545   13.8069  -13.4747 C   0  0  0  0  0  0  0  0  0  0  0  0
   45.9178   13.7053  -14.7723 C   0  0  0  0  0  0  0  0  0  0  0  0
   45.0340   13.5271  -15.8131 C   0  0  0  0  0  0  0  0  0  0  0  0
   43.6747   13.4515  -15.5376 C   0  0  0  0  0  0  0  0  0  0  0  0
 57 58  1  0  0  0
 58 59  1  0  0  0
 58 56  1  0  0  0
 56 38  1  0  0  0
 38 34  1  0  0  0
 34 35  1  0  0  0
 35 36  2  0  0  0
 35  1  1  0  0  0
  1 60  1  0  0  0
 60 61  1  0  0  0
 61 62  2  0  0  0
 62 63  1  0  0  0
 63 64  2  0  0  0
 64 65  1  0  0  0
 65 66  2  0  0  0
  1  2  1  0  0  0
  2  3  1  0  0  0
  3  4  2  0  0  0
  3  6  1  0  0  0
  6  7  1  0  0  0
  7  8  1  0  0  0
  8  9  1  0  0  0
  9 10  1  0  0  0
 10 11  1  0  0  0
 11 12  2  0  0  0
 11 13  1  0  0  0
 13 14  1  0  0  0
 14 15  1  0  0  0
 15 16  2  0  0  0
 15 18  1  0  0  0
 18 19  1  0  0  0
 18 22  1  0  0  0
 22 23  1  0  0  0
 23 24  2  0  0  0
 24 25  1  0  0  0
 25 26  2  0  0  0
 26 27  1  0  0  0
 26 28  1  0  0  0
 28 29  2  0  0  0
 13 31  1  0  0  0
 31 32  1  0  0  0
 31 33  1  0  0  0
 38 39  1  0  0  0
 39 40  2  0  0  0
 39 41  1  0  0  0
 41 43  1  0  0  0
 43 49  1  0  0  0
 49 50  1  0  0  0
 50 51  2  0  0  0
 51 52  1  0  0  0
 52 53  2  0  0  0
 53 54  1  0  0  0
 54 55  2  0  0  0
 43 44  1  0  0  0
 44 45  1  0  0  0
 44 46  2  0  0  0
 66 61  1  0  0  0
 10  6  1  0  0  0
 29 23  1  0  0  0
 55 50  1  0  0  0
 34 37  1  0  0  0
  2  5  1  0  0  0
 14 17  1  0  0  0
 19 20  1  0  0  0
 19 21  1  0  0  0
 27 30  1  0  0  0
 41 42  1  0  0  0
 45 47  1  0  0  0
 45 48  1  0  0  0
M  END
> <minimizedAffinity>
-9.00495

> <CNNscore>
0.3748445809

> <CNNaffinity>
7.8011550903

> <CNN_VS>
2.9242208004

> <CNNaffinity_variance>
0.4466618001

$$$$
[H]Oc1c([H])c([H])c(C([H])([H])[C@@]([H])(C(=O)N([H])[C@]([H])(C(=O)N2C([H])([H])C([H])([H])C([H])([H])[C@@]2([H])C(=O)N([H])[C@]([H])(C(=O)N([H])[C@]([H])(C(=O)N([H])[C@]([H])(C(=O)N([H])[H])C([H])([H])c2c([H])c([H])c([H])c([H])c2[H])C([H])([H])C([H])(C([H])([H])[H])C([H])([H])[H])C([H])([H])c2c([H])c([H])c([H])c([H])c2[H])C([H])(C([H])([H])[H])C([H])([H])[H])N([H])[H])c([H])c1[H]


 66 69  0  0  0  0  0  0  0  0999 V2000
   41.0342   14.8227  -13.2962 C   0  0  0  0  0  0  0  0  0  0  0  0
   41.8585   14.8413  -12.0764 N   0  0  0  0  0  0  0  0  0  0  0  0
   42.7112   15.9398  -11.8008 C   0  0  0  0  0  0  0  0  0  0  0  0
   42.7150   16.8757  -12.6608 O   0  0  0  0  0  0  0  0  0  0  0  0
   41.8369   14.0587  -11.3930 H   0  0  0  0  0  0  0  0  0  0  0  0
   43.5674   16.0754  -10.6229 C   0  0  0  0  0  0  0  0  0  0  0  0
   45.0227   15.8212  -10.8508 C   0  0  0  0  0  0  0  0  0  0  0  0
   45.1416   14.3209  -10.8103 C   0  0  0  0  0  0  0  0  0  0  0  0
   43.8503   13.8551  -10.1446 C   0  0  0  0  0  0  0  0  0  0  0  0
   43.2252   15.0541   -9.6357 N   0  0  0  0  0  0  0  0  0  0  0  0
   42.4997   15.1671   -8.4428 C   0  0  0  0  0  0  0  0  0  0  0  0
   42.1116   16.3366   -8.1379 O   0  0  0  0  0  0  0  0  0  0  0  0
   42.1488   14.0739   -7.5189 C   0  0  0  0  0  0  0  0  0  0  0  0
   43.2079   13.8576   -6.5566 N   0  0  0  0  0  0  0  0  0  0  0  0
   44.0347   12.7363   -6.5157 C   0  0  0  0  0  0  0  0  0  0  0  0
   43.8863   11.8217   -7.3531 O   0  0  0  0  0  0  0  0  0  0  0  0
   43.3392   14.6135   -5.8538 H   0  0  0  0  0  0  0  0  0  0  0  0
   45.0904   12.6003   -5.4977 C   0  0  0  0  0  0  0  0  0  0  0  0
   45.9482   13.8047   -5.4986 N   0  0  0  0  0  0  0  0  0  0  0  0
   45.3082   14.5991   -5.7513 H   0  0  0  0  0  0  0  0  0  0  0  0
   46.6314   13.7413   -6.3117 H   0  0  0  0  0  0  0  0  0  0  0  0
   44.5112   12.4478   -4.0955 C   0  0  0  0  0  0  0  0  0  0  0  0
   43.8002   11.1284   -4.0672 C   0  0  0  0  0  0  0  0  0  0  0  0
   44.3971    9.9329   -4.3712 C   0  0  0  0  0  0  0  0  0  0  0  0
   43.6921    8.7449   -4.3232 C   0  0  0  0  0  0  0  0  0  0  0  0
   42.3619    8.7254   -3.9664 C   0  0  0  0  0  0  0  0  0  0  0  0
   41.6408    7.5258   -3.9148 O   0  0  0  0  0  0  0  0  0  0  0  0
   41.7486    9.9229   -3.6577 C   0  0  0  0  0  0  0  0  0  0  0  0
   42.4689   11.0987   -3.7117 C   0  0  0  0  0  0  0  0  0  0  0  0
   41.6009    6.9852   -3.0588 H   0  0  0  0  0  0  0  0  0  0  0  0
   40.8229   14.3195   -6.8436 C   0  0  0  0  0  0  0  0  0  0  0  0
   40.6280   13.5719   -5.5719 C   0  0  0  0  0  0  0  0  0  0  0  0
   39.6674   14.0504   -7.8216 C   0  0  0  0  0  0  0  0  0  0  0  0
   38.9576   14.8556  -11.7615 N   0  0  0  0  0  0  0  0  0  0  0  0
   39.6277   15.1153  -12.9617 C   0  0  0  0  0  0  0  0  0  0  0  0
   38.9524   15.6611  -13.8811 O   0  0  0  0  0  0  0  0  0  0  0  0
   39.5324   14.4182  -11.0026 H   0  0  0  0  0  0  0  0  0  0  0  0
   37.5815   15.1427  -11.4819 C   0  0  0  0  0  0  0  0  0  0  0  0
   36.6834   14.2503  -12.2398 C   0  0  0  0  0  0  0  0  0  0  0  0
   36.1138   13.3176  -11.6570 O   0  0  0  0  0  0  0  0  0  0  0  0
   36.4320   14.4212  -13.6420 N   0  0  0  0  0  0  0  0  0  0  0  0
   36.9578   15.2323  -14.1223 H   0  0  0  0  0  0  0  0  0  0  0  0
   35.5636   13.6266  -14.4418 C   0  0  0  0  0  0  0  0  0  0  0  0
   34.1084   13.8938  -14.2560 C   0  0  0  0  0  0  0  0  0  0  0  0
   33.6994   14.8744  -13.3063 N   0  0  0  0  0  0  0  0  0  0  0  0
   33.2215   13.3010  -14.8912 O   0  0  0  0  0  0  0  0  0  0  0  0
   33.7113   15.8976  -13.4650 H   0  0  0  0  0  0  0  0  0  0  0  0
   33.3634   14.5292  -12.3840 H   0  0  0  0  0  0  0  0  0  0  0  0
   35.8683   12.1694  -14.5149 C   0  0  0  0  0  0  0  0  0  0  0  0
   36.8266   11.7936  -15.5775 C   0  0  0  0  0  0  0  0  0  0  0  0
   36.4376   11.1887  -16.7504 C   0  0  0  0  0  0  0  0  0  0  0  0
   37.3462   10.8330  -17.7324 C   0  0  0  0  0  0  0  0  0  0  0  0
   38.6986   11.0977  -17.5230 C   0  0  0  0  0  0  0  0  0  0  0  0
   39.1234   11.7002  -16.3636 C   0  0  0  0  0  0  0  0  0  0  0  0
   38.1734   12.0373  -15.4095 C   0  0  0  0  0  0  0  0  0  0  0  0
   37.1844   16.5614  -11.4076 C   0  0  0  0  0  0  0  0  0  0  0  0
   36.7536   16.0527   -9.0174 C   0  0  0  0  0  0  0  0  0  0  0  0
   36.8538   17.1594  -10.0962 C   0  0  0  0  0  0  0  0  0  0  0  0
   38.0682   17.9800   -9.6236 C   0  0  0  0  0  0  0  0  0  0  0  0
   41.3006   13.5189  -13.9567 C   0  0  0  0  0  0  0  0  0  0  0  0
   42.6118   13.3703  -14.6042 C   0  0  0  0  0  0  0  0  0  0  0  0
   43.7474   13.3940  -13.8290 C   0  0  0  0  0  0  0  0  0  0  0  0
   45.0071   13.2414  -14.3677 C   0  0  0  0  0  0  0  0  0  0  0  0
   45.1351   13.0582  -15.7310 C   0  0  0  0  0  0  0  0  0  0  0  0
   44.0181   13.0294  -16.5357 C   0  0  0  0  0  0  0  0  0  0  0  0
   42.7657   13.1869  -15.9559 C   0  0  0  0  0  0  0  0  0  0  0  0
 57 58  1  0  0  0
 58 59  1  0  0  0
 58 56  1  0  0  0
 56 38  1  0  0  0
 38 34  1  0  0  0
 34 35  1  0  0  0
 35 36  2  0  0  0
 35  1  1  0  0  0
  1 60  1  0  0  0
 60 61  1  0  0  0
 61 62  2  0  0  0
 62 63  1  0  0  0
 63 64  2  0  0  0
 64 65  1  0  0  0
 65 66  2  0  0  0
  1  2  1  0  0  0
  2  3  1  0  0  0
  3  4  2  0  0  0
  3  6  1  0  0  0
  6  7  1  0  0  0
  7  8  1  0  0  0
  8  9  1  0  0  0
  9 10  1  0  0  0
 10 11  1  0  0  0
 11 12  2  0  0  0
 11 13  1  0  0  0
 13 14  1  0  0  0
 14 15  1  0  0  0
 15 16  2  0  0  0
 15 18  1  0  0  0
 18 19  1  0  0  0
 18 22  1  0  0  0
 22 23  1  0  0  0
 23 24  2  0  0  0
 24 25  1  0  0  0
 25 26  2  0  0  0
 26 27  1  0  0  0
 26 28  1  0  0  0
 28 29  2  0  0  0
 13 31  1  0  0  0
 31 32  1  0  0  0
 31 33  1  0  0  0
 38 39  1  0  0  0
 39 40  2  0  0  0
 39 41  1  0  0  0
 41 43  1  0  0  0
 43 49  1  0  0  0
 49 50  1  0  0  0
 50 51  2  0  0  0
 51 52  1  0  0  0
 52 53  2  0  0  0
 53 54  1  0  0  0
 54 55  2  0  0  0
 43 44  1  0  0  0
 44 45  1  0  0  0
 44 46  2  0  0  0
 66 61  1  0  0  0
 10  6  1  0  0  0
 29 23  1  0  0  0
 55 50  1  0  0  0
 34 37  1  0  0  0
  2  5  1  0  0  0
 14 17  1  0  0  0
 19 20  1  0  0  0
 19 21  1  0  0  0
 27 30  1  0  0  0
 41 42  1  0  0  0
 45 47  1  0  0  0
 45 48  1  0  0  0
M  END
> <minimizedAffinity>
-9.35110

> <CNNscore>
0.3458905816

> <CNNaffinity>
7.6715102196

> <CNN_VS>
2.6535031796

> <CNNaffinity_variance>
0.5939431190

$$$$
[H]Oc1c([H])c([H])c(C([H])([H])[C@@]([H])(C(=O)N([H])[C@]([H])(C(=O)N2C([H])([H])C([H])([H])C([H])([H])[C@@]2([H])C(=O)N([H])[C@]([H])(C(=O)N([H])[C@]([H])(C(=O)N([H])[C@]([H])(C(=O)N([H])[H])C([H])([H])c2c([H])c([H])c([H])c([H])c2[H])C([H])([H])C([H])(C([H])([H])[H])C([H])([H])[H])C([H])([H])c2c([H])c([H])c([H])c([H])c2[H])C([H])(C([H])([H])[H])C([H])([H])[H])N([H])[H])c([H])c1[H]


 66 69  0  0  0  0  0  0  0  0999 V2000
   37.8600   15.9021   -9.1047 C   0  0  0  0  0  0  0  0  0  0  0  0
   37.1089   15.2976   -7.9920 N   0  0  0  0  0  0  0  0  0  0  0  0
   36.2938   16.0999   -7.1542 C   0  0  0  0  0  0  0  0  0  0  0  0
   36.2649   17.3418   -7.4235 O   0  0  0  0  0  0  0  0  0  0  0  0
   37.1557   14.2786   -7.7938 H   0  0  0  0  0  0  0  0  0  0  0  0
   35.4974   15.6147   -6.0276 C   0  0  0  0  0  0  0  0  0  0  0  0
   34.9022   14.2540   -6.1972 C   0  0  0  0  0  0  0  0  0  0  0  0
   33.6628   14.4975   -7.0164 C   0  0  0  0  0  0  0  0  0  0  0  0
   33.4118   15.9970   -6.8895 C   0  0  0  0  0  0  0  0  0  0  0  0
   34.3125   16.4520   -5.8556 N   0  0  0  0  0  0  0  0  0  0  0  0
   34.0472   17.4465   -4.9055 C   0  0  0  0  0  0  0  0  0  0  0  0
   34.9455   17.6289   -4.0273 O   0  0  0  0  0  0  0  0  0  0  0  0
   32.8413   18.2899   -4.8270 C   0  0  0  0  0  0  0  0  0  0  0  0
   31.6447   17.4768   -4.8674 N   0  0  0  0  0  0  0  0  0  0  0  0
   30.5878   17.6526   -5.7587 C   0  0  0  0  0  0  0  0  0  0  0  0
   30.6322   18.5702   -6.6048 O   0  0  0  0  0  0  0  0  0  0  0  0
   31.5974   16.7099   -4.1658 H   0  0  0  0  0  0  0  0  0  0  0  0
   29.4058   16.7745   -5.7274 C   0  0  0  0  0  0  0  0  0  0  0  0
   28.2727   17.4786   -5.0899 N   0  0  0  0  0  0  0  0  0  0  0  0
   28.3953   18.4898   -5.3490 H   0  0  0  0  0  0  0  0  0  0  0  0
   28.4013   17.4546   -4.0341 H   0  0  0  0  0  0  0  0  0  0  0  0
   28.9650   16.3652   -7.1285 C   0  0  0  0  0  0  0  0  0  0  0  0
   28.8865   14.8682   -7.1325 C   0  0  0  0  0  0  0  0  0  0  0  0
   27.7113   14.1652   -7.0824 C   0  0  0  0  0  0  0  0  0  0  0  0
   27.6996   12.7830   -7.0939 C   0  0  0  0  0  0  0  0  0  0  0  0
   28.8738   12.0660   -7.1567 C   0  0  0  0  0  0  0  0  0  0  0  0
   28.8704   10.6654   -7.1695 O   0  0  0  0  0  0  0  0  0  0  0  0
   30.0648   12.7620   -7.2077 C   0  0  0  0  0  0  0  0  0  0  0  0
   30.0563   14.1419   -7.1949 C   0  0  0  0  0  0  0  0  0  0  0  0
   28.8281   10.1584   -8.0456 H   0  0  0  0  0  0  0  0  0  0  0  0
   32.8664   19.1861   -3.6143 C   0  0  0  0  0  0  0  0  0  0  0  0
   31.8993   18.8112   -2.5474 C   0  0  0  0  0  0  0  0  0  0  0  0
   32.6823   20.6545   -4.0314 C   0  0  0  0  0  0  0  0  0  0  0  0
   38.2416   15.3180  -11.5911 N   0  0  0  0  0  0  0  0  0  0  0  0
   37.6344   15.1349  -10.3441 C   0  0  0  0  0  0  0  0  0  0  0  0
   36.7813   14.2051  -10.2603 O   0  0  0  0  0  0  0  0  0  0  0  0
   38.9580   16.0806  -11.6429 H   0  0  0  0  0  0  0  0  0  0  0  0
   37.9818   14.5579  -12.7781 C   0  0  0  0  0  0  0  0  0  0  0  0
   39.1722   14.4996  -13.6481 C   0  0  0  0  0  0  0  0  0  0  0  0
   39.6366   15.5465  -14.1198 O   0  0  0  0  0  0  0  0  0  0  0  0
   39.8293   13.2660  -13.9720 N   0  0  0  0  0  0  0  0  0  0  0  0
   39.3885   12.3715  -13.5591 H   0  0  0  0  0  0  0  0  0  0  0  0
   40.9934   13.1218  -14.7780 C   0  0  0  0  0  0  0  0  0  0  0  0
   42.2461   13.6748  -14.1879 C   0  0  0  0  0  0  0  0  0  0  0  0
   42.2097   14.2233  -12.8731 N   0  0  0  0  0  0  0  0  0  0  0  0
   43.3336   13.6843  -14.7867 O   0  0  0  0  0  0  0  0  0  0  0  0
   42.2220   13.6708  -11.9975 H   0  0  0  0  0  0  0  0  0  0  0  0
   42.1679   15.2600  -12.7935 H   0  0  0  0  0  0  0  0  0  0  0  0
   40.8514   13.4556  -16.2237 C   0  0  0  0  0  0  0  0  0  0  0  0
   40.0100   12.5130  -16.9933 C   0  0  0  0  0  0  0  0  0  0  0  0
   38.7980   12.0519  -16.5339 C   0  0  0  0  0  0  0  0  0  0  0  0
   38.0252   11.1619  -17.2600 C   0  0  0  0  0  0  0  0  0  0  0  0
   38.4931   10.7206  -18.4965 C   0  0  0  0  0  0  0  0  0  0  0  0
   39.6992   11.1597  -18.9868 C   0  0  0  0  0  0  0  0  0  0  0  0
   40.4368   12.0515  -18.2206 C   0  0  0  0  0  0  0  0  0  0  0  0
   36.6877   14.7721  -13.4530 C   0  0  0  0  0  0  0  0  0  0  0  0
   36.1158   12.3634  -13.2856 C   0  0  0  0  0  0  0  0  0  0  0  0
   36.0328   13.6450  -14.1511 C   0  0  0  0  0  0  0  0  0  0  0  0
   34.5188   13.9230  -14.1951 C   0  0  0  0  0  0  0  0  0  0  0  0
   39.2674   16.0145   -8.6421 C   0  0  0  0  0  0  0  0  0  0  0  0
   39.6885   15.0721   -7.5957 C   0  0  0  0  0  0  0  0  0  0  0  0
   39.8403   15.5273   -6.3069 C   0  0  0  0  0  0  0  0  0  0  0  0
   40.2136   14.6947   -5.2736 C   0  0  0  0  0  0  0  0  0  0  0  0
   40.4432   13.3585   -5.5394 C   0  0  0  0  0  0  0  0  0  0  0  0
   40.2999   12.8705   -6.8190 C   0  0  0  0  0  0  0  0  0  0  0  0
   39.9223   13.7405   -7.8338 C   0  0  0  0  0  0  0  0  0  0  0  0
 57 58  1  0  0  0
 58 59  1  0  0  0
 58 56  1  0  0  0
 56 38  1  0  0  0
 38 34  1  0  0  0
 34 35  1  0  0  0
 35 36  2  0  0  0
 35  1  1  0  0  0
  1 60  1  0  0  0
 60 61  1  0  0  0
 61 62  2  0  0  0
 62 63  1  0  0  0
 63 64  2  0  0  0
 64 65  1  0  0  0
 65 66  2  0  0  0
  1  2  1  0  0  0
  2  3  1  0  0  0
  3  4  2  0  0  0
  3  6  1  0  0  0
  6  7  1  0  0  0
  7  8  1  0  0  0
  8  9  1  0  0  0
  9 10  1  0  0  0
 10 11  1  0  0  0
 11 12  2  0  0  0
 11 13  1  0  0  0
 13 14  1  0  0  0
 14 15  1  0  0  0
 15 16  2  0  0  0
 15 18  1  0  0  0
 18 19  1  0  0  0
 18 22  1  0  0  0
 22 23  1  0  0  0
 23 24  2  0  0  0
 24 25  1  0  0  0
 25 26  2  0  0  0
 26 27  1  0  0  0
 26 28  1  0  0  0
 28 29  2  0  0  0
 13 31  1  0  0  0
 31 32  1  0  0  0
 31 33  1  0  0  0
 38 39  1  0  0  0
 39 40  2  0  0  0
 39 41  1  0  0  0
 41 43  1  0  0  0
 43 49  1  0  0  0
 49 50  1  0  0  0
 50 51  2  0  0  0
 51 52  1  0  0  0
 52 53  2  0  0  0
 53 54  1  0  0  0
 54 55  2  0  0  0
 43 44  1  0  0  0
 44 45  1  0  0  0
 44 46  2  0  0  0
 66 61  1  0  0  0
 10  6  1  0  0  0
 29 23  1  0  0  0
 55 50  1  0  0  0
 34 37  1  0  0  0
  2  5  1  0  0  0
 14 17  1  0  0  0
 19 20  1  0  0  0
 19 21  1  0  0  0
 27 30  1  0  0  0
 41 42  1  0  0  0
 45 47  1  0  0  0
 45 48  1  0  0  0
M  END
> <minimizedAffinity>
-9.48780

> <CNNscore>
0.3431566656

> <CNNaffinity>
7.3062887192

> <CNN_VS>
2.5072016716

> <CNNaffinity_variance>
0.3779071271

$$$$
[H]Oc1c([H])c([H])c(C([H])([H])[C@@]([H])(C(=O)N([H])[C@]([H])(C(=O)N2C([H])([H])C([H])([H])C([H])([H])[C@@]2([H])C(=O)N([H])[C@]([H])(C(=O)N([H])[C@]([H])(C(=O)N([H])[C@]([H])(C(=O)N([H])[H])C([H])([H])c2c([H])c([H])c([H])c([H])c2[H])C([H])([H])C([H])(C([H])([H])[H])C([H])([H])[H])C([H])([H])c2c([H])c([H])c([H])c([H])c2[H])C([H])(C([H])([H])[H])C([H])([H])[H])N([H])[H])c([H])c1[H]


 66 69  0  0  0  0  0  0  0  0999 V2000
   37.8282   14.3907  -13.2311 C   0  0  0  0  0  0  0  0  0  0  0  0
   38.0807   15.4607  -12.2517 N   0  0  0  0  0  0  0  0  0  0  0  0
   37.5527   15.3739  -10.9389 C   0  0  0  0  0  0  0  0  0  0  0  0
   36.8620   14.3387  -10.6801 O   0  0  0  0  0  0  0  0  0  0  0  0
   38.6466   16.2979  -12.4941 H   0  0  0  0  0  0  0  0  0  0  0  0
   37.7418   16.3652   -9.8804 C   0  0  0  0  0  0  0  0  0  0  0  0
   38.6548   17.5003  -10.2156 C   0  0  0  0  0  0  0  0  0  0  0  0
   40.0332   16.9394   -9.9873 C   0  0  0  0  0  0  0  0  0  0  0  0
   39.8004   15.6917   -9.1407 C   0  0  0  0  0  0  0  0  0  0  0  0
   38.4146   15.7534   -8.7368 N   0  0  0  0  0  0  0  0  0  0  0  0
   37.8927   15.3424   -7.5037 C   0  0  0  0  0  0  0  0  0  0  0  0
   36.6572   15.5694   -7.3204 O   0  0  0  0  0  0  0  0  0  0  0  0
   38.6297   14.6814   -6.4121 C   0  0  0  0  0  0  0  0  0  0  0  0
   39.7360   13.9092   -6.9358 N   0  0  0  0  0  0  0  0  0  0  0  0
   40.3669   12.8610   -6.2682 C   0  0  0  0  0  0  0  0  0  0  0  0
   39.9828   12.5278   -5.1275 O   0  0  0  0  0  0  0  0  0  0  0  0
   40.0644   14.1796   -7.8854 H   0  0  0  0  0  0  0  0  0  0  0  0
   41.4886   12.1285   -6.8801 C   0  0  0  0  0  0  0  0  0  0  0  0
   41.6938   12.5916   -8.2693 N   0  0  0  0  0  0  0  0  0  0  0  0
   41.4353   13.6103   -8.2615 H   0  0  0  0  0  0  0  0  0  0  0  0
   40.9660   12.1347   -8.8965 H   0  0  0  0  0  0  0  0  0  0  0  0
   42.7930   12.3508   -6.1225 C   0  0  0  0  0  0  0  0  0  0  0  0
   42.9564   11.1812   -5.1991 C   0  0  0  0  0  0  0  0  0  0  0  0
   42.6667   11.2192   -3.8603 C   0  0  0  0  0  0  0  0  0  0  0  0
   42.8323   10.1064   -3.0573 C   0  0  0  0  0  0  0  0  0  0  0  0
   43.2955    8.9193   -3.5799 C   0  0  0  0  0  0  0  0  0  0  0  0
   43.4655    7.7871   -2.7730 O   0  0  0  0  0  0  0  0  0  0  0  0
   43.5912    8.8675   -4.9273 C   0  0  0  0  0  0  0  0  0  0  0  0
   43.4196    9.9890   -5.7128 C   0  0  0  0  0  0  0  0  0  0  0  0
   42.7084    7.1256   -2.6475 H   0  0  0  0  0  0  0  0  0  0  0  0
   39.0842   15.6704   -5.3682 C   0  0  0  0  0  0  0  0  0  0  0  0
   38.1368   15.8543   -4.2356 C   0  0  0  0  0  0  0  0  0  0  0  0
   39.4259   17.0189   -6.0230 C   0  0  0  0  0  0  0  0  0  0  0  0
   39.6228   13.0584  -14.5245 N   0  0  0  0  0  0  0  0  0  0  0  0
   38.9891   14.2411  -14.1286 C   0  0  0  0  0  0  0  0  0  0  0  0
   39.4662   15.3197  -14.5848 O   0  0  0  0  0  0  0  0  0  0  0  0
   39.2080   12.1711  -14.1526 H   0  0  0  0  0  0  0  0  0  0  0  0
   40.7617   12.9574  -15.3888 C   0  0  0  0  0  0  0  0  0  0  0  0
   41.9925   13.4022  -14.7072 C   0  0  0  0  0  0  0  0  0  0  0  0
   43.0555   13.4590  -15.3403 O   0  0  0  0  0  0  0  0  0  0  0  0
   42.0118   13.7834  -13.3241 N   0  0  0  0  0  0  0  0  0  0  0  0
   41.0726   13.7053  -12.7979 H   0  0  0  0  0  0  0  0  0  0  0  0
   43.1438   14.2479  -12.5975 C   0  0  0  0  0  0  0  0  0  0  0  0
   43.9442   13.1860  -11.9229 C   0  0  0  0  0  0  0  0  0  0  0  0
   43.5597   12.7494  -10.6220 N   0  0  0  0  0  0  0  0  0  0  0  0
   44.9405   12.6543  -12.4386 O   0  0  0  0  0  0  0  0  0  0  0  0
   42.7915   12.0851  -10.4203 H   0  0  0  0  0  0  0  0  0  0  0  0
   44.0968   13.1309   -9.8165 H   0  0  0  0  0  0  0  0  0  0  0  0
   42.9371   15.4412  -11.7284 C   0  0  0  0  0  0  0  0  0  0  0  0
   43.9089   16.5355  -11.9441 C   0  0  0  0  0  0  0  0  0  0  0  0
   43.8551   17.3747  -13.0329 C   0  0  0  0  0  0  0  0  0  0  0  0
   44.7773   18.3887  -13.2277 C   0  0  0  0  0  0  0  0  0  0  0  0
   45.7922   18.5624  -12.2883 C   0  0  0  0  0  0  0  0  0  0  0  0
   45.8772   17.7429  -11.1888 C   0  0  0  0  0  0  0  0  0  0  0  0
   44.9287   16.7407  -11.0388 C   0  0  0  0  0  0  0  0  0  0  0  0
   40.5941   13.3938  -16.7879 C   0  0  0  0  0  0  0  0  0  0  0  0
   41.4383   11.4288  -18.0462 C   0  0  0  0  0  0  0  0  0  0  0  0
   40.2513   12.3990  -17.8269 C   0  0  0  0  0  0  0  0  0  0  0  0
   39.1597   11.4717  -17.2612 C   0  0  0  0  0  0  0  0  0  0  0  0
   36.5300   14.7170  -13.8759 C   0  0  0  0  0  0  0  0  0  0  0  0
   35.8008   13.5936  -14.4816 C   0  0  0  0  0  0  0  0  0  0  0  0
   34.6031   13.1995  -13.9326 C   0  0  0  0  0  0  0  0  0  0  0  0
   33.8579   12.1670  -14.4608 C   0  0  0  0  0  0  0  0  0  0  0  0
   34.3280   11.5052  -15.5788 C   0  0  0  0  0  0  0  0  0  0  0  0
   35.5236   11.8751  -16.1531 C   0  0  0  0  0  0  0  0  0  0  0  0
   36.2460   12.9204  -15.5919 C   0  0  0  0  0  0  0  0  0  0  0  0
 57 58  1  0  0  0
 58 59  1  0  0  0
 58 56  1  0  0  0
 56 38  1  0  0  0
 38 34  1  0  0  0
 34 35  1  0  0  0
 35 36  2  0  0  0
 35  1  1  0  0  0
  1 60  1  0  0  0
 60 61  1  0  0  0
 61 62  2  0  0  0
 62 63  1  0  0  0
 63 64  2  0  0  0
 64 65  1  0  0  0
 65 66  2  0  0  0
  1  2  1  0  0  0
  2  3  1  0  0  0
  3  4  2  0  0  0
  3  6  1  0  0  0
  6  7  1  0  0  0
  7  8  1  0  0  0
  8  9  1  0  0  0
  9 10  1  0  0  0
 10 11  1  0  0  0
 11 12  2  0  0  0
 11 13  1  0  0  0
 13 14  1  0  0  0
 14 15  1  0  0  0
 15 16  2  0  0  0
 15 18  1  0  0  0
 18 19  1  0  0  0
 18 22  1  0  0  0
 22 23  1  0  0  0
 23 24  2  0  0  0
 24 25  1  0  0  0
 25 26  2  0  0  0
 26 27  1  0  0  0
 26 28  1  0  0  0
 28 29  2  0  0  0
 13 31  1  0  0  0
 31 32  1  0  0  0
 31 33  1  0  0  0
 38 39  1  0  0  0
 39 40  2  0  0  0
 39 41  1  0  0  0
 41 43  1  0  0  0
 43 49  1  0  0  0
 49 50  1  0  0  0
 50 51  2  0  0  0
 51 52  1  0  0  0
 52 53  2  0  0  0
 53 54  1  0  0  0
 54 55  2  0  0  0
 43 44  1  0  0  0
 44 45  1  0  0  0
 44 46  2  0  0  0
 66 61  1  0  0  0
 10  6  1  0  0  0
 29 23  1  0  0  0
 55 50  1  0  0  0
 34 37  1  0  0  0
  2  5  1  0  0  0
 14 17  1  0  0  0
 19 20  1  0  0  0
 19 21  1  0  0  0
 27 30  1  0  0  0
 41 42  1  0  0  0
 45 47  1  0  0  0
 45 48  1  0  0  0
M  END
> <minimizedAffinity>
-9.81190

> <CNNscore>
0.3267230093

> <CNNaffinity>
7.5145545006

> <CNN_VS>
2.4551777840

> <CNNaffinity_variance>
0.7326788306

$$$$
[H]Oc1c([H])c([H])c(C([H])([H])[C@@]([H])(C(=O)N([H])[C@]([H])(C(=O)N2C([H])([H])C([H])([H])C([H])([H])[C@@]2([H])C(=O)N([H])[C@]([H])(C(=O)N([H])[C@]([H])(C(=O)N([H])[C@]([H])(C(=O)N([H])[H])C([H])([H])c2c([H])c([H])c([H])c([H])c2[H])C([H])([H])C([H])(C([H])([H])[H])C([H])([H])[H])C([H])([H])c2c([H])c([H])c([H])c([H])c2[H])C([H])(C([H])([H])[H])C([H])([H])[H])N([H])[H])c([H])c1[H]


 66 69  0  0  0  0  0  0  0  0999 V2000
   38.0479   14.7273  -13.7712 C   0  0  0  0  0  0  0  0  0  0  0  0
   38.3621   15.4236  -12.5126 N   0  0  0  0  0  0  0  0  0  0  0  0
   39.6449   15.9901  -12.3044 C   0  0  0  0  0  0  0  0  0  0  0  0
   40.4793   15.8516  -13.2532 O   0  0  0  0  0  0  0  0  0  0  0  0
   37.6597   15.5175  -11.7525 H   0  0  0  0  0  0  0  0  0  0  0  0
   40.0707   16.7100  -11.1046 C   0  0  0  0  0  0  0  0  0  0  0  0
   41.2918   16.1734  -10.4299 C   0  0  0  0  0  0  0  0  0  0  0  0
   40.7771   15.0253   -9.6031 C   0  0  0  0  0  0  0  0  0  0  0  0
   39.2709   15.2563   -9.5279 C   0  0  0  0  0  0  0  0  0  0  0  0
   39.0578   16.5828  -10.0593 N   0  0  0  0  0  0  0  0  0  0  0  0
   38.1081   17.5106   -9.6130 C   0  0  0  0  0  0  0  0  0  0  0  0
   38.1505   18.6553  -10.1603 O   0  0  0  0  0  0  0  0  0  0  0  0
   37.0785   17.2899   -8.5820 C   0  0  0  0  0  0  0  0  0  0  0  0
   36.3234   18.5017   -8.3454 N   0  0  0  0  0  0  0  0  0  0  0  0
   36.1430   19.1015   -7.1003 C   0  0  0  0  0  0  0  0  0  0  0  0
   36.6527   18.5888   -6.0819 O   0  0  0  0  0  0  0  0  0  0  0  0
   35.8937   18.9364   -9.1875 H   0  0  0  0  0  0  0  0  0  0  0  0
   35.3567   20.3382   -6.9530 C   0  0  0  0  0  0  0  0  0  0  0  0
   33.9224   20.0085   -6.8111 N   0  0  0  0  0  0  0  0  0  0  0  0
   33.8995   19.0911   -6.2986 H   0  0  0  0  0  0  0  0  0  0  0  0
   33.5219   19.7892   -7.7720 H   0  0  0  0  0  0  0  0  0  0  0  0
   35.7719   21.1316   -5.7189 C   0  0  0  0  0  0  0  0  0  0  0  0
   35.8351   22.5701   -6.1361 C   0  0  0  0  0  0  0  0  0  0  0  0
   35.3000   23.6004   -5.4080 C   0  0  0  0  0  0  0  0  0  0  0  0
   35.3931   24.9100   -5.8401 C   0  0  0  0  0  0  0  0  0  0  0  0
   36.0297   25.2219   -7.0210 C   0  0  0  0  0  0  0  0  0  0  0  0
   36.1288   26.5464   -7.4654 O   0  0  0  0  0  0  0  0  0  0  0  0
   36.5732   24.1933   -7.7641 C   0  0  0  0  0  0  0  0  0  0  0  0
   36.4699   22.8921   -7.3163 C   0  0  0  0  0  0  0  0  0  0  0  0
   36.9198   27.1211   -7.1997 H   0  0  0  0  0  0  0  0  0  0  0  0
   36.1789   16.1313   -8.9325 C   0  0  0  0  0  0  0  0  0  0  0  0
   34.7647   16.5058   -9.2044 C   0  0  0  0  0  0  0  0  0  0  0  0
   36.2605   15.0447   -7.8478 C   0  0  0  0  0  0  0  0  0  0  0  0
   35.5759   14.0874  -13.3857 N   0  0  0  0  0  0  0  0  0  0  0  0
   36.5981   14.7877  -14.0354 C   0  0  0  0  0  0  0  0  0  0  0  0
   36.2475   15.5649  -14.9693 O   0  0  0  0  0  0  0  0  0  0  0  0
   35.8780   13.4594  -12.6035 H   0  0  0  0  0  0  0  0  0  0  0  0
   34.1762   14.1636  -13.6845 C   0  0  0  0  0  0  0  0  0  0  0  0
   33.3970   14.5712  -12.4997 C   0  0  0  0  0  0  0  0  0  0  0  0
   33.9623   15.1632  -11.5701 O   0  0  0  0  0  0  0  0  0  0  0  0
   31.9907   14.3139  -12.3772 N   0  0  0  0  0  0  0  0  0  0  0  0
   31.5334   13.7810  -13.1968 H   0  0  0  0  0  0  0  0  0  0  0  0
   31.1601   14.6943  -11.2861 C   0  0  0  0  0  0  0  0  0  0  0  0
   29.6940   14.6084  -11.5448 C   0  0  0  0  0  0  0  0  0  0  0  0
   29.2364   14.4035  -12.8788 N   0  0  0  0  0  0  0  0  0  0  0  0
   28.8386   14.7071  -10.6504 O   0  0  0  0  0  0  0  0  0  0  0  0
   29.2218   13.4918  -13.3692 H   0  0  0  0  0  0  0  0  0  0  0  0
   28.8910   15.2388  -13.3944 H   0  0  0  0  0  0  0  0  0  0  0  0
   31.5366   15.9414  -10.5619 C   0  0  0  0  0  0  0  0  0  0  0  0
   31.3993   15.8643   -9.0909 C   0  0  0  0  0  0  0  0  0  0  0  0
   31.0616   16.9506   -8.3171 C   0  0  0  0  0  0  0  0  0  0  0  0
   30.9464   16.8668   -6.9400 C   0  0  0  0  0  0  0  0  0  0  0  0
   31.1807   15.6404   -6.3204 C   0  0  0  0  0  0  0  0  0  0  0  0
   31.5203   14.5344   -7.0614 C   0  0  0  0  0  0  0  0  0  0  0  0
   31.6233   14.6701   -8.4389 C   0  0  0  0  0  0  0  0  0  0  0  0
   33.5976   13.0863  -14.5095 C   0  0  0  0  0  0  0  0  0  0  0  0
   33.5006   10.6954  -15.1661 C   0  0  0  0  0  0  0  0  0  0  0  0
   34.4170   11.9010  -14.8420 C   0  0  0  0  0  0  0  0  0  0  0  0
   35.1154   12.1636  -16.1892 C   0  0  0  0  0  0  0  0  0  0  0  0
   38.6442   13.3714  -13.6547 C   0  0  0  0  0  0  0  0  0  0  0  0
   39.1246   12.7596  -14.9019 C   0  0  0  0  0  0  0  0  0  0  0  0
   40.3167   13.1847  -15.4398 C   0  0  0  0  0  0  0  0  0  0  0  0
   40.8356   12.6415  -16.5957 C   0  0  0  0  0  0  0  0  0  0  0  0
   40.1365   11.6366  -17.2362 C   0  0  0  0  0  0  0  0  0  0  0  0
   38.9398   11.1878  -16.7238 C   0  0  0  0  0  0  0  0  0  0  0  0
   38.4494   11.7600  -15.5570 C   0  0  0  0  0  0  0  0  0  0  0  0
 57 58  1  0  0  0
 58 59  1  0  0  0
 58 56  1  0  0  0
 56 38  1  0  0  0
 38 34  1  0  0  0
 34 35  1  0  0  0
 35 36  2  0  0  0
 35  1  1  0  0  0
  1 60  1  0  0  0
 60 61  1  0  0  0
 61 62  2  0  0  0
 62 63  1  0  0  0
 63 64  2  0  0  0
 64 65  1  0  0  0
 65 66  2  0  0  0
  1  2  1  0  0  0
  2  3  1  0  0  0
  3  4  2  0  0  0
  3  6  1  0  0  0
  6  7  1  0  0  0
  7  8  1  0  0  0
  8  9  1  0  0  0
  9 10  1  0  0  0
 10 11  1  0  0  0
 11 12  2  0  0  0
 11 13  1  0  0  0
 13 14  1  0  0  0
 14 15  1  0  0  0
 15 16  2  0  0  0
 15 18  1  0  0  0
 18 19  1  0  0  0
 18 22  1  0  0  0
 22 23  1  0  0  0
 23 24  2  0  0  0
 24 25  1  0  0  0
 25 26  2  0  0  0
 26 27  1  0  0  0
 26 28  1  0  0  0
 28 29  2  0  0  0
 13 31  1  0  0  0
 31 32  1  0  0  0
 31 33  1  0  0  0
 38 39  1  0  0  0
 39 40  2  0  0  0
 39 41  1  0  0  0
 41 43  1  0  0  0
 43 49  1  0  0  0
 49 50  1  0  0  0
 50 51  2  0  0  0
 51 52  1  0  0  0
 52 53  2  0  0  0
 53 54  1  0  0  0
 54 55  2  0  0  0
 43 44  1  0  0  0
 44 45  1  0  0  0
 44 46  2  0  0  0
 66 61  1  0  0  0
 10  6  1  0  0  0
 29 23  1  0  0  0
 55 50  1  0  0  0
 34 37  1  0  0  0
  2  5  1  0  0  0
 14 17  1  0  0  0
 19 20  1  0  0  0
 19 21  1  0  0  0
 27 30  1  0  0  0
 41 42  1  0  0  0
 45 47  1  0  0  0
 45 48  1  0  0  0
M  END
> <minimizedAffinity>
-9.75274

> <CNNscore>
0.3041305244

> <CNNaffinity>
7.7318511009

> <CNN_VS>
2.3514919281

> <CNNaffinity_variance>
0.6237072945

$$$$
[H]Oc1c([H])c([H])c(C([H])([H])[C@@]([H])(C(=O)N([H])[C@]([H])(C(=O)N2C([H])([H])C([H])([H])C([H])([H])[C@@]2([H])C(=O)N([H])[C@]([H])(C(=O)N([H])[C@]([H])(C(=O)N([H])[C@]([H])(C(=O)N([H])[H])C([H])([H])c2c([H])c([H])c([H])c([H])c2[H])C([H])([H])C([H])(C([H])([H])[H])C([H])([H])[H])C([H])([H])c2c([H])c([H])c([H])c([H])c2[H])C([H])(C([H])([H])[H])C([H])([H])[H])N([H])[H])c([H])c1[H]


 66 69  0  0  0  0  0  0  0  0999 V2000
   41.1725   14.7358  -13.4933 C   0  0  0  0  0  0  0  0  0  0  0  0
   42.0147   14.6143  -12.2918 N   0  0  0  0  0  0  0  0  0  0  0  0
   42.7238   15.7363  -11.7936 C   0  0  0  0  0  0  0  0  0  0  0  0
   42.5869   16.8197  -12.4441 O   0  0  0  0  0  0  0  0  0  0  0  0
   42.1102   13.7133  -11.7829 H   0  0  0  0  0  0  0  0  0  0  0  0
   43.5816   15.7411  -10.6090 C   0  0  0  0  0  0  0  0  0  0  0  0
   44.9729   15.2363  -10.8184 C   0  0  0  0  0  0  0  0  0  0  0  0
   44.8311   13.7388  -10.7550 C   0  0  0  0  0  0  0  0  0  0  0  0
   43.4738   13.5131  -10.0960 C   0  0  0  0  0  0  0  0  0  0  0  0
   43.0609   14.8099   -9.6108 N   0  0  0  0  0  0  0  0  0  0  0  0
   42.3566   15.0651   -8.4272 C   0  0  0  0  0  0  0  0  0  0  0  0
   42.1736   16.2888   -8.1431 O   0  0  0  0  0  0  0  0  0  0  0  0
   41.8155   14.0636   -7.4914 C   0  0  0  0  0  0  0  0  0  0  0  0
   42.8610   13.5465   -6.6346 N   0  0  0  0  0  0  0  0  0  0  0  0
   42.9745   12.2199   -6.2228 C   0  0  0  0  0  0  0  0  0  0  0  0
   42.1317   11.3772   -6.5959 O   0  0  0  0  0  0  0  0  0  0  0  0
   43.5679   14.2409   -6.3173 H   0  0  0  0  0  0  0  0  0  0  0  0
   44.0753   11.7814   -5.3479 C   0  0  0  0  0  0  0  0  0  0  0  0
   43.5390   11.3684   -4.0333 N   0  0  0  0  0  0  0  0  0  0  0  0
   42.5927   10.9592   -4.2376 H   0  0  0  0  0  0  0  0  0  0  0  0
   43.3364   12.2378   -3.4545 H   0  0  0  0  0  0  0  0  0  0  0  0
   44.8271   10.5913   -5.9339 C   0  0  0  0  0  0  0  0  0  0  0  0
   45.7786   11.1449   -6.9514 C   0  0  0  0  0  0  0  0  0  0  0  0
   46.5779   12.2367   -6.7346 C   0  0  0  0  0  0  0  0  0  0  0  0
   47.4412   12.7002   -7.7095 C   0  0  0  0  0  0  0  0  0  0  0  0
   47.5259   12.0763   -8.9344 C   0  0  0  0  0  0  0  0  0  0  0  0
   48.3986   12.5394   -9.9272 O   0  0  0  0  0  0  0  0  0  0  0  0
   46.7262   10.9752   -9.1657 C   0  0  0  0  0  0  0  0  0  0  0  0
   45.8702   10.5274   -8.1802 C   0  0  0  0  0  0  0  0  0  0  0  0
   49.3472   12.1880   -9.9839 H   0  0  0  0  0  0  0  0  0  0  0  0
   40.6609   14.6144   -6.6926 C   0  0  0  0  0  0  0  0  0  0  0  0
   40.9661   14.8701   -5.2589 C   0  0  0  0  0  0  0  0  0  0  0  0
   39.4290   13.7061   -6.8384 C   0  0  0  0  0  0  0  0  0  0  0  0
   39.1523   14.7940  -11.8857 N   0  0  0  0  0  0  0  0  0  0  0  0
   39.7829   15.0469  -13.1086 C   0  0  0  0  0  0  0  0  0  0  0  0
   39.0829   15.6036  -14.0026 O   0  0  0  0  0  0  0  0  0  0  0  0
   39.7477   14.3473  -11.1484 H   0  0  0  0  0  0  0  0  0  0  0  0
   37.7911   15.0992  -11.5569 C   0  0  0  0  0  0  0  0  0  0  0  0
   36.8556   14.2024  -12.2625 C   0  0  0  0  0  0  0  0  0  0  0  0
   36.2833   13.3003  -11.6358 O   0  0  0  0  0  0  0  0  0  0  0  0
   36.5704   14.3346  -13.6624 N   0  0  0  0  0  0  0  0  0  0  0  0
   37.0992   15.1193  -14.1817 H   0  0  0  0  0  0  0  0  0  0  0  0
   35.6653   13.5336  -14.4137 C   0  0  0  0  0  0  0  0  0  0  0  0
   34.2205   13.7962  -14.1549 C   0  0  0  0  0  0  0  0  0  0  0  0
   33.5232   14.7177  -14.9889 N   0  0  0  0  0  0  0  0  0  0  0  0
   33.5828   13.2494  -13.2407 O   0  0  0  0  0  0  0  0  0  0  0  0
   33.1586   14.5059  -15.9346 H   0  0  0  0  0  0  0  0  0  0  0  0
   33.3717   15.6759  -14.6125 H   0  0  0  0  0  0  0  0  0  0  0  0
   35.9715   12.0772  -14.4967 C   0  0  0  0  0  0  0  0  0  0  0  0
   36.8515   11.6965  -15.6233 C   0  0  0  0  0  0  0  0  0  0  0  0
   36.3731   11.1324  -16.7834 C   0  0  0  0  0  0  0  0  0  0  0  0
   37.2091   10.7714  -17.8262 C   0  0  0  0  0  0  0  0  0  0  0  0
   38.5796   10.9879  -17.6934 C   0  0  0  0  0  0  0  0  0  0  0  0
   39.0928   11.5488  -16.5490 C   0  0  0  0  0  0  0  0  0  0  0  0
   38.2133   11.8932  -15.5319 C   0  0  0  0  0  0  0  0  0  0  0  0
   37.4100   16.5228  -11.4924 C   0  0  0  0  0  0  0  0  0  0  0  0
   37.1435   16.0632   -9.0685 C   0  0  0  0  0  0  0  0  0  0  0  0
   36.9911   17.1087  -10.2009 C   0  0  0  0  0  0  0  0  0  0  0  0
   38.0205   18.1838   -9.8059 C   0  0  0  0  0  0  0  0  0  0  0  0
   41.3806   13.4885  -14.2732 C   0  0  0  0  0  0  0  0  0  0  0  0
   42.6986   13.3238  -14.9027 C   0  0  0  0  0  0  0  0  0  0  0  0
   42.8040   12.5682  -16.0468 C   0  0  0  0  0  0  0  0  0  0  0  0
   44.0048   12.3880  -16.6995 C   0  0  0  0  0  0  0  0  0  0  0  0
   45.1410   12.9857  -16.1891 C   0  0  0  0  0  0  0  0  0  0  0  0
   45.0699   13.7489  -15.0452 C   0  0  0  0  0  0  0  0  0  0  0  0
   43.8418   13.9071  -14.4158 C   0  0  0  0  0  0  0  0  0  0  0  0
 57 58  1  0  0  0
 58 59  1  0  0  0
 58 56  1  0  0  0
 56 38  1  0  0  0
 38 34  1  0  0  0
 34 35  1  0  0  0
 35 36  2  0  0  0
 35  1  1  0  0  0
  1 60  1  0  0  0
 60 61  1  0  0  0
 61 62  2  0  0  0
 62 63  1  0  0  0
 63 64  2  0  0  0
 64 65  1  0  0  0
 65 66  2  0  0  0
  1  2  1  0  0  0
  2  3  1  0  0  0
  3  4  2  0  0  0
  3  6  1  0  0  0
  6  7  1  0  0  0
  7  8  1  0  0  0
  8  9  1  0  0  0
  9 10  1  0  0  0
 10 11  1  0  0  0
 11 12  2  0  0  0
 11 13  1  0  0  0
 13 14  1  0  0  0
 14 15  1  0  0  0
 15 16  2  0  0  0
 15 18  1  0  0  0
 18 19  1  0  0  0
 18 22  1  0  0  0
 22 23  1  0  0  0
 23 24  2  0  0  0
 24 25  1  0  0  0
 25 26  2  0  0  0
 26 27  1  0  0  0
 26 28  1  0  0  0
 28 29  2  0  0  0
 13 31  1  0  0  0
 31 32  1  0  0  0
 31 33  1  0  0  0
 38 39  1  0  0  0
 39 40  2  0  0  0
 39 41  1  0  0  0
 41 43  1  0  0  0
 43 49  1  0  0  0
 49 50  1  0  0  0
 50 51  2  0  0  0
 51 52  1  0  0  0
 52 53  2  0  0  0
 53 54  1  0  0  0
 54 55  2  0  0  0
 43 44  1  0  0  0
 44 45  1  0  0  0
 44 46  2  0  0  0
 66 61  1  0  0  0
 10  6  1  0  0  0
 29 23  1  0  0  0
 55 50  1  0  0  0
 34 37  1  0  0  0
  2  5  1  0  0  0
 14 17  1  0  0  0
 19 20  1  0  0  0
 19 21  1  0  0  0
 27 30  1  0  0  0
 41 42  1  0  0  0
 45 47  1  0  0  0
 45 48  1  0  0  0
M  END
> <minimizedAffinity>
-8.59903

> <CNNscore>
0.2907758355

> <CNNaffinity>
7.7348527908

> <CNN_VS>
2.2491083145

> <CNNaffinity_variance>
0.5808942914

$$$$
[H]Oc1c([H])c([H])c(C([H])([H])[C@@]([H])(C(=O)N([H])[C@]([H])(C(=O)N2C([H])([H])C([H])([H])C([H])([H])[C@@]2([H])C(=O)N([H])[C@]([H])(C(=O)N([H])[C@]([H])(C(=O)N([H])[C@]([H])(C(=O)N([H])[H])C([H])([H])c2c([H])c([H])c([H])c([H])c2[H])C([H])([H])C([H])(C([H])([H])[H])C([H])([H])[H])C([H])([H])c2c([H])c([H])c([H])c([H])c2[H])C([H])(C([H])([H])[H])C([H])([H])[H])N([H])[H])c([H])c1[H]


 66 69  0  0  0  0  0  0  0  0999 V2000
   36.9234   15.7480   -9.5096 C   0  0  0  0  0  0  0  0  0  0  0  0
   37.6699   15.5686   -8.2533 N   0  0  0  0  0  0  0  0  0  0  0  0
   37.3270   14.5267   -7.3550 C   0  0  0  0  0  0  0  0  0  0  0  0
   36.3542   13.7857   -7.7016 O   0  0  0  0  0  0  0  0  0  0  0  0
   38.4589   16.1935   -7.9950 H   0  0  0  0  0  0  0  0  0  0  0  0
   37.9973   14.2447   -6.0861 C   0  0  0  0  0  0  0  0  0  0  0  0
   37.4218   14.9271   -4.8872 C   0  0  0  0  0  0  0  0  0  0  0  0
   38.0143   16.3103   -4.9351 C   0  0  0  0  0  0  0  0  0  0  0  0
   39.1967   16.1843   -5.8910 C   0  0  0  0  0  0  0  0  0  0  0  0
   39.3617   14.7665   -6.1147 N   0  0  0  0  0  0  0  0  0  0  0  0
   40.5775   14.0901   -6.2775 C   0  0  0  0  0  0  0  0  0  0  0  0
   40.5013   12.8265   -6.3720 O   0  0  0  0  0  0  0  0  0  0  0  0
   41.9192   14.6955   -6.3477 C   0  0  0  0  0  0  0  0  0  0  0  0
   42.9289   13.7532   -5.9151 N   0  0  0  0  0  0  0  0  0  0  0  0
   43.7901   13.9429   -4.8358 C   0  0  0  0  0  0  0  0  0  0  0  0
   43.7225   14.9920   -4.1616 O   0  0  0  0  0  0  0  0  0  0  0  0
   42.9940   12.8760   -6.4709 H   0  0  0  0  0  0  0  0  0  0  0  0
   44.7899   12.9265   -4.4663 C   0  0  0  0  0  0  0  0  0  0  0  0
   44.5974   12.5202   -3.0577 N   0  0  0  0  0  0  0  0  0  0  0  0
   43.5618   12.5865   -2.8905 H   0  0  0  0  0  0  0  0  0  0  0  0
   45.0198   13.2626   -2.4235 H   0  0  0  0  0  0  0  0  0  0  0  0
   44.6718   11.6740   -5.3279 C   0  0  0  0  0  0  0  0  0  0  0  0
   43.8912   10.6757   -4.5272 C   0  0  0  0  0  0  0  0  0  0  0  0
   42.5376   10.7491   -4.3260 C   0  0  0  0  0  0  0  0  0  0  0  0
   41.8690    9.7955   -3.5815 C   0  0  0  0  0  0  0  0  0  0  0  0
   42.5450    8.7369   -3.0165 C   0  0  0  0  0  0  0  0  0  0  0  0
   41.8746    7.7662   -2.2614 O   0  0  0  0  0  0  0  0  0  0  0  0
   43.9088    8.6511   -3.2116 C   0  0  0  0  0  0  0  0  0  0  0  0
   44.5589    9.6130   -3.9576 C   0  0  0  0  0  0  0  0  0  0  0  0
   41.4960    6.9385   -2.7063 H   0  0  0  0  0  0  0  0  0  0  0  0
   42.2145   15.2372   -7.7239 C   0  0  0  0  0  0  0  0  0  0  0  0
   42.9401   14.2944   -8.6177 C   0  0  0  0  0  0  0  0  0  0  0  0
   42.9578   16.5792   -7.6215 C   0  0  0  0  0  0  0  0  0  0  0  0
   39.1549   15.3911  -10.7594 N   0  0  0  0  0  0  0  0  0  0  0  0
   37.8606   15.9079  -10.6373 C   0  0  0  0  0  0  0  0  0  0  0  0
   37.4352   16.6044  -11.6032 O   0  0  0  0  0  0  0  0  0  0  0  0
   39.4892   14.8026   -9.9597 H   0  0  0  0  0  0  0  0  0  0  0  0
   40.0413   15.5836  -11.8691 C   0  0  0  0  0  0  0  0  0  0  0  0
   39.4578   15.0576  -13.1182 C   0  0  0  0  0  0  0  0  0  0  0  0
   39.8820   15.4625  -14.2091 O   0  0  0  0  0  0  0  0  0  0  0  0
   38.4090   14.0785  -13.1254 N   0  0  0  0  0  0  0  0  0  0  0  0
   38.0508   13.7606  -12.1582 H   0  0  0  0  0  0  0  0  0  0  0  0
   37.8095   13.4996  -14.2790 C   0  0  0  0  0  0  0  0  0  0  0  0
   36.3431   13.7324  -14.4165 C   0  0  0  0  0  0  0  0  0  0  0  0
   35.7556   14.8556  -13.7654 N   0  0  0  0  0  0  0  0  0  0  0  0
   35.5957   12.9918  -15.0754 O   0  0  0  0  0  0  0  0  0  0  0  0
   35.7885   15.8299  -14.1144 H   0  0  0  0  0  0  0  0  0  0  0  0
   35.2558   14.6762  -12.8705 H   0  0  0  0  0  0  0  0  0  0  0  0
   38.1938   12.0954  -14.5990 C   0  0  0  0  0  0  0  0  0  0  0  0
   38.9229   11.9326  -15.8759 C   0  0  0  0  0  0  0  0  0  0  0  0
   40.1579   12.4941  -16.1045 C   0  0  0  0  0  0  0  0  0  0  0  0
   40.8248   12.3422  -17.3081 C   0  0  0  0  0  0  0  0  0  0  0  0
   40.2228   11.5953  -18.3193 C   0  0  0  0  0  0  0  0  0  0  0  0
   38.9900   11.0202  -18.1266 C   0  0  0  0  0  0  0  0  0  0  0  0
   38.3620   11.2020  -16.9022 C   0  0  0  0  0  0  0  0  0  0  0  0
   41.4742   15.3100  -11.6501 C   0  0  0  0  0  0  0  0  0  0  0  0
   43.5688   16.6252  -11.4500 C   0  0  0  0  0  0  0  0  0  0  0  0
   42.4876   16.0720  -12.4110 C   0  0  0  0  0  0  0  0  0  0  0  0
   43.2845   15.0782  -13.2765 C   0  0  0  0  0  0  0  0  0  0  0  0
   35.9754   16.8671   -9.2723 C   0  0  0  0  0  0  0  0  0  0  0  0
   36.4318   17.9284   -8.3636 C   0  0  0  0  0  0  0  0  0  0  0  0
   37.4946   18.7175   -8.7366 C   0  0  0  0  0  0  0  0  0  0  0  0
   37.9621   19.7425   -7.9422 C   0  0  0  0  0  0  0  0  0  0  0  0
   37.3439   19.9870   -6.7311 C   0  0  0  0  0  0  0  0  0  0  0  0
   36.2770   19.2154   -6.3280 C   0  0  0  0  0  0  0  0  0  0  0  0
   35.8346   18.1916   -7.1559 C   0  0  0  0  0  0  0  0  0  0  0  0
 57 58  1  0  0  0
 58 59  1  0  0  0
 58 56  1  0  0  0
 56 38  1  0  0  0
 38 34  1  0  0  0
 34 35  1  0  0  0
 35 36  2  0  0  0
 35  1  1  0  0  0
  1 60  1  0  0  0
 60 61  1  0  0  0
 61 62  2  0  0  0
 62 63  1  0  0  0
 63 64  2  0  0  0
 64 65  1  0  0  0
 65 66  2  0  0  0
  1  2  1  0  0  0
  2  3  1  0  0  0
  3  4  2  0  0  0
  3  6  1  0  0  0
  6  7  1  0  0  0
  7  8  1  0  0  0
  8  9  1  0  0  0
  9 10  1  0  0  0
 10 11  1  0  0  0
 11 12  2  0  0  0
 11 13  1  0  0  0
 13 14  1  0  0  0
 14 15  1  0  0  0
 15 16  2  0  0  0
 15 18  1  0  0  0
 18 19  1  0  0  0
 18 22  1  0  0  0
 22 23  1  0  0  0
 23 24  2  0  0  0
 24 25  1  0  0  0
 25 26  2  0  0  0
 26 27  1  0  0  0
 26 28  1  0  0  0
 28 29  2  0  0  0
 13 31  1  0  0  0
 31 32  1  0  0  0
 31 33  1  0  0  0
 38 39  1  0  0  0
 39 40  2  0  0  0
 39 41  1  0  0  0
 41 43  1  0  0  0
 43 49  1  0  0  0
 49 50  1  0  0  0
 50 51  2  0  0  0
 51 52  1  0  0  0
 52 53  2  0  0  0
 53 54  1  0  0  0
 54 55  2  0  0  0
 43 44  1  0  0  0
 44 45  1  0  0  0
 44 46  2  0  0  0
 66 61  1  0  0  0
 10  6  1  0  0  0
 29 23  1  0  0  0
 55 50  1  0  0  0
 34 37  1  0  0  0
  2  5  1  0  0  0
 14 17  1  0  0  0
 19 20  1  0  0  0
 19 21  1  0  0  0
 27 30  1  0  0  0
 41 42  1  0  0  0
 45 47  1  0  0  0
 45 48  1  0  0  0
M  END
> <minimizedAffinity>
-9.17257

> <CNNscore>
0.2870594263

> <CNNaffinity>
7.0892515182

> <CNN_VS>
2.0350365639

> <CNNaffinity_variance>
0.8410969973

$$$$
[H]c1nc(N2C([H])([H])C([H])([H])N([H])C([H])([H])C2([H])[H])c([H])c([H])c1-c1c([H])nc2c(-c3c([H])c([H])c([H])c4c([H])c([H])c([H])c([H])c34)c([H])nn2c1[H]


 32 37  0  0  0  0  0  0  0  0999 V2000
   41.0476   12.4561  -16.0008 C   0  0  0  0  0  0  0  0  0  0  0  0
   39.9976   12.5875  -15.1332 C   0  0  0  0  0  0  0  0  0  0  0  0
   38.7754   12.1984  -15.5136 N   0  0  0  0  0  0  0  0  0  0  0  0
   38.5893   11.6913  -16.7265 C   0  0  0  0  0  0  0  0  0  0  0  0
   37.4050   11.2512  -17.3159 C   0  0  0  0  0  0  0  0  0  0  0  0
   37.7567   10.8475  -18.5730 C   0  0  0  0  0  0  0  0  0  0  0  0
   39.0965   11.0422  -18.7177 N   0  0  0  0  0  0  0  0  0  0  0  0
   39.6154   11.5545  -17.5999 N   0  0  0  0  0  0  0  0  0  0  0  0
   40.8602   11.9334  -17.2517 C   0  0  0  0  0  0  0  0  0  0  0  0
   36.0973   11.1594  -16.6963 C   0  0  0  0  0  0  0  0  0  0  0  0
   35.2620   10.0701  -16.9873 C   0  0  0  0  0  0  0  0  0  0  0  0
   34.0015    9.9241  -16.4987 C   0  0  0  0  0  0  0  0  0  0  0  0
   33.4830   10.8874  -15.6635 C   0  0  0  0  0  0  0  0  0  0  0  0
   34.2714   11.9701  -15.3535 C   0  0  0  0  0  0  0  0  0  0  0  0
   33.7492   12.9194  -14.4974 C   0  0  0  0  0  0  0  0  0  0  0  0
   34.5300   13.9989  -14.1585 C   0  0  0  0  0  0  0  0  0  0  0  0
   35.8018   14.1651  -14.6381 C   0  0  0  0  0  0  0  0  0  0  0  0
   36.3319   13.2057  -15.5044 C   0  0  0  0  0  0  0  0  0  0  0  0
   35.5685   12.1238  -15.8544 C   0  0  0  0  0  0  0  0  0  0  0  0
   44.9417   13.8487  -14.9043 C   0  0  0  0  0  0  0  0  0  0  0  0
   44.7607   13.0594  -16.0281 C   0  0  0  0  0  0  0  0  0  0  0  0
   43.4992   12.5815  -16.4071 C   0  0  0  0  0  0  0  0  0  0  0  0
   42.4028   12.9051  -15.6379 C   0  0  0  0  0  0  0  0  0  0  0  0
   42.6403   13.6950  -14.5285 C   0  0  0  0  0  0  0  0  0  0  0  0
   43.8529   14.1505  -14.1706 N   0  0  0  0  0  0  0  0  0  0  0  0
   48.6622   14.0190  -15.0171 C   0  0  0  0  0  0  0  0  0  0  0  0
   47.3503   13.3820  -14.6907 C   0  0  0  0  0  0  0  0  0  0  0  0
   46.2430   14.2836  -14.5719 N   0  0  0  0  0  0  0  0  0  0  0  0
   46.4512   15.6340  -14.1279 C   0  0  0  0  0  0  0  0  0  0  0  0
   47.7331   16.1843  -14.7514 C   0  0  0  0  0  0  0  0  0  0  0  0
   48.8081   15.3026  -14.3149 N   0  0  0  0  0  0  0  0  0  0  0  0
   49.7503   15.6709  -14.6270 H   0  0  0  0  0  0  0  0  0  0  0  0
 26 27  1  0  0  0
 27 28  1  0  0  0
 28 29  1  0  0  0
 29 30  1  0  0  0
 30 31  1  0  0  0
 28 20  1  0  0  0
 20 21  2  0  0  0
 21 22  1  0  0  0
 22 23  2  0  0  0
 23 24  1  0  0  0
 24 25  2  0  0  0
 23  1  1  0  0  0
  1  2  1  0  0  0
  2  3  2  0  0  0
  3  4  1  0  0  0
  4  5  2  0  0  0
  5  6  1  0  0  0
  6  7  2  0  0  0
  7  8  1  0  0  0
  8  9  1  0  0  0
  5 10  1  0  0  0
 10 11  2  0  0  0
 11 12  1  0  0  0
 12 13  2  0  0  0
 13 14  1  0  0  0
 14 15  2  0  0  0
 15 16  1  0  0  0
 16 17  2  0  0  0
 17 18  1  0  0  0
 18 19  2  0  0  0
 31 26  1  0  0  0
 25 20  1  0  0  0
  9  1  2  0  0  0
 19 10  1  0  0  0
  8  4  1  0  0  0
 19 14  1  0  0  0
 31 32  1  0  0  0
M  END
> <minimizedAffinity>
-9.76539

> <CNNscore>
0.8530243039

> <CNNaffinity>
7.5067949295

> <CNN_VS>
6.4034786224

> <CNNaffinity_variance>
0.2364252359

$$$$
[H]c1nc(N2C([H])([H])C([H])([H])N([H])C([H])([H])C2([H])[H])c([H])c([H])c1-c1c([H])nc2c(-c3c([H])c([H])c([H])c4c([H])c([H])c([H])c([H])c34)c([H])nn2c1[H]


 32 37  0  0  0  0  0  0  0  0999 V2000
   41.7797   13.6379  -14.7378 C   0  0  0  0  0  0  0  0  0  0  0  0
   40.5170   13.8124  -14.2404 C   0  0  0  0  0  0  0  0  0  0  0  0
   39.4825   13.2151  -14.8431 N   0  0  0  0  0  0  0  0  0  0  0  0
   39.6867   12.4616  -15.9171 C   0  0  0  0  0  0  0  0  0  0  0  0
   38.7522   11.7782  -16.6938 C   0  0  0  0  0  0  0  0  0  0  0  0
   39.4769   11.1799  -17.6857 C   0  0  0  0  0  0  0  0  0  0  0  0
   40.7875   11.4988  -17.4997 N   0  0  0  0  0  0  0  0  0  0  0  0
   40.9286   12.2779  -16.4253 N   0  0  0  0  0  0  0  0  0  0  0  0
   41.9945   12.8615  -15.8444 C   0  0  0  0  0  0  0  0  0  0  0  0
   37.3282   11.6564  -16.4491 C   0  0  0  0  0  0  0  0  0  0  0  0
   36.4638   11.3312  -17.5056 C   0  0  0  0  0  0  0  0  0  0  0  0
   35.1119   11.2473  -17.3862 C   0  0  0  0  0  0  0  0  0  0  0  0
   34.5233   11.4906  -16.1661 C   0  0  0  0  0  0  0  0  0  0  0  0
   35.3370   11.8114  -15.1055 C   0  0  0  0  0  0  0  0  0  0  0  0
   34.7376   12.0320  -13.8812 C   0  0  0  0  0  0  0  0  0  0  0  0
   35.5362   12.3332  -12.8036 C   0  0  0  0  0  0  0  0  0  0  0  0
   36.8992   12.4218  -12.9012 C   0  0  0  0  0  0  0  0  0  0  0  0
   37.5074   12.1990  -14.1390 C   0  0  0  0  0  0  0  0  0  0  0  0
   36.7281   11.8988  -15.2245 C   0  0  0  0  0  0  0  0  0  0  0  0
   45.2197   15.4961  -13.0006 C   0  0  0  0  0  0  0  0  0  0  0  0
   43.9617   15.6763  -12.4497 C   0  0  0  0  0  0  0  0  0  0  0  0
   42.8159   15.0878  -13.0014 C   0  0  0  0  0  0  0  0  0  0  0  0
   42.9428   14.3056  -14.1287 C   0  0  0  0  0  0  0  0  0  0  0  0
   44.2204   14.1594  -14.6362 C   0  0  0  0  0  0  0  0  0  0  0  0
   45.3154   14.7262  -14.1019 N   0  0  0  0  0  0  0  0  0  0  0  0
   48.7773   16.4798  -12.4905 C   0  0  0  0  0  0  0  0  0  0  0  0
   47.6265   15.5265  -12.4794 C   0  0  0  0  0  0  0  0  0  0  0  0
   46.3297   16.1309  -12.4020 N   0  0  0  0  0  0  0  0  0  0  0  0
   46.1539   17.3877  -11.7285 C   0  0  0  0  0  0  0  0  0  0  0  0
   47.3322   18.3067  -12.0474 C   0  0  0  0  0  0  0  0  0  0  0  0
   48.5265   17.6112  -11.5855 N   0  0  0  0  0  0  0  0  0  0  0  0
   49.3837   18.2248  -11.6829 H   0  0  0  0  0  0  0  0  0  0  0  0
 26 27  1  0  0  0
 27 28  1  0  0  0
 28 29  1  0  0  0
 29 30  1  0  0  0
 30 31  1  0  0  0
 28 20  1  0  0  0
 20 21  2  0  0  0
 21 22  1  0  0  0
 22 23  2  0  0  0
 23 24  1  0  0  0
 24 25  2  0  0  0
 23  1  1  0  0  0
  1  2  1  0  0  0
  2  3  2  0  0  0
  3  4  1  0  0  0
  4  5  2  0  0  0
  5  6  1  0  0  0
  6  7  2  0  0  0
  7  8  1  0  0  0
  8  9  1  0  0  0
  5 10  1  0  0  0
 10 11  2  0  0  0
 11 12  1  0  0  0
 12 13  2  0  0  0
 13 14  1  0  0  0
 14 15  2  0  0  0
 15 16  1  0  0  0
 16 17  2  0  0  0
 17 18  1  0  0  0
 18 19  2  0  0  0
 31 26  1  0  0  0
 25 20  1  0  0  0
  9  1  2  0  0  0
 19 10  1  0  0  0
  8  4  1  0  0  0
 19 14  1  0  0  0
 31 32  1  0  0  0
M  END
> <minimizedAffinity>
-9.42751

> <CNNscore>
0.6893259287

> <CNNaffinity>
7.0342216492

> <CNN_VS>
4.8488712311

> <CNNaffinity_variance>
0.3632366657

$$$$
[H]c1nc(N2C([H])([H])C([H])([H])N([H])C([H])([H])C2([H])[H])c([H])c([H])c1-c1c([H])nc2c(-c3c([H])c([H])c([H])c4c([H])c([H])c([H])c([H])c34)c([H])nn2c1[H]


 32 37  0  0  0  0  0  0  0  0999 V2000
   41.6639   13.4528  -14.8761 C   0  0  0  0  0  0  0  0  0  0  0  0
   40.5882   13.9250  -14.1744 C   0  0  0  0  0  0  0  0  0  0  0  0
   39.3513   13.5910  -14.5600 N   0  0  0  0  0  0  0  0  0  0  0  0
   39.1761   12.8085  -15.6182 C   0  0  0  0  0  0  0  0  0  0  0  0
   37.9831   12.3666  -16.1885 C   0  0  0  0  0  0  0  0  0  0  0  0
   38.3563   11.6105  -17.2637 C   0  0  0  0  0  0  0  0  0  0  0  0
   39.7166   11.6073  -17.3236 N   0  0  0  0  0  0  0  0  0  0  0  0
   40.2277   12.3323  -16.3264 N   0  0  0  0  0  0  0  0  0  0  0  0
   41.4875   12.6454  -15.9671 C   0  0  0  0  0  0  0  0  0  0  0  0
   36.6384   12.5891  -15.6940 C   0  0  0  0  0  0  0  0  0  0  0  0
   36.3712   13.6935  -14.8706 C   0  0  0  0  0  0  0  0  0  0  0  0
   35.1576   13.9552  -14.3162 C   0  0  0  0  0  0  0  0  0  0  0  0
   34.1043   13.1031  -14.5585 C   0  0  0  0  0  0  0  0  0  0  0  0
   34.3258   12.0096  -15.3618 C   0  0  0  0  0  0  0  0  0  0  0  0
   33.2566   11.1735  -15.6158 C   0  0  0  0  0  0  0  0  0  0  0  0
   33.4528   10.0863  -16.4339 C   0  0  0  0  0  0  0  0  0  0  0  0
   34.6659    9.8047  -17.0033 C   0  0  0  0  0  0  0  0  0  0  0  0
   35.7488   10.6494  -16.7474 C   0  0  0  0  0  0  0  0  0  0  0  0
   35.5729   11.7370  -15.9337 C   0  0  0  0  0  0  0  0  0  0  0  0
   45.6272   14.6212  -13.7661 C   0  0  0  0  0  0  0  0  0  0  0  0
   45.4011   13.8815  -14.9151 C   0  0  0  0  0  0  0  0  0  0  0  0
   44.1157   13.4771  -15.2995 C   0  0  0  0  0  0  0  0  0  0  0  0
   43.0413   13.8245  -14.5098 C   0  0  0  0  0  0  0  0  0  0  0  0
   43.3239   14.5627  -13.3756 C   0  0  0  0  0  0  0  0  0  0  0  0
   44.5592   14.9478  -13.0127 N   0  0  0  0  0  0  0  0  0  0  0  0
   48.6411   16.7882  -13.4430 C   0  0  0  0  0  0  0  0  0  0  0  0
   47.6352   15.9802  -14.1971 C   0  0  0  0  0  0  0  0  0  0  0  0
   46.9500   14.9825  -13.4303 N   0  0  0  0  0  0  0  0  0  0  0  0
   47.5976   14.3554  -12.3117 C   0  0  0  0  0  0  0  0  0  0  0  0
   48.4013   15.3986  -11.5367 C   0  0  0  0  0  0  0  0  0  0  0  0
   49.3675   15.9489  -12.4786 N   0  0  0  0  0  0  0  0  0  0  0  0
   50.0320   16.6153  -11.9937 H   0  0  0  0  0  0  0  0  0  0  0  0
 26 27  1  0  0  0
 27 28  1  0  0  0
 28 29  1  0  0  0
 29 30  1  0  0  0
 30 31  1  0  0  0
 28 20  1  0  0  0
 20 21  2  0  0  0
 21 22  1  0  0  0
 22 23  2  0  0  0
 23 24  1  0  0  0
 24 25  2  0  0  0
 23  1  1  0  0  0
  1  2  1  0  0  0
  2  3  2  0  0  0
  3  4  1  0  0  0
  4  5  2  0  0  0
  5  6  1  0  0  0
  6  7  2  0  0  0
  7  8  1  0  0  0
  8  9  1  0  0  0
  5 10  1  0  0  0
 10 11  2  0  0  0
 11 12  1  0  0  0
 12 13  2  0  0  0
 13 14  1  0  0  0
 14 15  2  0  0  0
 15 16  1  0  0  0
 16 17  2  0  0  0
 17 18  1  0  0  0
 18 19  2  0  0  0
 31 26  1  0  0  0
 25 20  1  0  0  0
  9  1  2  0  0  0
 19 10  1  0  0  0
  8  4  1  0  0  0
 19 14  1  0  0  0
 31 32  1  0  0  0
M  END
> <minimizedAffinity>
-8.74402

> <CNNscore>
0.5224342346

> <CNNaffinity>
6.8629517555

> <CNN_VS>
3.5854408741

> <CNNaffinity_variance>
0.2749885321

$$$$
[H]c1nc(N2C([H])([H])C([H])([H])N([H])C([H])([H])C2([H])[H])c([H])c([H])c1-c1c([H])nc2c(-c3c([H])c([H])c([H])c4c([H])c([H])c([H])c([H])c34)c([H])nn2c1[H]


 32 37  0  0  0  0  0  0  0  0999 V2000
   43.0359   14.7450  -12.4733 C   0  0  0  0  0  0  0  0  0  0  0  0
   43.2365   13.7054  -13.3401 C   0  0  0  0  0  0  0  0  0  0  0  0
   42.2619   13.3561  -14.1876 N   0  0  0  0  0  0  0  0  0  0  0  0
   41.1100   14.0163  -14.1806 C   0  0  0  0  0  0  0  0  0  0  0  0
   39.9747   13.7983  -14.9598 C   0  0  0  0  0  0  0  0  0  0  0  0
   39.0683   14.7330  -14.5451 C   0  0  0  0  0  0  0  0  0  0  0  0
   39.6481   15.4727  -13.5599 N   0  0  0  0  0  0  0  0  0  0  0  0
   40.8918   15.0470  -13.3294 N   0  0  0  0  0  0  0  0  0  0  0  0
   41.8502   15.4285  -12.4633 C   0  0  0  0  0  0  0  0  0  0  0  0
   39.8211   12.8426  -16.0393 C   0  0  0  0  0  0  0  0  0  0  0  0
   40.9049   12.5668  -16.8869 C   0  0  0  0  0  0  0  0  0  0  0  0
   40.8426   11.7288  -17.9559 C   0  0  0  0  0  0  0  0  0  0  0  0
   39.6571   11.0955  -18.2520 C   0  0  0  0  0  0  0  0  0  0  0  0
   38.5719   11.3390  -17.4440 C   0  0  0  0  0  0  0  0  0  0  0  0
   37.3936   10.6816  -17.7375 C   0  0  0  0  0  0  0  0  0  0  0  0
   36.3029   10.8956  -16.9285 C   0  0  0  0  0  0  0  0  0  0  0  0
   36.3437   11.7342  -15.8468 C   0  0  0  0  0  0  0  0  0  0  0  0
   37.5350   12.4003  -15.5484 C   0  0  0  0  0  0  0  0  0  0  0  0
   38.6320   12.2006  -16.3436 C   0  0  0  0  0  0  0  0  0  0  0  0
   46.0015   15.9948   -9.6541 C   0  0  0  0  0  0  0  0  0  0  0  0
   46.2019   14.8759  -10.4456 C   0  0  0  0  0  0  0  0  0  0  0  0
   45.2454   14.4375  -11.3711 C   0  0  0  0  0  0  0  0  0  0  0  0
   44.0669   15.1401  -11.4983 C   0  0  0  0  0  0  0  0  0  0  0  0
   43.9195   16.2480  -10.6846 C   0  0  0  0  0  0  0  0  0  0  0  0
   44.8411   16.6634   -9.7992 N   0  0  0  0  0  0  0  0  0  0  0  0
   47.5587   17.8088   -6.7960 C   0  0  0  0  0  0  0  0  0  0  0  0
   47.0015   17.6936   -8.1779 C   0  0  0  0  0  0  0  0  0  0  0  0
   47.0012   16.3719   -8.7312 N   0  0  0  0  0  0  0  0  0  0  0  0
   48.0064   15.4221   -8.3421 C   0  0  0  0  0  0  0  0  0  0  0  0
   48.2758   15.5492   -6.8434 C   0  0  0  0  0  0  0  0  0  0  0  0
   48.7178   16.9204   -6.6250 N   0  0  0  0  0  0  0  0  0  0  0  0
   49.0185   17.0660   -5.6204 H   0  0  0  0  0  0  0  0  0  0  0  0
 26 27  1  0  0  0
 27 28  1  0  0  0
 28 29  1  0  0  0
 29 30  1  0  0  0
 30 31  1  0  0  0
 28 20  1  0  0  0
 20 21  2  0  0  0
 21 22  1  0  0  0
 22 23  2  0  0  0
 23 24  1  0  0  0
 24 25  2  0  0  0
 23  1  1  0  0  0
  1  2  1  0  0  0
  2  3  2  0  0  0
  3  4  1  0  0  0
  4  5  2  0  0  0
  5  6  1  0  0  0
  6  7  2  0  0  0
  7  8  1  0  0  0
  8  9  1  0  0  0
  5 10  1  0  0  0
 10 11  2  0  0  0
 11 12  1  0  0  0
 12 13  2  0  0  0
 13 14  1  0  0  0
 14 15  2  0  0  0
 15 16  1  0  0  0
 16 17  2  0  0  0
 17 18  1  0  0  0
 18 19  2  0  0  0
 31 26  1  0  0  0
 25 20  1  0  0  0
  9  1  2  0  0  0
 19 10  1  0  0  0
  8  4  1  0  0  0
 19 14  1  0  0  0
 31 32  1  0  0  0
M  END
> <minimizedAffinity>
-9.23823

> <CNNscore>
0.1501983255

> <CNNaffinity>
5.6908025742

> <CNN_VS>
0.8547490239

> <CNNaffinity_variance>
0.0479824916

$$$$
[H]c1nc(N2C([H])([H])C([H])([H])N([H])C([H])([H])C2([H])[H])c([H])c([H])c1-c1c([H])nc2c(-c3c([H])c([H])c([H])c4c([H])c([H])c([H])c([H])c34)c([H])nn2c1[H]


 32 37  0  0  0  0  0  0  0  0999 V2000
   36.2959   14.7409  -10.8256 C   0  0  0  0  0  0  0  0  0  0  0  0
   37.1448   13.8960  -11.4875 C   0  0  0  0  0  0  0  0  0  0  0  0
   36.7669   13.3632  -12.6551 N   0  0  0  0  0  0  0  0  0  0  0  0
   35.5744   13.6546  -13.1611 C   0  0  0  0  0  0  0  0  0  0  0  0
   34.9904   13.1930  -14.3398 C   0  0  0  0  0  0  0  0  0  0  0  0
   33.7557   13.7768  -14.3826 C   0  0  0  0  0  0  0  0  0  0  0  0
   33.6185   14.5523  -13.2719 N   0  0  0  0  0  0  0  0  0  0  0  0
   34.7197   14.4874  -12.5206 N   0  0  0  0  0  0  0  0  0  0  0  0
   35.0661   15.0444  -11.3441 C   0  0  0  0  0  0  0  0  0  0  0  0
   35.5980   12.3455  -15.3474 C   0  0  0  0  0  0  0  0  0  0  0  0
   34.8116   11.4147  -16.0431 C   0  0  0  0  0  0  0  0  0  0  0  0
   35.2997   10.5421  -16.9647 C   0  0  0  0  0  0  0  0  0  0  0  0
   36.6447   10.5468  -17.2563 C   0  0  0  0  0  0  0  0  0  0  0  0
   37.4486   11.4455  -16.5961 C   0  0  0  0  0  0  0  0  0  0  0  0
   38.7927   11.4564  -16.9124 C   0  0  0  0  0  0  0  0  0  0  0  0
   39.6095   12.3623  -16.2783 C   0  0  0  0  0  0  0  0  0  0  0  0
   39.1390   13.2503  -15.3481 C   0  0  0  0  0  0  0  0  0  0  0  0
   37.7795   13.2408  -15.0268 C   0  0  0  0  0  0  0  0  0  0  0  0
   36.9503   12.3446  -15.6473 C   0  0  0  0  0  0  0  0  0  0  0  0
   37.4234   16.3600   -7.0293 C   0  0  0  0  0  0  0  0  0  0  0  0
   36.0937   16.3142   -7.4145 C   0  0  0  0  0  0  0  0  0  0  0  0
   35.6951   15.7979   -8.6547 C   0  0  0  0  0  0  0  0  0  0  0  0
   36.6553   15.3213   -9.5204 C   0  0  0  0  0  0  0  0  0  0  0  0
   37.9657   15.3908   -9.0854 C   0  0  0  0  0  0  0  0  0  0  0  0
   38.3414   15.8869   -7.8944 N   0  0  0  0  0  0  0  0  0  0  0  0
   39.4630   18.1273   -4.4601 C   0  0  0  0  0  0  0  0  0  0  0  0
   39.1284   16.9874   -5.3667 C   0  0  0  0  0  0  0  0  0  0  0  0
   37.7562   16.9073   -5.7712 N   0  0  0  0  0  0  0  0  0  0  0  0
   36.7157   17.3931   -4.9079 C   0  0  0  0  0  0  0  0  0  0  0  0
   37.1702   18.6907   -4.2410 C   0  0  0  0  0  0  0  0  0  0  0  0
   38.3785   18.3627   -3.4955 N   0  0  0  0  0  0  0  0  0  0  0  0
   38.7068   19.1904   -2.9230 H   0  0  0  0  0  0  0  0  0  0  0  0
 26 27  1  0  0  0
 27 28  1  0  0  0
 28 29  1  0  0  0
 29 30  1  0  0  0
 30 31  1  0  0  0
 28 20  1  0  0  0
 20 21  2  0  0  0
 21 22  1  0  0  0
 22 23  2  0  0  0
 23 24  1  0  0  0
 24 25  2  0  0  0
 23  1  1  0  0  0
  1  2  1  0  0  0
  2  3  2  0  0  0
  3  4  1  0  0  0
  4  5  2  0  0  0
  5  6  1  0  0  0
  6  7  2  0  0  0
  7  8  1  0  0  0
  8  9  1  0  0  0
  5 10  1  0  0  0
 10 11  2  0  0  0
 11 12  1  0  0  0
 12 13  2  0  0  0
 13 14  1  0  0  0
 14 15  2  0  0  0
 15 16  1  0  0  0
 16 17  2  0  0  0
 17 18  1  0  0  0
 18 19  2  0  0  0
 31 26  1  0  0  0
 25 20  1  0  0  0
  9  1  2  0  0  0
 19 10  1  0  0  0
  8  4  1  0  0  0
 19 14  1  0  0  0
 31 32  1  0  0  0
M  END
> <minimizedAffinity>
-9.11358

> <CNNscore>
0.1381317079

> <CNNaffinity>
5.8401842117

> <CNN_VS>
0.8067145944

> <CNNaffinity_variance>
0.2879241109

$$$$
[H]c1nc(N2C([H])([H])C([H])([H])N([H])C([H])([H])C2([H])[H])c([H])c([H])c1-c1c([H])nc2c(-c3c([H])c([H])c([H])c4c([H])c([H])c([H])c([H])c34)c([H])nn2c1[H]


 32 37  0  0  0  0  0  0  0  0999 V2000
   41.6350   14.7203  -13.4136 C   0  0  0  0  0  0  0  0  0  0  0  0
   41.6164   13.7019  -14.3273 C   0  0  0  0  0  0  0  0  0  0  0  0
   40.4434   13.2294  -14.7643 N   0  0  0  0  0  0  0  0  0  0  0  0
   39.3093   13.7481  -14.3086 C   0  0  0  0  0  0  0  0  0  0  0  0
   37.9987   13.3876  -14.6182 C   0  0  0  0  0  0  0  0  0  0  0  0
   37.2110   14.2127  -13.8659 C   0  0  0  0  0  0  0  0  0  0  0  0
   38.0267   15.0275  -13.1417 N   0  0  0  0  0  0  0  0  0  0  0  0
   39.3069   14.7554  -13.4031 N   0  0  0  0  0  0  0  0  0  0  0  0
   40.4682   15.2581  -12.9418 C   0  0  0  0  0  0  0  0  0  0  0  0
   37.5651   12.4079  -15.5952 C   0  0  0  0  0  0  0  0  0  0  0  0
   38.4867   11.8837  -16.5144 C   0  0  0  0  0  0  0  0  0  0  0  0
   38.1643   11.0034  -17.4993 C   0  0  0  0  0  0  0  0  0  0  0  0
   36.8612   10.5800  -17.6296 C   0  0  0  0  0  0  0  0  0  0  0  0
   35.9283   11.0703  -16.7468 C   0  0  0  0  0  0  0  0  0  0  0  0
   34.6283   10.6221  -16.8731 C   0  0  0  0  0  0  0  0  0  0  0  0
   33.6850   11.0846  -15.9865 C   0  0  0  0  0  0  0  0  0  0  0  0
   33.9879   11.9702  -14.9870 C   0  0  0  0  0  0  0  0  0  0  0  0
   35.3026   12.4249  -14.8577 C   0  0  0  0  0  0  0  0  0  0  0  0
   36.2561   11.9762  -15.7325 C   0  0  0  0  0  0  0  0  0  0  0  0
   45.3634   16.1569  -11.8839 C   0  0  0  0  0  0  0  0  0  0  0  0
   44.1630   16.5655  -11.3265 C   0  0  0  0  0  0  0  0  0  0  0  0
   42.9266   16.1190  -11.8115 C   0  0  0  0  0  0  0  0  0  0  0  0
   42.9022   15.2465  -12.8777 C   0  0  0  0  0  0  0  0  0  0  0  0
   44.1282   14.8715  -13.3948 C   0  0  0  0  0  0  0  0  0  0  0  0
   45.3107   15.3031  -12.9246 N   0  0  0  0  0  0  0  0  0  0  0  0
   48.9091   16.1266  -10.7388 C   0  0  0  0  0  0  0  0  0  0  0  0
   47.4575   15.7847  -10.6424 C   0  0  0  0  0  0  0  0  0  0  0  0
   46.5728   16.6579  -11.3551 N   0  0  0  0  0  0  0  0  0  0  0  0
   46.9154   18.0399  -11.5461 C   0  0  0  0  0  0  0  0  0  0  0  0
   48.4074   18.1579  -11.8544 C   0  0  0  0  0  0  0  0  0  0  0  0
   49.1050   17.5836  -10.7112 N   0  0  0  0  0  0  0  0  0  0  0  0
   50.1518   17.7130  -10.8022 H   0  0  0  0  0  0  0  0  0  0  0  0
 26 27  1  0  0  0
 27 28  1  0  0  0
 28 29  1  0  0  0
 29 30  1  0  0  0
 30 31  1  0  0  0
 28 20  1  0  0  0
 20 21  2  0  0  0
 21 22  1  0  0  0
 22 23  2  0  0  0
 23 24  1  0  0  0
 24 25  2  0  0  0
 23  1  1  0  0  0
  1  2  1  0  0  0
  2  3  2  0  0  0
  3  4  1  0  0  0
  4  5  2  0  0  0
  5  6  1  0  0  0
  6  7  2  0  0  0
  7  8  1  0  0  0
  8  9  1  0  0  0
  5 10  1  0  0  0
 10 11  2  0  0  0
 11 12  1  0  0  0
 12 13  2  0  0  0
 13 14  1  0  0  0
 14 15  2  0  0  0
 15 16  1  0  0  0
 16 17  2  0  0  0
 17 18  1  0  0  0
 18 19  2  0  0  0
 31 26  1  0  0  0
 25 20  1  0  0  0
  9  1  2  0  0  0
 19 10  1  0  0  0
  8  4  1  0  0  0
 19 14  1  0  0  0
 31 32  1  0  0  0
M  END
> <minimizedAffinity>
-9.72050

> <CNNscore>
0.1264372021

> <CNNaffinity>
6.1165966988

> <CNN_VS>
0.7733653784

> <CNNaffinity_variance>
0.0243212264

$$$$
[H]c1nc(N2C([H])([H])C([H])([H])N([H])C([H])([H])C2([H])[H])c([H])c([H])c1-c1c([H])nc2c(-c3c([H])c([H])c([H])c4c([H])c([H])c([H])c([H])c34)c([H])nn2c1[H]


 32 37  0  0  0  0  0  0  0  0999 V2000
   36.5320   14.7527  -11.1979 C   0  0  0  0  0  0  0  0  0  0  0  0
   37.7948   14.8811  -11.7092 C   0  0  0  0  0  0  0  0  0  0  0  0
   38.1344   14.1959  -12.8070 N   0  0  0  0  0  0  0  0  0  0  0  0
   37.2483   13.3972  -13.3898 C   0  0  0  0  0  0  0  0  0  0  0  0
   37.4085   12.5907  -14.5156 C   0  0  0  0  0  0  0  0  0  0  0  0
   36.2076   11.9600  -14.6808 C   0  0  0  0  0  0  0  0  0  0  0  0
   35.3727   12.3796  -13.6904 N   0  0  0  0  0  0  0  0  0  0  0  0
   35.9942   13.2557  -12.8983 N   0  0  0  0  0  0  0  0  0  0  0  0
   35.6154   13.9309  -11.7961 C   0  0  0  0  0  0  0  0  0  0  0  0
   38.5716   12.5072  -15.3774 C   0  0  0  0  0  0  0  0  0  0  0  0
   39.7680   13.1346  -14.9980 C   0  0  0  0  0  0  0  0  0  0  0  0
   40.8925   13.1573  -15.7620 C   0  0  0  0  0  0  0  0  0  0  0  0
   40.8901   12.5349  -16.9895 C   0  0  0  0  0  0  0  0  0  0  0  0
   39.7366   11.9077  -17.3968 C   0  0  0  0  0  0  0  0  0  0  0  0
   39.7522   11.2679  -18.6204 C   0  0  0  0  0  0  0  0  0  0  0  0
   38.6150   10.6168  -19.0359 C   0  0  0  0  0  0  0  0  0  0  0  0
   37.4723   10.5806  -18.2822 C   0  0  0  0  0  0  0  0  0  0  0  0
   37.4545   11.2274  -17.0440 C   0  0  0  0  0  0  0  0  0  0  0  0
   38.5777   11.8824  -16.6137 C   0  0  0  0  0  0  0  0  0  0  0  0
   35.2749   16.8528   -7.6888 C   0  0  0  0  0  0  0  0  0  0  0  0
   36.6052   16.5153   -7.8753 C   0  0  0  0  0  0  0  0  0  0  0  0
   37.0452   15.8203   -9.0098 C   0  0  0  0  0  0  0  0  0  0  0  0
   36.1261   15.4593   -9.9708 C   0  0  0  0  0  0  0  0  0  0  0  0
   34.8131   15.8213   -9.7342 C   0  0  0  0  0  0  0  0  0  0  0  0
   34.3977   16.4884   -8.6441 N   0  0  0  0  0  0  0  0  0  0  0  0
   33.0159   18.4684   -5.2047 C   0  0  0  0  0  0  0  0  0  0  0  0
   33.7279   18.3671   -6.5147 C   0  0  0  0  0  0  0  0  0  0  0  0
   34.8982   17.5405   -6.5147 N   0  0  0  0  0  0  0  0  0  0  0  0
   35.6853   17.3970   -5.3215 C   0  0  0  0  0  0  0  0  0  0  0  0
   34.7605   17.2940   -4.1095 C   0  0  0  0  0  0  0  0  0  0  0  0
   33.9756   18.5216   -4.0919 N   0  0  0  0  0  0  0  0  0  0  0  0
   33.3728   18.5733   -3.2231 H   0  0  0  0  0  0  0  0  0  0  0  0
 26 27  1  0  0  0
 27 28  1  0  0  0
 28 29  1  0  0  0
 29 30  1  0  0  0
 30 31  1  0  0  0
 28 20  1  0  0  0
 20 21  2  0  0  0
 21 22  1  0  0  0
 22 23  2  0  0  0
 23 24  1  0  0  0
 24 25  2  0  0  0
 23  1  1  0  0  0
  1  2  1  0  0  0
  2  3  2  0  0  0
  3  4  1  0  0  0
  4  5  2  0  0  0
  5  6  1  0  0  0
  6  7  2  0  0  0
  7  8  1  0  0  0
  8  9  1  0  0  0
  5 10  1  0  0  0
 10 11  2  0  0  0
 11 12  1  0  0  0
 12 13  2  0  0  0
 13 14  1  0  0  0
 14 15  2  0  0  0
 15 16  1  0  0  0
 16 17  2  0  0  0
 17 18  1  0  0  0
 18 19  2  0  0  0
 31 26  1  0  0  0
 25 20  1  0  0  0
  9  1  2  0  0  0
 19 10  1  0  0  0
  8  4  1  0  0  0
 19 14  1  0  0  0
 31 32  1  0  0  0
M  END
> <minimizedAffinity>
-9.76566

> <CNNscore>
0.1197280884

> <CNNaffinity>
5.8859167099

> <CNN_VS>
0.7047095299

> <CNNaffinity_variance>
0.2064730376

$$$$
[H]c1nc(N2C([H])([H])C([H])([H])N([H])C([H])([H])C2([H])[H])c([H])c([H])c1-c1c([H])nc2c(-c3c([H])c([H])c([H])c4c([H])c([H])c([H])c([H])c34)c([H])nn2c1[H]


 32 37  0  0  0  0  0  0  0  0999 V2000
   40.8161   14.6565  -13.4167 C   0  0  0  0  0  0  0  0  0  0  0  0
   40.6314   13.5906  -14.2546 C   0  0  0  0  0  0  0  0  0  0  0  0
   39.3902   13.2342  -14.6044 N   0  0  0  0  0  0  0  0  0  0  0  0
   38.3494   13.9128  -14.1362 C   0  0  0  0  0  0  0  0  0  0  0  0
   36.9914   13.6920  -14.3609 C   0  0  0  0  0  0  0  0  0  0  0  0
   36.3454   14.6521  -13.6342 C   0  0  0  0  0  0  0  0  0  0  0  0
   37.2871   15.4090  -13.0063 N   0  0  0  0  0  0  0  0  0  0  0  0
   38.5115   14.9697  -13.3048 N   0  0  0  0  0  0  0  0  0  0  0  0
   39.7460   15.3591  -12.9324 C   0  0  0  0  0  0  0  0  0  0  0  0
   36.3963   12.7099  -15.2461 C   0  0  0  0  0  0  0  0  0  0  0  0
   35.0425   12.3699  -15.1021 C   0  0  0  0  0  0  0  0  0  0  0  0
   34.4106   11.4242  -15.8472 C   0  0  0  0  0  0  0  0  0  0  0  0
   35.1146   10.7396  -16.8115 C   0  0  0  0  0  0  0  0  0  0  0  0
   36.4438   11.0450  -16.9840 C   0  0  0  0  0  0  0  0  0  0  0  0
   37.1349   10.3674  -17.9690 C   0  0  0  0  0  0  0  0  0  0  0  0
   38.4597   10.6737  -18.1711 C   0  0  0  0  0  0  0  0  0  0  0  0
   39.1152   11.6229  -17.4332 C   0  0  0  0  0  0  0  0  0  0  0  0
   38.4178   12.3093  -16.4361 C   0  0  0  0  0  0  0  0  0  0  0  0
   37.0974   12.0171  -16.2193 C   0  0  0  0  0  0  0  0  0  0  0  0
   44.7519   15.7292  -12.1270 C   0  0  0  0  0  0  0  0  0  0  0  0
   43.6684   16.5482  -11.8555 C   0  0  0  0  0  0  0  0  0  0  0  0
   42.3696   16.2277  -12.2725 C   0  0  0  0  0  0  0  0  0  0  0  0
   42.1621   15.0613  -12.9762 C   0  0  0  0  0  0  0  0  0  0  0  0
   43.2777   14.2818  -13.2191 C   0  0  0  0  0  0  0  0  0  0  0  0
   44.5208   14.5948  -12.8160 N   0  0  0  0  0  0  0  0  0  0  0  0
   48.4563   16.1238  -12.2029 C   0  0  0  0  0  0  0  0  0  0  0  0
   47.1847   15.3509  -12.0661 C   0  0  0  0  0  0  0  0  0  0  0  0
   46.0361   16.1206  -11.6901 N   0  0  0  0  0  0  0  0  0  0  0  0
   46.1849   17.2976  -10.8799 C   0  0  0  0  0  0  0  0  0  0  0  0
   47.4252   18.0707  -11.3259 C   0  0  0  0  0  0  0  0  0  0  0  0
   48.5513   17.1602  -11.1641 N   0  0  0  0  0  0  0  0  0  0  0  0
   49.4676   17.6521  -11.3622 H   0  0  0  0  0  0  0  0  0  0  0  0
 26 27  1  0  0  0
 27 28  1  0  0  0
 28 29  1  0  0  0
 29 30  1  0  0  0
 30 31  1  0  0  0
 28 20  1  0  0  0
 20 21  2  0  0  0
 21 22  1  0  0  0
 22 23  2  0  0  0
 23 24  1  0  0  0
 24 25  2  0  0  0
 23  1  1  0  0  0
  1  2  1  0  0  0
  2  3  2  0  0  0
  3  4  1  0  0  0
  4  5  2  0  0  0
  5  6  1  0  0  0
  6  7  2  0  0  0
  7  8  1  0  0  0
  8  9  1  0  0  0
  5 10  1  0  0  0
 10 11  2  0  0  0
 11 12  1  0  0  0
 12 13  2  0  0  0
 13 14  1  0  0  0
 14 15  2  0  0  0
 15 16  1  0  0  0
 16 17  2  0  0  0
 17 18  1  0  0  0
 18 19  2  0  0  0
 31 26  1  0  0  0
 25 20  1  0  0  0
  9  1  2  0  0  0
 19 10  1  0  0  0
  8  4  1  0  0  0
 19 14  1  0  0  0
 31 32  1  0  0  0
M  END
> <minimizedAffinity>
-9.62460

> <CNNscore>
0.1151864231

> <CNNaffinity>
6.2267422676

> <CNN_VS>
0.7172361612

> <CNNaffinity_variance>
0.0379720703

$$$$
[H]c1nc(N2C([H])([H])C([H])([H])N([H])C([H])([H])C2([H])[H])c([H])c([H])c1-c1c([H])nc2c(-c3c([H])c([H])c([H])c4c([H])c([H])c([H])c([H])c34)c([H])nn2c1[H]


 32 37  0  0  0  0  0  0  0  0999 V2000
   36.0778   14.5947  -11.1511 C   0  0  0  0  0  0  0  0  0  0  0  0
   37.2228   13.9808  -11.5807 C   0  0  0  0  0  0  0  0  0  0  0  0
   37.2703   13.4621  -12.8131 N   0  0  0  0  0  0  0  0  0  0  0  0
   36.2095   13.5439  -13.6074 C   0  0  0  0  0  0  0  0  0  0  0  0
   36.0501   13.0547  -14.9031 C   0  0  0  0  0  0  0  0  0  0  0  0
   34.7720   13.3834  -15.2575 C   0  0  0  0  0  0  0  0  0  0  0  0
   34.2014   14.0410  -14.2106 N   0  0  0  0  0  0  0  0  0  0  0  0
   35.0669   14.1462  -13.2001 N   0  0  0  0  0  0  0  0  0  0  0  0
   34.9824   14.6817  -11.9671 C   0  0  0  0  0  0  0  0  0  0  0  0
   37.0545   12.4133  -15.7292 C   0  0  0  0  0  0  0  0  0  0  0  0
   36.6935   11.3440  -16.5629 C   0  0  0  0  0  0  0  0  0  0  0  0
   37.5719   10.6464  -17.3315 C   0  0  0  0  0  0  0  0  0  0  0  0
   38.9056   10.9856  -17.3135 C   0  0  0  0  0  0  0  0  0  0  0  0
   39.2989   12.0292  -16.5096 C   0  0  0  0  0  0  0  0  0  0  0  0
   40.6358   12.3749  -16.5158 C   0  0  0  0  0  0  0  0  0  0  0  0
   41.0453   13.4295  -15.7348 C   0  0  0  0  0  0  0  0  0  0  0  0
   40.1778   14.1459  -14.9542 C   0  0  0  0  0  0  0  0  0  0  0  0
   38.8249   13.7976  -14.9465 C   0  0  0  0  0  0  0  0  0  0  0  0
   38.3983   12.7490  -15.7174 C   0  0  0  0  0  0  0  0  0  0  0  0
   35.7268   16.2918   -7.2394 C   0  0  0  0  0  0  0  0  0  0  0  0
   36.6802   15.3242   -7.5102 C   0  0  0  0  0  0  0  0  0  0  0  0
   36.8131   14.7441   -8.7787 C   0  0  0  0  0  0  0  0  0  0  0  0
   35.9684   15.1471   -9.7900 C   0  0  0  0  0  0  0  0  0  0  0  0
   35.0365   16.1151   -9.4650 C   0  0  0  0  0  0  0  0  0  0  0  0
   34.9145   16.6678   -8.2462 N   0  0  0  0  0  0  0  0  0  0  0  0
   34.5121   18.4695   -4.4706 C   0  0  0  0  0  0  0  0  0  0  0  0
   35.2425   18.1872   -5.7435 C   0  0  0  0  0  0  0  0  0  0  0  0
   35.6381   16.8234   -5.9345 N   0  0  0  0  0  0  0  0  0  0  0  0
   35.9335   15.9883   -4.8035 C   0  0  0  0  0  0  0  0  0  0  0  0
   34.9328   16.2724   -3.6842 C   0  0  0  0  0  0  0  0  0  0  0  0
   35.0755   17.6862   -3.3610 N   0  0  0  0  0  0  0  0  0  0  0  0
   34.4812   17.9453   -2.5240 H   0  0  0  0  0  0  0  0  0  0  0  0
 26 27  1  0  0  0
 27 28  1  0  0  0
 28 29  1  0  0  0
 29 30  1  0  0  0
 30 31  1  0  0  0
 28 20  1  0  0  0
 20 21  2  0  0  0
 21 22  1  0  0  0
 22 23  2  0  0  0
 23 24  1  0  0  0
 24 25  2  0  0  0
 23  1  1  0  0  0
  1  2  1  0  0  0
  2  3  2  0  0  0
  3  4  1  0  0  0
  4  5  2  0  0  0
  5  6  1  0  0  0
  6  7  2  0  0  0
  7  8  1  0  0  0
  8  9  1  0  0  0
  5 10  1  0  0  0
 10 11  2  0  0  0
 11 12  1  0  0  0
 12 13  2  0  0  0
 13 14  1  0  0  0
 14 15  2  0  0  0
 15 16  1  0  0  0
 16 17  2  0  0  0
 17 18  1  0  0  0
 18 19  2  0  0  0
 31 26  1  0  0  0
 25 20  1  0  0  0
  9  1  2  0  0  0
 19 10  1  0  0  0
  8  4  1  0  0  0
 19 14  1  0  0  0
 31 32  1  0  0  0
M  END
> <minimizedAffinity>
-9.18045

> <CNNscore>
0.1099775434

> <CNNaffinity>
5.9383373260

> <CNN_VS>
0.6530837417

> <CNNaffinity_variance>
0.2266405076

$$$$
[H]Oc1c([H])c([H])c([C@@]2([H])Sc3c([H])c(O[H])c([H])c([H])c3O[C@@]2([H])c2c([H])c([H])c(OC([H])([H])[C@@]([H])(N3C([H])([H])C([H])([H])OC([H])([H])C3([H])[H])C([H])([H])[H])c([H])c2[H])c([H])c1[H]


 36 40  0  0  0  0  0  0  0  0999 V2000
   38.9093   14.5418   -8.0634 C   0  0  0  0  0  0  0  0  0  0  0  0
   39.6357   13.3953   -7.7963 O   0  0  0  0  0  0  0  0  0  0  0  0
   40.6887   13.1976   -6.9501 C   0  0  0  0  0  0  0  0  0  0  0  0
   41.3590   11.9639   -7.0038 C   0  0  0  0  0  0  0  0  0  0  0  0
   42.4143   11.7175   -6.1815 C   0  0  0  0  0  0  0  0  0  0  0  0
   42.8518   12.6509   -5.2868 C   0  0  0  0  0  0  0  0  0  0  0  0
   43.9155   12.4223   -4.4473 O   0  0  0  0  0  0  0  0  0  0  0  0
   42.1682   13.8793   -5.2479 C   0  0  0  0  0  0  0  0  0  0  0  0
   41.1209   14.1379   -6.0564 C   0  0  0  0  0  0  0  0  0  0  0  0
   40.2608   15.6776   -6.0128 S   0  0  0  0  0  0  0  0  0  0  0  0
   39.6039   15.8161   -7.7145 C   0  0  0  0  0  0  0  0  0  0  0  0
   43.7177   12.0142   -3.5443 H   0  0  0  0  0  0  0  0  0  0  0  0
   38.8888   17.0471   -7.9762 C   0  0  0  0  0  0  0  0  0  0  0  0
   38.6523   17.4267   -9.2840 C   0  0  0  0  0  0  0  0  0  0  0  0
   37.9950   18.5795   -9.6395 C   0  0  0  0  0  0  0  0  0  0  0  0
   37.5467   19.4032   -8.6317 C   0  0  0  0  0  0  0  0  0  0  0  0
   36.8671   20.5966   -8.9383 O   0  0  0  0  0  0  0  0  0  0  0  0
   37.7782   19.0328   -7.3254 C   0  0  0  0  0  0  0  0  0  0  0  0
   38.4384   17.8748   -6.9761 C   0  0  0  0  0  0  0  0  0  0  0  0
   35.8459   20.5687   -9.0316 H   0  0  0  0  0  0  0  0  0  0  0  0
   34.9095   14.1796   -6.4917 C   0  0  0  0  0  0  0  0  0  0  0  0
   36.0108   13.8143   -5.7500 C   0  0  0  0  0  0  0  0  0  0  0  0
   37.2923   13.9244   -6.2482 C   0  0  0  0  0  0  0  0  0  0  0  0
   37.5269   14.4156   -7.5381 C   0  0  0  0  0  0  0  0  0  0  0  0
   36.4196   14.7762   -8.2668 C   0  0  0  0  0  0  0  0  0  0  0  0
   35.1201   14.6627   -7.7568 C   0  0  0  0  0  0  0  0  0  0  0  0
   33.6500   14.0413   -5.9252 O   0  0  0  0  0  0  0  0  0  0  0  0
   32.8253   15.0964   -5.5371 C   0  0  0  0  0  0  0  0  0  0  0  0
   31.5311   14.1625   -7.3896 C   0  0  0  0  0  0  0  0  0  0  0  0
   31.4328   14.8158   -6.0492 C   0  0  0  0  0  0  0  0  0  0  0  0
   30.5793   15.9451   -6.0869 N   0  0  0  0  0  0  0  0  0  0  0  0
   31.1232   17.1483   -5.5522 C   0  0  0  0  0  0  0  0  0  0  0  0
   29.9579   18.1270   -5.3570 C   0  0  0  0  0  0  0  0  0  0  0  0
   28.7427   17.5384   -5.6910 O   0  0  0  0  0  0  0  0  0  0  0  0
   28.7565   17.1552   -7.0316 C   0  0  0  0  0  0  0  0  0  0  0  0
   29.8947   16.1721   -7.3175 C   0  0  0  0  0  0  0  0  0  0  0  0
 29 30  1  0  0  0
 30 28  1  0  0  0
 28 27  1  0  0  0
 27 21  1  0  0  0
 21 22  2  0  0  0
 22 23  1  0  0  0
 23 24  2  0  0  0
 24 25  1  0  0  0
 25 26  2  0  0  0
 24  1  1  0  0  0
  1  2  1  0  0  0
  2  3  1  0  0  0
  3  4  2  0  0  0
  4  5  1  0  0  0
  5  6  2  0  0  0
  6  7  1  0  0  0
  6  8  1  0  0  0
  8  9  2  0  0  0
  9 10  1  0  0  0
 10 11  1  0  0  0
 11 13  1  0  0  0
 13 14  2  0  0  0
 14 15  1  0  0  0
 15 16  2  0  0  0
 16 17  1  0  0  0
 16 18  1  0  0  0
 18 19  2  0  0  0
 30 31  1  0  0  0
 31 32  1  0  0  0
 32 33  1  0  0  0
 33 34  1  0  0  0
 34 35  1  0  0  0
 35 36  1  0  0  0
 26 21  1  0  0  0
 11  1  1  0  0  0
 19 13  1  0  0  0
 36 31  1  0  0  0
  9  3  1  0  0  0
  7 12  1  0  0  0
 17 20  1  0  0  0
M  END
> <minimizedAffinity>
-6.73431

> <CNNscore>
0.1695895791

> <CNNaffinity>
5.1571111679

> <CNN_VS>
0.8745923042

> <CNNaffinity_variance>
0.3183580339

$$$$
[H]Oc1c([H])c([H])c([C@@]2([H])Sc3c([H])c(O[H])c([H])c([H])c3O[C@@]2([H])c2c([H])c([H])c(OC([H])([H])[C@@]([H])(N3C([H])([H])C([H])([H])OC([H])([H])C3([H])[H])C([H])([H])[H])c([H])c2[H])c([H])c1[H]


 36 40  0  0  0  0  0  0  0  0999 V2000
   38.9416   14.4240   -7.9005 C   0  0  0  0  0  0  0  0  0  0  0  0
   39.6922   13.3065   -7.5820 O   0  0  0  0  0  0  0  0  0  0  0  0
   40.7989   13.1855   -6.7917 C   0  0  0  0  0  0  0  0  0  0  0  0
   41.4733   11.9530   -6.7808 C   0  0  0  0  0  0  0  0  0  0  0  0
   42.5812   11.7814   -6.0102 C   0  0  0  0  0  0  0  0  0  0  0  0
   43.0686   12.7904   -5.2307 C   0  0  0  0  0  0  0  0  0  0  0  0
   44.1858   12.6380   -4.4451 O   0  0  0  0  0  0  0  0  0  0  0  0
   42.3799   14.0163   -5.2550 C   0  0  0  0  0  0  0  0  0  0  0  0
   41.2808   14.2013   -6.0135 C   0  0  0  0  0  0  0  0  0  0  0  0
   40.4140   15.7374   -6.0489 S   0  0  0  0  0  0  0  0  0  0  0  0
   39.6479   15.7251   -7.7101 C   0  0  0  0  0  0  0  0  0  0  0  0
   44.0496   12.3103   -3.4991 H   0  0  0  0  0  0  0  0  0  0  0  0
   38.9084   16.9272   -8.0314 C   0  0  0  0  0  0  0  0  0  0  0  0
   38.4749   17.7483   -7.0075 C   0  0  0  0  0  0  0  0  0  0  0  0
   37.7571   18.9031   -7.2041 C   0  0  0  0  0  0  0  0  0  0  0  0
   37.4530   19.2609   -8.4983 C   0  0  0  0  0  0  0  0  0  0  0  0
   36.7201   20.4337   -8.7580 O   0  0  0  0  0  0  0  0  0  0  0  0
   37.8809   18.4484   -9.5248 C   0  0  0  0  0  0  0  0  0  0  0  0
   38.6007   17.2912   -9.3201 C   0  0  0  0  0  0  0  0  0  0  0  0
   37.2331   21.3108   -8.8993 H   0  0  0  0  0  0  0  0  0  0  0  0
   35.0539   14.1961   -6.0477 C   0  0  0  0  0  0  0  0  0  0  0  0
   36.2064   13.9451   -5.3370 C   0  0  0  0  0  0  0  0  0  0  0  0
   37.4525   14.0128   -5.9247 C   0  0  0  0  0  0  0  0  0  0  0  0
   37.5969   14.3420   -7.2778 C   0  0  0  0  0  0  0  0  0  0  0  0
   36.4393   14.5899   -7.9745 C   0  0  0  0  0  0  0  0  0  0  0  0
   35.1760   14.5199   -7.3737 C   0  0  0  0  0  0  0  0  0  0  0  0
   33.8346   14.1093   -5.3903 O   0  0  0  0  0  0  0  0  0  0  0  0
   32.5853   14.1766   -6.0059 C   0  0  0  0  0  0  0  0  0  0  0  0
   30.7557   15.7273   -6.4820 C   0  0  0  0  0  0  0  0  0  0  0  0
   31.9272   15.4707   -5.5906 C   0  0  0  0  0  0  0  0  0  0  0  0
   32.7969   16.5873   -5.5470 N   0  0  0  0  0  0  0  0  0  0  0  0
   32.8511   17.3748   -6.7329 C   0  0  0  0  0  0  0  0  0  0  0  0
   34.0781   18.2884   -6.6167 C   0  0  0  0  0  0  0  0  0  0  0  0
   34.7879   18.0346   -5.4479 O   0  0  0  0  0  0  0  0  0  0  0  0
   33.9744   18.2718   -4.3405 C   0  0  0  0  0  0  0  0  0  0  0  0
   32.7190   17.3964   -4.3748 C   0  0  0  0  0  0  0  0  0  0  0  0
 29 30  1  0  0  0
 30 28  1  0  0  0
 28 27  1  0  0  0
 27 21  1  0  0  0
 21 22  2  0  0  0
 22 23  1  0  0  0
 23 24  2  0  0  0
 24 25  1  0  0  0
 25 26  2  0  0  0
 24  1  1  0  0  0
  1  2  1  0  0  0
  2  3  1  0  0  0
  3  4  2  0  0  0
  4  5  1  0  0  0
  5  6  2  0  0  0
  6  7  1  0  0  0
  6  8  1  0  0  0
  8  9  2  0  0  0
  9 10  1  0  0  0
 10 11  1  0  0  0
 11 13  1  0  0  0
 13 14  2  0  0  0
 14 15  1  0  0  0
 15 16  2  0  0  0
 16 17  1  0  0  0
 16 18  1  0  0  0
 18 19  2  0  0  0
 30 31  1  0  0  0
 31 32  1  0  0  0
 32 33  1  0  0  0
 33 34  1  0  0  0
 34 35  1  0  0  0
 35 36  1  0  0  0
 26 21  1  0  0  0
 11  1  1  0  0  0
 19 13  1  0  0  0
 36 31  1  0  0  0
  9  3  1  0  0  0
  7 12  1  0  0  0
 17 20  1  0  0  0
M  END
> <minimizedAffinity>
-6.31768

> <CNNscore>
0.1438155323

> <CNNaffinity>
5.0031180382

> <CNN_VS>
0.7195261121

> <CNNaffinity_variance>
0.5767659545

$$$$
[H]Oc1c([H])c([H])c([C@@]2([H])Sc3c([H])c(O[H])c([H])c([H])c3O[C@@]2([H])c2c([H])c([H])c(OC([H])([H])[C@@]([H])(N3C([H])([H])C([H])([H])OC([H])([H])C3([H])[H])C([H])([H])[H])c([H])c2[H])c([H])c1[H]


 36 40  0  0  0  0  0  0  0  0999 V2000
   44.6159   14.8933  -12.2855 C   0  0  0  0  0  0  0  0  0  0  0  0
   44.5810   16.2687  -12.4294 O   0  0  0  0  0  0  0  0  0  0  0  0
   45.5926   17.1552  -12.6631 C   0  0  0  0  0  0  0  0  0  0  0  0
   45.3009   18.5276  -12.5885 C   0  0  0  0  0  0  0  0  0  0  0  0
   46.2741   19.4513  -12.8130 C   0  0  0  0  0  0  0  0  0  0  0  0
   47.5521   19.0789  -13.1148 C   0  0  0  0  0  0  0  0  0  0  0  0
   48.5497   19.9956  -13.3451 O   0  0  0  0  0  0  0  0  0  0  0  0
   47.8244   17.7010  -13.1849 C   0  0  0  0  0  0  0  0  0  0  0  0
   46.8705   16.7740  -12.9650 C   0  0  0  0  0  0  0  0  0  0  0  0
   47.2070   15.0444  -13.0502 S   0  0  0  0  0  0  0  0  0  0  0  0
   45.9526   14.3378  -11.9215 C   0  0  0  0  0  0  0  0  0  0  0  0
   48.6833   20.3105  -14.2958 H   0  0  0  0  0  0  0  0  0  0  0  0
   46.0447   12.9027  -11.7558 C   0  0  0  0  0  0  0  0  0  0  0  0
   47.0127   12.2027  -12.4508 C   0  0  0  0  0  0  0  0  0  0  0  0
   47.1764   10.8408  -12.3734 C   0  0  0  0  0  0  0  0  0  0  0  0
   46.3244   10.1344  -11.5545 C   0  0  0  0  0  0  0  0  0  0  0  0
   46.4467    8.7375  -11.4371 O   0  0  0  0  0  0  0  0  0  0  0  0
   45.3565   10.8241  -10.8583 C   0  0  0  0  0  0  0  0  0  0  0  0
   45.1982   12.1905  -10.9409 C   0  0  0  0  0  0  0  0  0  0  0  0
   47.0612    8.3592  -10.7080 H   0  0  0  0  0  0  0  0  0  0  0  0
   42.6481   12.9892  -15.6174 C   0  0  0  0  0  0  0  0  0  0  0  0
   42.0040   13.1841  -14.4159 C   0  0  0  0  0  0  0  0  0  0  0  0
   42.6290   13.7892  -13.3455 C   0  0  0  0  0  0  0  0  0  0  0  0
   43.9536   14.2329  -13.4379 C   0  0  0  0  0  0  0  0  0  0  0  0
   44.5839   14.0323  -14.6418 C   0  0  0  0  0  0  0  0  0  0  0  0
   43.9454   13.4174  -15.7262 C   0  0  0  0  0  0  0  0  0  0  0  0
   41.9564   12.3733  -16.6511 O   0  0  0  0  0  0  0  0  0  0  0  0
   40.7344   12.8039  -17.1664 C   0  0  0  0  0  0  0  0  0  0  0  0
   39.8952   11.2708  -18.8764 C   0  0  0  0  0  0  0  0  0  0  0  0
   39.8760   11.5870  -17.4160 C   0  0  0  0  0  0  0  0  0  0  0  0
   38.5508   11.6895  -16.9275 N   0  0  0  0  0  0  0  0  0  0  0  0
   37.6092   10.7884  -17.5025 C   0  0  0  0  0  0  0  0  0  0  0  0
   36.2098   11.2876  -17.1202 C   0  0  0  0  0  0  0  0  0  0  0  0
   36.2766   12.4757  -16.4001 O   0  0  0  0  0  0  0  0  0  0  0  0
   36.9931   12.2735  -15.2211 C   0  0  0  0  0  0  0  0  0  0  0  0
   38.4104   11.7724  -15.5104 C   0  0  0  0  0  0  0  0  0  0  0  0
 29 30  1  0  0  0
 30 28  1  0  0  0
 28 27  1  0  0  0
 27 21  1  0  0  0
 21 22  2  0  0  0
 22 23  1  0  0  0
 23 24  2  0  0  0
 24 25  1  0  0  0
 25 26  2  0  0  0
 24  1  1  0  0  0
  1  2  1  0  0  0
  2  3  1  0  0  0
  3  4  2  0  0  0
  4  5  1  0  0  0
  5  6  2  0  0  0
  6  7  1  0  0  0
  6  8  1  0  0  0
  8  9  2  0  0  0
  9 10  1  0  0  0
 10 11  1  0  0  0
 11 13  1  0  0  0
 13 14  2  0  0  0
 14 15  1  0  0  0
 15 16  2  0  0  0
 16 17  1  0  0  0
 16 18  1  0  0  0
 18 19  2  0  0  0
 30 31  1  0  0  0
 31 32  1  0  0  0
 32 33  1  0  0  0
 33 34  1  0  0  0
 34 35  1  0  0  0
 35 36  1  0  0  0
 26 21  1  0  0  0
 11  1  1  0  0  0
 19 13  1  0  0  0
 36 31  1  0  0  0
  9  3  1  0  0  0
  7 12  1  0  0  0
 17 20  1  0  0  0
M  END
> <minimizedAffinity>
-8.10744

> <CNNscore>
0.1433438063

> <CNNaffinity>
5.5797414780

> <CNN_VS>
0.7998213768

> <CNNaffinity_variance>
0.2230544537

$$$$
[H]Oc1c([H])c([H])c([C@@]2([H])Sc3c([H])c(O[H])c([H])c([H])c3O[C@@]2([H])c2c([H])c([H])c(OC([H])([H])[C@@]([H])(N3C([H])([H])C([H])([H])OC([H])([H])C3([H])[H])C([H])([H])[H])c([H])c2[H])c([H])c1[H]


 36 40  0  0  0  0  0  0  0  0999 V2000
   46.2258   13.2215  -13.6460 C   0  0  0  0  0  0  0  0  0  0  0  0
   46.5543   11.9308  -13.2721 O   0  0  0  0  0  0  0  0  0  0  0  0
   46.7863   11.4052  -12.0336 C   0  0  0  0  0  0  0  0  0  0  0  0
   47.2794   10.0920  -11.9532 C   0  0  0  0  0  0  0  0  0  0  0  0
   47.5269    9.5227  -10.7427 C   0  0  0  0  0  0  0  0  0  0  0  0
   47.3067   10.2015   -9.5791 C   0  0  0  0  0  0  0  0  0  0  0  0
   47.5500    9.6451   -8.3464 O   0  0  0  0  0  0  0  0  0  0  0  0
   46.8131   11.5145   -9.6802 C   0  0  0  0  0  0  0  0  0  0  0  0
   46.5631   12.0919  -10.8725 C   0  0  0  0  0  0  0  0  0  0  0  0
   45.9453   13.7391  -11.0050 S   0  0  0  0  0  0  0  0  0  0  0  0
   46.5705   14.2693  -12.6405 C   0  0  0  0  0  0  0  0  0  0  0  0
   46.7933    9.1426   -7.9039 H   0  0  0  0  0  0  0  0  0  0  0  0
   46.2503   15.6389  -12.9826 C   0  0  0  0  0  0  0  0  0  0  0  0
   45.4272   16.3697  -12.1467 C   0  0  0  0  0  0  0  0  0  0  0  0
   45.0535   17.6700  -12.3860 C   0  0  0  0  0  0  0  0  0  0  0  0
   45.5282   18.2780  -13.5262 C   0  0  0  0  0  0  0  0  0  0  0  0
   45.1774   19.6085  -13.8210 O   0  0  0  0  0  0  0  0  0  0  0  0
   46.3490   17.5570  -14.3650 C   0  0  0  0  0  0  0  0  0  0  0  0
   46.7197   16.2528  -14.1187 C   0  0  0  0  0  0  0  0  0  0  0  0
   45.7766   20.3627  -13.4682 H   0  0  0  0  0  0  0  0  0  0  0  0
   42.1682   13.4056  -15.0956 C   0  0  0  0  0  0  0  0  0  0  0  0
   42.4567   13.4771  -13.7509 C   0  0  0  0  0  0  0  0  0  0  0  0
   43.7520   13.4152  -13.2808 C   0  0  0  0  0  0  0  0  0  0  0  0
   44.8339   13.2760  -14.1584 C   0  0  0  0  0  0  0  0  0  0  0  0
   44.5317   13.2060  -15.4966 C   0  0  0  0  0  0  0  0  0  0  0  0
   43.2149   13.2692  -15.9695 C   0  0  0  0  0  0  0  0  0  0  0  0
   40.8410   13.4746  -15.4959 O   0  0  0  0  0  0  0  0  0  0  0  0
   40.3901   13.3235  -16.8066 C   0  0  0  0  0  0  0  0  0  0  0  0
   40.2522   11.3986  -18.3082 C   0  0  0  0  0  0  0  0  0  0  0  0
   39.8631   11.9169  -16.9617 C   0  0  0  0  0  0  0  0  0  0  0  0
   38.4715   11.7803  -16.7384 N   0  0  0  0  0  0  0  0  0  0  0  0
   37.8068   10.8185  -17.5524 C   0  0  0  0  0  0  0  0  0  0  0  0
   36.2998   11.0729  -17.4186 C   0  0  0  0  0  0  0  0  0  0  0  0
   36.0436   12.1786  -16.6148 O   0  0  0  0  0  0  0  0  0  0  0  0
   36.5535   11.9605  -15.3354 C   0  0  0  0  0  0  0  0  0  0  0  0
   38.0611   11.6973  -15.3749 C   0  0  0  0  0  0  0  0  0  0  0  0
 29 30  1  0  0  0
 30 28  1  0  0  0
 28 27  1  0  0  0
 27 21  1  0  0  0
 21 22  2  0  0  0
 22 23  1  0  0  0
 23 24  2  0  0  0
 24 25  1  0  0  0
 25 26  2  0  0  0
 24  1  1  0  0  0
  1  2  1  0  0  0
  2  3  1  0  0  0
  3  4  2  0  0  0
  4  5  1  0  0  0
  5  6  2  0  0  0
  6  7  1  0  0  0
  6  8  1  0  0  0
  8  9  2  0  0  0
  9 10  1  0  0  0
 10 11  1  0  0  0
 11 13  1  0  0  0
 13 14  2  0  0  0
 14 15  1  0  0  0
 15 16  2  0  0  0
 16 17  1  0  0  0
 16 18  1  0  0  0
 18 19  2  0  0  0
 30 31  1  0  0  0
 31 32  1  0  0  0
 32 33  1  0  0  0
 33 34  1  0  0  0
 34 35  1  0  0  0
 35 36  1  0  0  0
 26 21  1  0  0  0
 11  1  1  0  0  0
 19 13  1  0  0  0
 36 31  1  0  0  0
  9  3  1  0  0  0
  7 12  1  0  0  0
 17 20  1  0  0  0
M  END
> <minimizedAffinity>
-8.49696

> <CNNscore>
0.1411290914

> <CNNaffinity>
5.5250434875

> <CNN_VS>
0.7797443867

> <CNNaffinity_variance>
0.3326788545

$$$$
[H]Oc1c([H])c([H])c([C@@]2([H])Sc3c([H])c(O[H])c([H])c([H])c3O[C@@]2([H])c2c([H])c([H])c(OC([H])([H])[C@@]([H])(N3C([H])([H])C([H])([H])OC([H])([H])C3([H])[H])C([H])([H])[H])c([H])c2[H])c([H])c1[H]


 36 40  0  0  0  0  0  0  0  0999 V2000
   46.0446   13.1953  -13.6598 C   0  0  0  0  0  0  0  0  0  0  0  0
   46.3776   11.9050  -13.2886 O   0  0  0  0  0  0  0  0  0  0  0  0
   46.6307   11.3820  -12.0531 C   0  0  0  0  0  0  0  0  0  0  0  0
   47.1229   10.0682  -11.9783 C   0  0  0  0  0  0  0  0  0  0  0  0
   47.3909    9.5013  -10.7710 C   0  0  0  0  0  0  0  0  0  0  0  0
   47.1924   10.1833   -9.6053 C   0  0  0  0  0  0  0  0  0  0  0  0
   47.4565    9.6294   -8.3757 O   0  0  0  0  0  0  0  0  0  0  0  0
   46.6992   11.4968   -9.7009 C   0  0  0  0  0  0  0  0  0  0  0  0
   46.4290   12.0719  -10.8899 C   0  0  0  0  0  0  0  0  0  0  0  0
   45.8117   13.7197  -11.0155 S   0  0  0  0  0  0  0  0  0  0  0  0
   46.4088   14.2450  -12.6630 C   0  0  0  0  0  0  0  0  0  0  0  0
   46.7069    9.1292   -7.9187 H   0  0  0  0  0  0  0  0  0  0  0  0
   46.0847   15.6143  -13.0027 C   0  0  0  0  0  0  0  0  0  0  0  0
   45.3111   16.3613  -12.1345 C   0  0  0  0  0  0  0  0  0  0  0  0
   44.9381   17.6628  -12.3681 C   0  0  0  0  0  0  0  0  0  0  0  0
   45.3612   18.2551  -13.5366 C   0  0  0  0  0  0  0  0  0  0  0  0
   45.0087   19.5860  -13.8272 O   0  0  0  0  0  0  0  0  0  0  0  0
   46.1325   17.5178  -14.4077 C   0  0  0  0  0  0  0  0  0  0  0  0
   46.5028   16.2125  -14.1669 C   0  0  0  0  0  0  0  0  0  0  0  0
   45.6318   20.3377  -13.5122 H   0  0  0  0  0  0  0  0  0  0  0  0
   41.9869   13.3282  -15.1147 C   0  0  0  0  0  0  0  0  0  0  0  0
   43.0497   13.1109  -15.9631 C   0  0  0  0  0  0  0  0  0  0  0  0
   44.3499   13.0709  -15.5045 C   0  0  0  0  0  0  0  0  0  0  0  0
   44.6440   13.2510  -14.1476 C   0  0  0  0  0  0  0  0  0  0  0  0
   43.5747   13.4667  -13.3127 C   0  0  0  0  0  0  0  0  0  0  0  0
   42.2559   13.5066  -13.7828 C   0  0  0  0  0  0  0  0  0  0  0  0
   40.7054   13.3556  -15.6469 O   0  0  0  0  0  0  0  0  0  0  0  0
   39.5286   13.4121  -14.9011 C   0  0  0  0  0  0  0  0  0  0  0  0
   39.0330   11.7471  -16.6219 C   0  0  0  0  0  0  0  0  0  0  0  0
   38.7038   12.1917  -15.2338 C   0  0  0  0  0  0  0  0  0  0  0  0
   37.3081   12.3584  -15.0625 N   0  0  0  0  0  0  0  0  0  0  0  0
   36.8997   13.5972  -14.4898 C   0  0  0  0  0  0  0  0  0  0  0  0
   35.4341   13.4405  -14.0642 C   0  0  0  0  0  0  0  0  0  0  0  0
   34.9751   12.1489  -14.2998 O   0  0  0  0  0  0  0  0  0  0  0  0
   35.0559   11.8601  -15.6615 C   0  0  0  0  0  0  0  0  0  0  0  0
   36.4925   11.9920  -16.1739 C   0  0  0  0  0  0  0  0  0  0  0  0
 29 30  1  0  0  0
 30 28  1  0  0  0
 28 27  1  0  0  0
 27 21  1  0  0  0
 21 22  2  0  0  0
 22 23  1  0  0  0
 23 24  2  0  0  0
 24 25  1  0  0  0
 25 26  2  0  0  0
 24  1  1  0  0  0
  1  2  1  0  0  0
  2  3  1  0  0  0
  3  4  2  0  0  0
  4  5  1  0  0  0
  5  6  2  0  0  0
  6  7  1  0  0  0
  6  8  1  0  0  0
  8  9  2  0  0  0
  9 10  1  0  0  0
 10 11  1  0  0  0
 11 13  1  0  0  0
 13 14  2  0  0  0
 14 15  1  0  0  0
 15 16  2  0  0  0
 16 17  1  0  0  0
 16 18  1  0  0  0
 18 19  2  0  0  0
 30 31  1  0  0  0
 31 32  1  0  0  0
 32 33  1  0  0  0
 33 34  1  0  0  0
 34 35  1  0  0  0
 35 36  1  0  0  0
 26 21  1  0  0  0
 11  1  1  0  0  0
 19 13  1  0  0  0
 36 31  1  0  0  0
  9  3  1  0  0  0
  7 12  1  0  0  0
 17 20  1  0  0  0
M  END
> <minimizedAffinity>
-8.26799

> <CNNscore>
0.1381173432

> <CNNaffinity>
5.7846746445

> <CNN_VS>
0.7989639044

> <CNNaffinity_variance>
0.1184628829

$$$$
[H]Oc1c([H])c([H])c([C@@]2([H])Sc3c([H])c(O[H])c([H])c([H])c3O[C@@]2([H])c2c([H])c([H])c(OC([H])([H])[C@@]([H])(N3C([H])([H])C([H])([H])OC([H])([H])C3([H])[H])C([H])([H])[H])c([H])c2[H])c([H])c1[H]


 36 40  0  0  0  0  0  0  0  0999 V2000
   39.1446   13.2973   -6.9596 C   0  0  0  0  0  0  0  0  0  0  0  0
   39.9074   12.4051   -6.2278 O   0  0  0  0  0  0  0  0  0  0  0  0
   41.1576   12.5445   -5.6972 C   0  0  0  0  0  0  0  0  0  0  0  0
   41.7736   11.4083   -5.1461 C   0  0  0  0  0  0  0  0  0  0  0  0
   43.0188   11.4947   -4.6049 C   0  0  0  0  0  0  0  0  0  0  0  0
   43.7031   12.6756   -4.5801 C   0  0  0  0  0  0  0  0  0  0  0  0
   44.9613   12.7845   -4.0384 O   0  0  0  0  0  0  0  0  0  0  0  0
   43.0699   13.8014   -5.1364 C   0  0  0  0  0  0  0  0  0  0  0  0
   41.8365   13.7312   -5.6761 C   0  0  0  0  0  0  0  0  0  0  0  0
   41.0384   15.1399   -6.3766 S   0  0  0  0  0  0  0  0  0  0  0  0
   39.9210   14.3902   -7.6160 C   0  0  0  0  0  0  0  0  0  0  0  0
   45.0282   13.0134   -3.0565 H   0  0  0  0  0  0  0  0  0  0  0  0
   39.1712   15.3510   -8.3971 C   0  0  0  0  0  0  0  0  0  0  0  0
   38.5197   14.9308   -9.5413 C   0  0  0  0  0  0  0  0  0  0  0  0
   37.7927   15.7631  -10.3576 C   0  0  0  0  0  0  0  0  0  0  0  0
   37.7103   17.0934  -10.0131 C   0  0  0  0  0  0  0  0  0  0  0  0
   36.9789   17.9909  -10.8130 O   0  0  0  0  0  0  0  0  0  0  0  0
   38.3567   17.5209   -8.8744 C   0  0  0  0  0  0  0  0  0  0  0  0
   39.0843   16.6802   -8.0603 C   0  0  0  0  0  0  0  0  0  0  0  0
   35.9840   18.1319  -10.6067 H   0  0  0  0  0  0  0  0  0  0  0  0
   35.7605   14.6397   -4.6477 C   0  0  0  0  0  0  0  0  0  0  0  0
   37.0533   14.8662   -4.2307 C   0  0  0  0  0  0  0  0  0  0  0  0
   38.1397   14.4363   -4.9638 C   0  0  0  0  0  0  0  0  0  0  0  0
   37.9707   13.7470   -6.1706 C   0  0  0  0  0  0  0  0  0  0  0  0
   36.6762   13.5280   -6.5745 C   0  0  0  0  0  0  0  0  0  0  0  0
   35.5759   13.9664   -5.8269 C   0  0  0  0  0  0  0  0  0  0  0  0
   34.7162   15.1014   -3.8585 O   0  0  0  0  0  0  0  0  0  0  0  0
   33.3711   15.0964   -4.2256 C   0  0  0  0  0  0  0  0  0  0  0  0
   31.6796   16.4949   -5.3035 C   0  0  0  0  0  0  0  0  0  0  0  0
   32.9674   16.5158   -4.5457 C   0  0  0  0  0  0  0  0  0  0  0  0
   33.9540   17.2708   -5.2253 N   0  0  0  0  0  0  0  0  0  0  0  0
   33.7739   17.3976   -6.6328 C   0  0  0  0  0  0  0  0  0  0  0  0
   35.0935   17.9207   -7.2149 C   0  0  0  0  0  0  0  0  0  0  0  0
   36.0652   18.0490   -6.2282 O   0  0  0  0  0  0  0  0  0  0  0  0
   35.6378   18.9570   -5.2600 C   0  0  0  0  0  0  0  0  0  0  0  0
   34.3195   18.5107   -4.6223 C   0  0  0  0  0  0  0  0  0  0  0  0
 29 30  1  0  0  0
 30 28  1  0  0  0
 28 27  1  0  0  0
 27 21  1  0  0  0
 21 22  2  0  0  0
 22 23  1  0  0  0
 23 24  2  0  0  0
 24 25  1  0  0  0
 25 26  2  0  0  0
 24  1  1  0  0  0
  1  2  1  0  0  0
  2  3  1  0  0  0
  3  4  2  0  0  0
  4  5  1  0  0  0
  5  6  2  0  0  0
  6  7  1  0  0  0
  6  8  1  0  0  0
  8  9  2  0  0  0
  9 10  1  0  0  0
 10 11  1  0  0  0
 11 13  1  0  0  0
 13 14  2  0  0  0
 14 15  1  0  0  0
 15 16  2  0  0  0
 16 17  1  0  0  0
 16 18  1  0  0  0
 18 19  2  0  0  0
 30 31  1  0  0  0
 31 32  1  0  0  0
 32 33  1  0  0  0
 33 34  1  0  0  0
 34 35  1  0  0  0
 35 36  1  0  0  0
 26 21  1  0  0  0
 11  1  1  0  0  0
 19 13  1  0  0  0
 36 31  1  0  0  0
  9  3  1  0  0  0
  7 12  1  0  0  0
 17 20  1  0  0  0
M  END
> <minimizedAffinity>
-6.59695

> <CNNscore>
0.1313628405

> <CNNaffinity>
4.8425049782

> <CNN_VS>
0.6361252069

> <CNNaffinity_variance>
0.8532120585

$$$$
[H]Oc1c([H])c([H])c([C@@]2([H])Sc3c([H])c(O[H])c([H])c([H])c3O[C@@]2([H])c2c([H])c([H])c(OC([H])([H])[C@@]([H])(N3C([H])([H])C([H])([H])OC([H])([H])C3([H])[H])C([H])([H])[H])c([H])c2[H])c([H])c1[H]


 36 40  0  0  0  0  0  0  0  0999 V2000
   38.5893   14.7654   -8.2991 C   0  0  0  0  0  0  0  0  0  0  0  0
   39.2503   13.5793   -8.0347 O   0  0  0  0  0  0  0  0  0  0  0  0
   40.2700   13.3145   -7.1663 C   0  0  0  0  0  0  0  0  0  0  0  0
   40.8788   12.0496   -7.2256 C   0  0  0  0  0  0  0  0  0  0  0  0
   41.8990   11.7365   -6.3819 C   0  0  0  0  0  0  0  0  0  0  0  0
   42.3596   12.6315   -5.4600 C   0  0  0  0  0  0  0  0  0  0  0  0
   43.3885   12.3354   -4.5986 O   0  0  0  0  0  0  0  0  0  0  0  0
   41.7375   13.8920   -5.4159 C   0  0  0  0  0  0  0  0  0  0  0  0
   40.7256   14.2167   -6.2454 C   0  0  0  0  0  0  0  0  0  0  0  0
   39.9429   15.7969   -6.1955 S   0  0  0  0  0  0  0  0  0  0  0  0
   39.3378   15.9969   -7.9103 C   0  0  0  0  0  0  0  0  0  0  0  0
   43.1474   11.9228   -3.7083 H   0  0  0  0  0  0  0  0  0  0  0  0
   38.6922   17.2667   -8.1674 C   0  0  0  0  0  0  0  0  0  0  0  0
   38.2851   18.0463   -7.1012 C   0  0  0  0  0  0  0  0  0  0  0  0
   37.6541   19.2592   -7.2366 C   0  0  0  0  0  0  0  0  0  0  0  0
   37.4145   19.7227   -8.5106 C   0  0  0  0  0  0  0  0  0  0  0  0
   36.7716   20.9587   -8.7082 O   0  0  0  0  0  0  0  0  0  0  0  0
   37.8168   18.9521   -9.5791 C   0  0  0  0  0  0  0  0  0  0  0  0
   38.4492   17.7362   -9.4356 C   0  0  0  0  0  0  0  0  0  0  0  0
   37.3474   21.8050   -8.7760 H   0  0  0  0  0  0  0  0  0  0  0  0
   34.5374   14.5791   -6.8340 C   0  0  0  0  0  0  0  0  0  0  0  0
   35.5987   14.1377   -6.0755 C   0  0  0  0  0  0  0  0  0  0  0  0
   36.8964   14.1913   -6.5398 C   0  0  0  0  0  0  0  0  0  0  0  0
   37.1893   14.7004   -7.8107 C   0  0  0  0  0  0  0  0  0  0  0  0
   36.1215   15.1371   -8.5563 C   0  0  0  0  0  0  0  0  0  0  0  0
   34.8053   15.0808   -8.0808 C   0  0  0  0  0  0  0  0  0  0  0  0
   33.2584   14.4945   -6.3017 O   0  0  0  0  0  0  0  0  0  0  0  0
   32.2296   15.4054   -6.5385 C   0  0  0  0  0  0  0  0  0  0  0  0
   31.1929   13.2070   -6.8050 C   0  0  0  0  0  0  0  0  0  0  0  0
   31.0715   14.6554   -7.1520 C   0  0  0  0  0  0  0  0  0  0  0  0
   30.9214   14.8409   -8.5478 N   0  0  0  0  0  0  0  0  0  0  0  0
   29.6094   14.6309   -9.0612 C   0  0  0  0  0  0  0  0  0  0  0  0
   29.7293   14.5260  -10.5871 C   0  0  0  0  0  0  0  0  0  0  0  0
   31.0567   14.6006  -10.9957 O   0  0  0  0  0  0  0  0  0  0  0  0
   31.6015   15.8246  -10.6092 C   0  0  0  0  0  0  0  0  0  0  0  0
   31.5238   16.0138   -9.0920 C   0  0  0  0  0  0  0  0  0  0  0  0
 29 30  1  0  0  0
 30 28  1  0  0  0
 28 27  1  0  0  0
 27 21  1  0  0  0
 21 22  2  0  0  0
 22 23  1  0  0  0
 23 24  2  0  0  0
 24 25  1  0  0  0
 25 26  2  0  0  0
 24  1  1  0  0  0
  1  2  1  0  0  0
  2  3  1  0  0  0
  3  4  2  0  0  0
  4  5  1  0  0  0
  5  6  2  0  0  0
  6  7  1  0  0  0
  6  8  1  0  0  0
  8  9  2  0  0  0
  9 10  1  0  0  0
 10 11  1  0  0  0
 11 13  1  0  0  0
 13 14  2  0  0  0
 14 15  1  0  0  0
 15 16  2  0  0  0
 16 17  1  0  0  0
 16 18  1  0  0  0
 18 19  2  0  0  0
 30 31  1  0  0  0
 31 32  1  0  0  0
 32 33  1  0  0  0
 33 34  1  0  0  0
 34 35  1  0  0  0
 35 36  1  0  0  0
 26 21  1  0  0  0
 11  1  1  0  0  0
 19 13  1  0  0  0
 36 31  1  0  0  0
  9  3  1  0  0  0
  7 12  1  0  0  0
 17 20  1  0  0  0
M  END
> <minimizedAffinity>
-7.07698

> <CNNscore>
0.1205944866

> <CNNaffinity>
5.2092456818

> <CNN_VS>
0.6282063127

> <CNNaffinity_variance>
0.3989184201

$$$$
[H]Oc1c([H])c([H])c([C@@]2([H])Sc3c([H])c(O[H])c([H])c([H])c3O[C@@]2([H])c2c([H])c([H])c(OC([H])([H])[C@@]([H])(N3C([H])([H])C([H])([H])OC([H])([H])C3([H])[H])C([H])([H])[H])c([H])c2[H])c([H])c1[H]


 36 40  0  0  0  0  0  0  0  0999 V2000
   39.7462   14.8662  -14.2989 C   0  0  0  0  0  0  0  0  0  0  0  0
   39.2850   15.5663  -13.1986 O   0  0  0  0  0  0  0  0  0  0  0  0
   38.2762   15.2713  -12.3272 C   0  0  0  0  0  0  0  0  0  0  0  0
   37.8993   16.2518  -11.3940 C   0  0  0  0  0  0  0  0  0  0  0  0
   36.8999   16.0070  -10.5041 C   0  0  0  0  0  0  0  0  0  0  0  0
   36.2376   14.8135  -10.4889 C   0  0  0  0  0  0  0  0  0  0  0  0
   35.2256   14.5459   -9.5987 O   0  0  0  0  0  0  0  0  0  0  0  0
   36.6293   13.8450  -11.4304 C   0  0  0  0  0  0  0  0  0  0  0  0
   37.6177   14.0730  -12.3183 C   0  0  0  0  0  0  0  0  0  0  0  0
   38.1118   12.8622  -13.5024 S   0  0  0  0  0  0  0  0  0  0  0  0
   38.7748   13.8853  -14.8664 C   0  0  0  0  0  0  0  0  0  0  0  0
   35.4806   14.1304   -8.7136 H   0  0  0  0  0  0  0  0  0  0  0  0
   39.2059   13.1269  -16.0215 C   0  0  0  0  0  0  0  0  0  0  0  0
   38.8290   11.8024  -16.1398 C   0  0  0  0  0  0  0  0  0  0  0  0
   39.1942   10.9933  -17.1884 C   0  0  0  0  0  0  0  0  0  0  0  0
   39.9819   11.5365  -18.1781 C   0  0  0  0  0  0  0  0  0  0  0  0
   40.3856   10.7536  -19.2754 O   0  0  0  0  0  0  0  0  0  0  0  0
   40.3623   12.8558  -18.0683 C   0  0  0  0  0  0  0  0  0  0  0  0
   39.9923   13.6615  -17.0134 C   0  0  0  0  0  0  0  0  0  0  0  0
   39.7869   10.7317  -20.1082 H   0  0  0  0  0  0  0  0  0  0  0  0
   43.6844   13.3006  -13.4999 C   0  0  0  0  0  0  0  0  0  0  0  0
   43.0073   14.0567  -12.5692 C   0  0  0  0  0  0  0  0  0  0  0  0
   41.7491   14.5633  -12.8200 C   0  0  0  0  0  0  0  0  0  0  0  0
   41.1047   14.3274  -14.0404 C   0  0  0  0  0  0  0  0  0  0  0  0
   41.7914   13.5718  -14.9594 C   0  0  0  0  0  0  0  0  0  0  0  0
   43.0690   13.0595  -14.7004 C   0  0  0  0  0  0  0  0  0  0  0  0
   44.9475   12.8238  -13.1781 O   0  0  0  0  0  0  0  0  0  0  0  0
   45.3577   12.4377  -11.9027 C   0  0  0  0  0  0  0  0  0  0  0  0
   47.3834   12.5064  -13.2705 C   0  0  0  0  0  0  0  0  0  0  0  0
   46.8672   12.4603  -11.8689 C   0  0  0  0  0  0  0  0  0  0  0  0
   47.4568   11.4016  -11.1363 N   0  0  0  0  0  0  0  0  0  0  0  0
   48.6846   11.7111  -10.4834 C   0  0  0  0  0  0  0  0  0  0  0  0
   49.3246   10.3814  -10.0640 C   0  0  0  0  0  0  0  0  0  0  0  0
   48.5656    9.2979  -10.4933 O   0  0  0  0  0  0  0  0  0  0  0  0
   47.2944    9.3566   -9.9234 C   0  0  0  0  0  0  0  0  0  0  0  0
   46.5788   10.6586  -10.2927 C   0  0  0  0  0  0  0  0  0  0  0  0
 29 30  1  0  0  0
 30 28  1  0  0  0
 28 27  1  0  0  0
 27 21  1  0  0  0
 21 22  2  0  0  0
 22 23  1  0  0  0
 23 24  2  0  0  0
 24 25  1  0  0  0
 25 26  2  0  0  0
 24  1  1  0  0  0
  1  2  1  0  0  0
  2  3  1  0  0  0
  3  4  2  0  0  0
  4  5  1  0  0  0
  5  6  2  0  0  0
  6  7  1  0  0  0
  6  8  1  0  0  0
  8  9  2  0  0  0
  9 10  1  0  0  0
 10 11  1  0  0  0
 11 13  1  0  0  0
 13 14  2  0  0  0
 14 15  1  0  0  0
 15 16  2  0  0  0
 16 17  1  0  0  0
 16 18  1  0  0  0
 18 19  2  0  0  0
 30 31  1  0  0  0
 31 32  1  0  0  0
 32 33  1  0  0  0
 33 34  1  0  0  0
 34 35  1  0  0  0
 35 36  1  0  0  0
 26 21  1  0  0  0
 11  1  1  0  0  0
 19 13  1  0  0  0
 36 31  1  0  0  0
  9  3  1  0  0  0
  7 12  1  0  0  0
 17 20  1  0  0  0
M  END
> <minimizedAffinity>
-7.78265

> <CNNscore>
0.1102319285

> <CNNaffinity>
5.8631353378

> <CNN_VS>
0.6463047266

> <CNNaffinity_variance>
0.0869004056

$$$$
[H]Oc1c([H])c([H])c([C@@]2([H])Sc3c([H])c(O[H])c([H])c([H])c3O[C@@]2([H])c2c([H])c([H])c(OC([H])([H])[C@@]([H])(N3C([H])([H])C([H])([H])OC([H])([H])C3([H])[H])C([H])([H])[H])c([H])c2[H])c([H])c1[H]


 36 40  0  0  0  0  0  0  0  0999 V2000
   36.1202   15.0087   -9.6893 C   0  0  0  0  0  0  0  0  0  0  0  0
   35.9141   13.9436  -10.5476 O   0  0  0  0  0  0  0  0  0  0  0  0
   36.3768   13.7317  -11.8144 C   0  0  0  0  0  0  0  0  0  0  0  0
   35.8659   12.6369  -12.5317 C   0  0  0  0  0  0  0  0  0  0  0  0
   36.2947   12.3828  -13.7975 C   0  0  0  0  0  0  0  0  0  0  0  0
   37.2254   13.1748  -14.4056 C   0  0  0  0  0  0  0  0  0  0  0  0
   37.6719   12.9357  -15.6830 O   0  0  0  0  0  0  0  0  0  0  0  0
   37.7248   14.2655  -13.6716 C   0  0  0  0  0  0  0  0  0  0  0  0
   37.3096   14.5299  -12.4166 C   0  0  0  0  0  0  0  0  0  0  0  0
   37.9316   15.8976  -11.4921 S   0  0  0  0  0  0  0  0  0  0  0  0
   36.5478   16.2737  -10.3561 C   0  0  0  0  0  0  0  0  0  0  0  0
   38.4778   12.3358  -15.7908 H   0  0  0  0  0  0  0  0  0  0  0  0
   36.7750   17.4214   -9.5038 C   0  0  0  0  0  0  0  0  0  0  0  0
   35.9228   17.6532   -8.4406 C   0  0  0  0  0  0  0  0  0  0  0  0
   36.0436   18.7179   -7.5807 C   0  0  0  0  0  0  0  0  0  0  0  0
   37.0751   19.6045   -7.7931 C   0  0  0  0  0  0  0  0  0  0  0  0
   37.2463   20.7128   -6.9432 O   0  0  0  0  0  0  0  0  0  0  0  0
   37.9292   19.3813   -8.8505 C   0  0  0  0  0  0  0  0  0  0  0  0
   37.8018   18.3110   -9.7091 C   0  0  0  0  0  0  0  0  0  0  0  0
   37.8391   20.6064   -6.1128 H   0  0  0  0  0  0  0  0  0  0  0  0
   38.5849   13.8305   -6.3522 C   0  0  0  0  0  0  0  0  0  0  0  0
   39.1351   14.3052   -7.5220 C   0  0  0  0  0  0  0  0  0  0  0  0
   38.3525   14.6802   -8.5940 C   0  0  0  0  0  0  0  0  0  0  0  0
   36.9564   14.5927   -8.5358 C   0  0  0  0  0  0  0  0  0  0  0  0
   36.4211   14.1176   -7.3633 C   0  0  0  0  0  0  0  0  0  0  0  0
   37.2197   13.7380   -6.2771 C   0  0  0  0  0  0  0  0  0  0  0  0
   39.4344   13.4719   -5.3148 O   0  0  0  0  0  0  0  0  0  0  0  0
   40.8101   13.6980   -5.2906 C   0  0  0  0  0  0  0  0  0  0  0  0
   41.7308   11.4496   -5.0149 C   0  0  0  0  0  0  0  0  0  0  0  0
   41.4865   12.5481   -5.9980 C   0  0  0  0  0  0  0  0  0  0  0  0
   42.6729   12.8961   -6.6885 N   0  0  0  0  0  0  0  0  0  0  0  0
   43.8274   12.1299   -6.3577 C   0  0  0  0  0  0  0  0  0  0  0  0
   45.0444   12.8744   -6.9217 C   0  0  0  0  0  0  0  0  0  0  0  0
   44.6713   14.0758   -7.5150 O   0  0  0  0  0  0  0  0  0  0  0  0
   43.7963   13.8285   -8.5721 C   0  0  0  0  0  0  0  0  0  0  0  0
   42.5456   13.0847   -8.0966 C   0  0  0  0  0  0  0  0  0  0  0  0
 29 30  1  0  0  0
 30 28  1  0  0  0
 28 27  1  0  0  0
 27 21  1  0  0  0
 21 22  2  0  0  0
 22 23  1  0  0  0
 23 24  2  0  0  0
 24 25  1  0  0  0
 25 26  2  0  0  0
 24  1  1  0  0  0
  1  2  1  0  0  0
  2  3  1  0  0  0
  3  4  2  0  0  0
  4  5  1  0  0  0
  5  6  2  0  0  0
  6  7  1  0  0  0
  6  8  1  0  0  0
  8  9  2  0  0  0
  9 10  1  0  0  0
 10 11  1  0  0  0
 11 13  1  0  0  0
 13 14  2  0  0  0
 14 15  1  0  0  0
 15 16  2  0  0  0
 16 17  1  0  0  0
 16 18  1  0  0  0
 18 19  2  0  0  0
 30 31  1  0  0  0
 31 32  1  0  0  0
 32 33  1  0  0  0
 33 34  1  0  0  0
 34 35  1  0  0  0
 35 36  1  0  0  0
 26 21  1  0  0  0
 11  1  1  0  0  0
 19 13  1  0  0  0
 36 31  1  0  0  0
  9  3  1  0  0  0
  7 12  1  0  0  0
 17 20  1  0  0  0
M  END
> <minimizedAffinity>
-7.02881

> <CNNscore>
0.1100888178

> <CNNaffinity>
5.2331666946

> <CNN_VS>
0.5761131644

> <CNNaffinity_variance>
0.3872012198

$$$$
[H]OC(=O)[C@@]([H])(N([H])C(=O)[C@@]([H])(N([H])C(=O)C([H])([H])[C@]([H])(O[H])[C@@]([H])(N([H])C(=O)[C@@]([H])(N([H])C(=O)[C@@]([H])(N([H])C(=O)C([H])([H])C([H])(C([H])([H])[H])C([H])([H])[H])C([H])(C([H])([H])[H])C([H])([H])[H])C([H])(C([H])([H])[H])C([H])([H])[H])C([H])([H])C([H])(C([H])([H])[H])C([H])([H])[H])[C@@]([H])(C([H])([H])[H])C([H])([H])C([H])([H])[H])C([H])([H])c1c([H])c([H])c([H])c([H])c1[H]


 58 58  0  0  0  0  0  0  0  0999 V2000
   35.8438   16.7523   -8.5813 C   0  0  0  0  0  0  0  0  0  0  0  0
   34.7285   17.6484   -8.3388 O   0  0  0  0  0  0  0  0  0  0  0  0
   34.3504   17.8572   -9.2067 H   0  0  0  0  0  0  0  0  0  0  0  0
   37.0574   17.3457   -8.0151 C   0  0  0  0  0  0  0  0  0  0  0  0
   36.7376   17.9716   -6.7457 N   0  0  0  0  0  0  0  0  0  0  0  0
   37.3912   18.9968   -6.0650 C   0  0  0  0  0  0  0  0  0  0  0  0
   38.4485   19.5158   -6.5115 O   0  0  0  0  0  0  0  0  0  0  0  0
   35.8549   17.5934   -6.2646 H   0  0  0  0  0  0  0  0  0  0  0  0
   36.9701   19.6132   -4.7709 C   0  0  0  0  0  0  0  0  0  0  0  0
   35.5537   19.9055   -4.8686 N   0  0  0  0  0  0  0  0  0  0  0  0
   35.1501   21.2586   -5.0687 C   0  0  0  0  0  0  0  0  0  0  0  0
   36.0207   22.1457   -5.1321 O   0  0  0  0  0  0  0  0  0  0  0  0
   34.8056   19.1866   -4.8190 H   0  0  0  0  0  0  0  0  0  0  0  0
   33.6869   21.5816   -5.1960 C   0  0  0  0  0  0  0  0  0  0  0  0
   32.9511   20.5394   -4.5343 N   0  0  0  0  0  0  0  0  0  0  0  0
   32.5419   19.4128   -5.2724 C   0  0  0  0  0  0  0  0  0  0  0  0
   32.8275   19.3530   -6.4973 O   0  0  0  0  0  0  0  0  0  0  0  0
   32.7231   20.6029   -3.5298 H   0  0  0  0  0  0  0  0  0  0  0  0
   31.7940   18.3142   -4.6436 C   0  0  0  0  0  0  0  0  0  0  0  0
   32.3776   16.9991   -5.1413 C   0  0  0  0  0  0  0  0  0  0  0  0
   31.3331   16.1316   -5.8041 C   0  0  0  0  0  0  0  0  0  0  0  0
   33.0098   16.3159   -3.9419 C   0  0  0  0  0  0  0  0  0  0  0  0
   33.4400   22.9427   -4.5309 C   0  0  0  0  0  0  0  0  0  0  0  0
   32.7550   23.8767   -5.5065 C   0  0  0  0  0  0  0  0  0  0  0  0
   32.6748   22.8086   -3.2499 C   0  0  0  0  0  0  0  0  0  0  0  0
   37.0665   18.5497   -3.6578 C   0  0  0  0  0  0  0  0  0  0  0  0
   36.0131   18.7096   -2.6140 C   0  0  0  0  0  0  0  0  0  0  0  0
   38.4527   18.4697   -3.1289 C   0  0  0  0  0  0  0  0  0  0  0  0
   38.1049   16.2516   -7.7104 C   0  0  0  0  0  0  0  0  0  0  0  0
   39.4575   16.4351   -8.2691 C   0  0  0  0  0  0  0  0  0  0  0  0
   39.5781   16.3139   -9.7697 C   0  0  0  0  0  0  0  0  0  0  0  0
   40.6646   15.9886   -7.5726 C   0  0  0  0  0  0  0  0  0  0  0  0
   35.8461   16.4012  -10.0040 C   0  0  0  0  0  0  0  0  0  0  0  0
   35.9443   14.6455  -11.7338 N   0  0  0  0  0  0  0  0  0  0  0  0
   36.0371   14.9935  -10.3570 C   0  0  0  0  0  0  0  0  0  0  0  0
   36.2655   14.1113   -9.5353 O   0  0  0  0  0  0  0  0  0  0  0  0
   35.7229   15.4554  -12.3991 H   0  0  0  0  0  0  0  0  0  0  0  0
   36.1209   13.3005  -12.2794 C   0  0  0  0  0  0  0  0  0  0  0  0
   37.4201   13.3057  -12.9585 C   0  0  0  0  0  0  0  0  0  0  0  0
   37.9477   12.1477  -13.2634 O   0  0  0  0  0  0  0  0  0  0  0  0
   38.2152   14.3991  -13.3453 N   0  0  0  0  0  0  0  0  0  0  0  0
   37.9841   15.3839  -13.2131 H   0  0  0  0  0  0  0  0  0  0  0  0
   39.5159   14.0988  -14.0177 C   0  0  0  0  0  0  0  0  0  0  0  0
   40.5234   14.8609  -13.2990 C   0  0  0  0  0  0  0  0  0  0  0  0
   41.6996   14.3110  -12.8333 O   0  0  0  0  0  0  0  0  0  0  0  0
   40.3544   16.0868  -13.0635 O   0  0  0  0  0  0  0  0  0  0  0  0
   42.2075   14.7142  -12.0398 H   0  0  0  0  0  0  0  0  0  0  0  0
   39.3605   14.4163  -15.4855 C   0  0  0  0  0  0  0  0  0  0  0  0
   39.5868   13.2145  -16.2982 C   0  0  0  0  0  0  0  0  0  0  0  0
   40.7831   13.0068  -16.9825 C   0  0  0  0  0  0  0  0  0  0  0  0
   40.9855   11.8810  -17.7270 C   0  0  0  0  0  0  0  0  0  0  0  0
   40.0216   10.8836  -17.8464 C   0  0  0  0  0  0  0  0  0  0  0  0
   38.8253   11.0967  -17.1588 C   0  0  0  0  0  0  0  0  0  0  0  0
   38.6347   12.2378  -16.4111 C   0  0  0  0  0  0  0  0  0  0  0  0
   34.9493   13.1921  -13.2870 C   0  0  0  0  0  0  0  0  0  0  0  0
   33.8915   14.2140  -12.9396 C   0  0  0  0  0  0  0  0  0  0  0  0
   35.0762   12.0968  -15.5221 C   0  0  0  0  0  0  0  0  0  0  0  0
   35.3655   13.3379  -14.7019 C   0  0  0  0  0  0  0  0  0  0  0  0
 57 58  1  0  0  0
 58 55  1  0  0  0
 55 56  1  0  0  0
 55 38  1  0  0  0
 38 34  1  0  0  0
 34 35  1  0  0  0
 35 36  2  0  0  0
 35 33  1  0  0  0
 33  1  1  0  0  0
  1  2  1  0  0  0
  1  4  1  0  0  0
  4 29  1  0  0  0
 29 30  1  0  0  0
 30 31  1  0  0  0
 30 32  1  0  0  0
  4  5  1  0  0  0
  5  6  1  0  0  0
  6  7  2  0  0  0
  6  9  1  0  0  0
  9 10  1  0  0  0
 10 11  1  0  0  0
 11 12  2  0  0  0
 11 14  1  0  0  0
 14 15  1  0  0  0
 15 16  1  0  0  0
 16 17  2  0  0  0
 16 19  1  0  0  0
 19 20  1  0  0  0
 20 21  1  0  0  0
 20 22  1  0  0  0
 14 23  1  0  0  0
 23 24  1  0  0  0
 23 25  1  0  0  0
  9 26  1  0  0  0
 26 27  1  0  0  0
 26 28  1  0  0  0
 38 39  1  0  0  0
 39 40  2  0  0  0
 39 41  1  0  0  0
 41 43  1  0  0  0
 43 48  1  0  0  0
 48 49  1  0  0  0
 49 50  2  0  0  0
 50 51  1  0  0  0
 51 52  2  0  0  0
 52 53  1  0  0  0
 53 54  2  0  0  0
 43 44  1  0  0  0
 44 45  1  0  0  0
 44 46  2  0  0  0
 54 49  1  0  0  0
 34 37  1  0  0  0
  2  3  1  0  0  0
  5  8  1  0  0  0
 10 13  1  0  0  0
 15 18  1  0  0  0
 41 42  1  0  0  0
 45 47  1  0  0  0
M  END
> <minimizedAffinity>
-7.28066

> <CNNscore>
0.2469761372

> <CNNaffinity>
6.4741487503

> <CNN_VS>
1.5989602804

> <CNNaffinity_variance>
0.6247326732

$$$$
[H]OC(=O)[C@@]([H])(N([H])C(=O)[C@@]([H])(N([H])C(=O)C([H])([H])[C@]([H])(O[H])[C@@]([H])(N([H])C(=O)[C@@]([H])(N([H])C(=O)[C@@]([H])(N([H])C(=O)C([H])([H])C([H])(C([H])([H])[H])C([H])([H])[H])C([H])(C([H])([H])[H])C([H])([H])[H])C([H])(C([H])([H])[H])C([H])([H])[H])C([H])([H])C([H])(C([H])([H])[H])C([H])([H])[H])[C@@]([H])(C([H])([H])[H])C([H])([H])C([H])([H])[H])C([H])([H])c1c([H])c([H])c([H])c([H])c1[H]


 58 58  0  0  0  0  0  0  0  0999 V2000
   40.3067   14.6023  -14.0542 C   0  0  0  0  0  0  0  0  0  0  0  0
   39.7280   15.8550  -13.6050 O   0  0  0  0  0  0  0  0  0  0  0  0
   40.2615   16.1490  -12.8507 H   0  0  0  0  0  0  0  0  0  0  0  0
   39.2738   13.5645  -14.0146 C   0  0  0  0  0  0  0  0  0  0  0  0
   38.1541   14.0328  -13.2194 N   0  0  0  0  0  0  0  0  0  0  0  0
   37.1289   13.3134  -12.6085 C   0  0  0  0  0  0  0  0  0  0  0  0
   37.0440   12.0616  -12.7205 O   0  0  0  0  0  0  0  0  0  0  0  0
   38.1185   15.0959  -13.0702 H   0  0  0  0  0  0  0  0  0  0  0  0
   36.0279   13.8747  -11.7692 C   0  0  0  0  0  0  0  0  0  0  0  0
   36.5447   15.0557  -11.1063 N   0  0  0  0  0  0  0  0  0  0  0  0
   36.6672   15.0402   -9.6856 C   0  0  0  0  0  0  0  0  0  0  0  0
   36.3090   14.0261   -9.0593 O   0  0  0  0  0  0  0  0  0  0  0  0
   36.8509   15.9154  -11.6024 H   0  0  0  0  0  0  0  0  0  0  0  0
   37.2227   16.2459   -8.9791 C   0  0  0  0  0  0  0  0  0  0  0  0
   38.0606   15.7771   -7.9096 N   0  0  0  0  0  0  0  0  0  0  0  0
   37.8233   16.2355   -6.6000 C   0  0  0  0  0  0  0  0  0  0  0  0
   36.8845   17.0513   -6.4031 O   0  0  0  0  0  0  0  0  0  0  0  0
   38.8273   15.1093   -8.0865 H   0  0  0  0  0  0  0  0  0  0  0  0
   38.6448   15.7821   -5.4681 C   0  0  0  0  0  0  0  0  0  0  0  0
   39.8683   15.0694   -6.0272 C   0  0  0  0  0  0  0  0  0  0  0  0
   39.9151   13.6169   -5.6139 C   0  0  0  0  0  0  0  0  0  0  0  0
   41.0849   15.8394   -5.5455 C   0  0  0  0  0  0  0  0  0  0  0  0
   38.0288   17.0649   -9.9966 C   0  0  0  0  0  0  0  0  0  0  0  0
   37.8795   18.5431   -9.7029 C   0  0  0  0  0  0  0  0  0  0  0  0
   39.4657   16.6432  -10.0413 C   0  0  0  0  0  0  0  0  0  0  0  0
   34.9179   14.4103  -12.6967 C   0  0  0  0  0  0  0  0  0  0  0  0
   33.9285   15.2651  -11.9790 C   0  0  0  0  0  0  0  0  0  0  0  0
   34.3191   13.3049  -13.4888 C   0  0  0  0  0  0  0  0  0  0  0  0
   38.7202   13.2959  -15.4318 C   0  0  0  0  0  0  0  0  0  0  0  0
   39.3263   12.1902  -16.1970 C   0  0  0  0  0  0  0  0  0  0  0  0
   40.6135   12.5099  -16.9195 C   0  0  0  0  0  0  0  0  0  0  0  0
   38.5255   11.1857  -16.8980 C   0  0  0  0  0  0  0  0  0  0  0  0
   41.5430   14.3748  -13.3010 C   0  0  0  0  0  0  0  0  0  0  0  0
   42.7477   15.2955  -11.3555 N   0  0  0  0  0  0  0  0  0  0  0  0
   42.1500   15.5234  -12.6267 C   0  0  0  0  0  0  0  0  0  0  0  0
   42.1643   16.6575  -13.0952 O   0  0  0  0  0  0  0  0  0  0  0  0
   42.6850   14.2900  -10.9913 H   0  0  0  0  0  0  0  0  0  0  0  0
   43.4146   16.3101  -10.5410 C   0  0  0  0  0  0  0  0  0  0  0  0
   44.7214   16.5371  -11.1654 C   0  0  0  0  0  0  0  0  0  0  0  0
   45.7245   15.8056  -10.7519 O   0  0  0  0  0  0  0  0  0  0  0  0
   45.0768   17.4509  -12.1735 N   0  0  0  0  0  0  0  0  0  0  0  0
   44.4460   18.1030  -12.6400 H   0  0  0  0  0  0  0  0  0  0  0  0
   46.5059   17.4696  -12.6109 C   0  0  0  0  0  0  0  0  0  0  0  0
   46.9990   18.8034  -12.3103 C   0  0  0  0  0  0  0  0  0  0  0  0
   46.4249   19.9536  -12.8103 O   0  0  0  0  0  0  0  0  0  0  0  0
   48.0008   18.9645  -11.5637 O   0  0  0  0  0  0  0  0  0  0  0  0
   46.9589   20.8218  -12.9167 H   0  0  0  0  0  0  0  0  0  0  0  0
   46.5498   17.0533  -14.0615 C   0  0  0  0  0  0  0  0  0  0  0  0
   46.3710   15.6012  -14.1852 C   0  0  0  0  0  0  0  0  0  0  0  0
   45.1857   15.0467  -14.6652 C   0  0  0  0  0  0  0  0  0  0  0  0
   45.0349   13.6955  -14.7848 C   0  0  0  0  0  0  0  0  0  0  0  0
   46.0433   12.8000  -14.4395 C   0  0  0  0  0  0  0  0  0  0  0  0
   47.2283   13.3608  -13.9594 C   0  0  0  0  0  0  0  0  0  0  0  0
   47.3667   14.7264  -13.8439 C   0  0  0  0  0  0  0  0  0  0  0  0
   43.5512   15.6015   -9.1702 C   0  0  0  0  0  0  0  0  0  0  0  0
   43.6686   16.6391   -8.0777 C   0  0  0  0  0  0  0  0  0  0  0  0
   42.9057   13.4601   -8.0707 C   0  0  0  0  0  0  0  0  0  0  0  0
   42.4456   14.6602   -8.8738 C   0  0  0  0  0  0  0  0  0  0  0  0
 57 58  1  0  0  0
 58 55  1  0  0  0
 55 56  1  0  0  0
 55 38  1  0  0  0
 38 34  1  0  0  0
 34 35  1  0  0  0
 35 36  2  0  0  0
 35 33  1  0  0  0
 33  1  1  0  0  0
  1  2  1  0  0  0
  1  4  1  0  0  0
  4 29  1  0  0  0
 29 30  1  0  0  0
 30 31  1  0  0  0
 30 32  1  0  0  0
  4  5  1  0  0  0
  5  6  1  0  0  0
  6  7  2  0  0  0
  6  9  1  0  0  0
  9 10  1  0  0  0
 10 11  1  0  0  0
 11 12  2  0  0  0
 11 14  1  0  0  0
 14 15  1  0  0  0
 15 16  1  0  0  0
 16 17  2  0  0  0
 16 19  1  0  0  0
 19 20  1  0  0  0
 20 21  1  0  0  0
 20 22  1  0  0  0
 14 23  1  0  0  0
 23 24  1  0  0  0
 23 25  1  0  0  0
  9 26  1  0  0  0
 26 27  1  0  0  0
 26 28  1  0  0  0
 38 39  1  0  0  0
 39 40  2  0  0  0
 39 41  1  0  0  0
 41 43  1  0  0  0
 43 48  1  0  0  0
 48 49  1  0  0  0
 49 50  2  0  0  0
 50 51  1  0  0  0
 51 52  2  0  0  0
 52 53  1  0  0  0
 53 54  2  0  0  0
 43 44  1  0  0  0
 44 45  1  0  0  0
 44 46  2  0  0  0
 54 49  1  0  0  0
 34 37  1  0  0  0
  2  3  1  0  0  0
  5  8  1  0  0  0
 10 13  1  0  0  0
 15 18  1  0  0  0
 41 42  1  0  0  0
 45 47  1  0  0  0
M  END
> <minimizedAffinity>
-6.82324

> <CNNscore>
0.1408172250

> <CNNaffinity>
6.6170935631

> <CNN_VS>
0.9318007827

> <CNNaffinity_variance>
0.9812033772

$$$$
[H]OC(=O)[C@@]([H])(N([H])C(=O)[C@@]([H])(N([H])C(=O)C([H])([H])[C@]([H])(O[H])[C@@]([H])(N([H])C(=O)[C@@]([H])(N([H])C(=O)[C@@]([H])(N([H])C(=O)C([H])([H])C([H])(C([H])([H])[H])C([H])([H])[H])C([H])(C([H])([H])[H])C([H])([H])[H])C([H])(C([H])([H])[H])C([H])([H])[H])C([H])([H])C([H])(C([H])([H])[H])C([H])([H])[H])[C@@]([H])(C([H])([H])[H])C([H])([H])C([H])([H])[H])C([H])([H])c1c([H])c([H])c([H])c([H])c1[H]


 58 58  0  0  0  0  0  0  0  0999 V2000
   35.8074   16.2541  -10.8522 C   0  0  0  0  0  0  0  0  0  0  0  0
   36.7936   16.1114   -9.7973 O   0  0  0  0  0  0  0  0  0  0  0  0
   37.6020   15.7829  -10.2198 H   0  0  0  0  0  0  0  0  0  0  0  0
   34.6338   15.4458  -10.5134 C   0  0  0  0  0  0  0  0  0  0  0  0
   34.2874   15.6638   -9.1213 N   0  0  0  0  0  0  0  0  0  0  0  0
   34.7343   15.0082   -7.9759 C   0  0  0  0  0  0  0  0  0  0  0  0
   35.5418   14.0436   -8.0405 O   0  0  0  0  0  0  0  0  0  0  0  0
   33.5883   16.4608   -8.9487 H   0  0  0  0  0  0  0  0  0  0  0  0
   34.3529   15.3233   -6.5662 C   0  0  0  0  0  0  0  0  0  0  0  0
   34.8235   16.6635   -6.2772 N   0  0  0  0  0  0  0  0  0  0  0  0
   35.7970   16.8364   -5.2495 C   0  0  0  0  0  0  0  0  0  0  0  0
   36.1956   15.8389   -4.6209 O   0  0  0  0  0  0  0  0  0  0  0  0
   34.5089   17.5136   -6.7845 H   0  0  0  0  0  0  0  0  0  0  0  0
   36.3164   18.2152   -4.9486 C   0  0  0  0  0  0  0  0  0  0  0  0
   35.9764   19.0613   -6.0596 N   0  0  0  0  0  0  0  0  0  0  0  0
   37.0011   19.7455   -6.7402 C   0  0  0  0  0  0  0  0  0  0  0  0
   38.1899   19.6015   -6.3510 O   0  0  0  0  0  0  0  0  0  0  0  0
   34.9972   19.1705   -6.3664 H   0  0  0  0  0  0  0  0  0  0  0  0
   36.7102   20.6172   -7.8880 C   0  0  0  0  0  0  0  0  0  0  0  0
   35.7692   21.7182   -7.4191 C   0  0  0  0  0  0  0  0  0  0  0  0
   35.1574   22.4709   -8.5776 C   0  0  0  0  0  0  0  0  0  0  0  0
   36.5747   22.6280   -6.5089 C   0  0  0  0  0  0  0  0  0  0  0  0
   35.6494   18.7037   -3.6554 C   0  0  0  0  0  0  0  0  0  0  0  0
   36.6146   19.5694   -2.8727 C   0  0  0  0  0  0  0  0  0  0  0  0
   34.3549   19.4079   -3.9251 C   0  0  0  0  0  0  0  0  0  0  0  0
   32.8166   15.4287   -6.4775 C   0  0  0  0  0  0  0  0  0  0  0  0
   32.3559   16.1164   -5.2366 C   0  0  0  0  0  0  0  0  0  0  0  0
   32.1862   14.1053   -6.7202 C   0  0  0  0  0  0  0  0  0  0  0  0
   33.4094   15.8929  -11.3428 C   0  0  0  0  0  0  0  0  0  0  0  0
   32.8302   14.9106  -12.2783 C   0  0  0  0  0  0  0  0  0  0  0  0
   31.4721   14.3627  -11.9090 C   0  0  0  0  0  0  0  0  0  0  0  0
   33.6475   13.9382  -13.0051 C   0  0  0  0  0  0  0  0  0  0  0  0
   36.4712   16.0037  -12.1344 C   0  0  0  0  0  0  0  0  0  0  0  0
   37.8113   14.4885  -13.5459 N   0  0  0  0  0  0  0  0  0  0  0  0
   37.2372   14.7641  -12.2733 C   0  0  0  0  0  0  0  0  0  0  0  0
   37.4020   13.9608  -11.3605 O   0  0  0  0  0  0  0  0  0  0  0  0
   37.6150   15.2168  -14.3066 H   0  0  0  0  0  0  0  0  0  0  0  0
   38.6198   13.3147  -13.8721 C   0  0  0  0  0  0  0  0  0  0  0  0
   39.9617   13.8188  -14.1787 C   0  0  0  0  0  0  0  0  0  0  0  0
   40.0792   15.0901  -14.4657 O   0  0  0  0  0  0  0  0  0  0  0  0
   41.1841   13.1245  -14.2147 N   0  0  0  0  0  0  0  0  0  0  0  0
   41.3158   12.1334  -14.0119 H   0  0  0  0  0  0  0  0  0  0  0  0
   42.4068   13.9045  -14.5759 C   0  0  0  0  0  0  0  0  0  0  0  0
   42.8862   13.3407  -15.8268 C   0  0  0  0  0  0  0  0  0  0  0  0
   43.9087   13.8982  -16.5661 O   0  0  0  0  0  0  0  0  0  0  0  0
   42.3690   12.2938  -16.2993 O   0  0  0  0  0  0  0  0  0  0  0  0
   43.9911   13.7446  -17.5759 H   0  0  0  0  0  0  0  0  0  0  0  0
   43.3587   13.8381  -13.4059 C   0  0  0  0  0  0  0  0  0  0  0  0
   44.1040   15.0967  -13.2775 C   0  0  0  0  0  0  0  0  0  0  0  0
   43.5137   16.2487  -12.7607 C   0  0  0  0  0  0  0  0  0  0  0  0
   44.2196   17.4103  -12.6371 C   0  0  0  0  0  0  0  0  0  0  0  0
   45.5556   17.5138  -13.0146 C   0  0  0  0  0  0  0  0  0  0  0  0
   46.1418   16.3569  -13.5314 C   0  0  0  0  0  0  0  0  0  0  0  0
   45.4174   15.1914  -13.6504 C   0  0  0  0  0  0  0  0  0  0  0  0
   37.9136   12.7631  -15.1357 C   0  0  0  0  0  0  0  0  0  0  0  0
   38.8518   11.8337  -15.8704 C   0  0  0  0  0  0  0  0  0  0  0  0
   35.6440   12.1978  -15.9966 C   0  0  0  0  0  0  0  0  0  0  0  0
   36.6285   12.0822  -14.8502 C   0  0  0  0  0  0  0  0  0  0  0  0
 57 58  1  0  0  0
 58 55  1  0  0  0
 55 56  1  0  0  0
 55 38  1  0  0  0
 38 34  1  0  0  0
 34 35  1  0  0  0
 35 36  2  0  0  0
 35 33  1  0  0  0
 33  1  1  0  0  0
  1  2  1  0  0  0
  1  4  1  0  0  0
  4 29  1  0  0  0
 29 30  1  0  0  0
 30 31  1  0  0  0
 30 32  1  0  0  0
  4  5  1  0  0  0
  5  6  1  0  0  0
  6  7  2  0  0  0
  6  9  1  0  0  0
  9 10  1  0  0  0
 10 11  1  0  0  0
 11 12  2  0  0  0
 11 14  1  0  0  0
 14 15  1  0  0  0
 15 16  1  0  0  0
 16 17  2  0  0  0
 16 19  1  0  0  0
 19 20  1  0  0  0
 20 21  1  0  0  0
 20 22  1  0  0  0
 14 23  1  0  0  0
 23 24  1  0  0  0
 23 25  1  0  0  0
  9 26  1  0  0  0
 26 27  1  0  0  0
 26 28  1  0  0  0
 38 39  1  0  0  0
 39 40  2  0  0  0
 39 41  1  0  0  0
 41 43  1  0  0  0
 43 48  1  0  0  0
 48 49  1  0  0  0
 49 50  2  0  0  0
 50 51  1  0  0  0
 51 52  2  0  0  0
 52 53  1  0  0  0
 53 54  2  0  0  0
 43 44  1  0  0  0
 44 45  1  0  0  0
 44 46  2  0  0  0
 54 49  1  0  0  0
 34 37  1  0  0  0
  2  3  1  0  0  0
  5  8  1  0  0  0
 10 13  1  0  0  0
 15 18  1  0  0  0
 41 42  1  0  0  0
 45 47  1  0  0  0
M  END
> <minimizedAffinity>
-6.73169

> <CNNscore>
0.1274953038

> <CNNaffinity>
6.6519904137

> <CNN_VS>
0.8480975628

> <CNNaffinity_variance>
0.2576045394

$$$$
[H]OC(=O)[C@@]([H])(N([H])C(=O)[C@@]([H])(N([H])C(=O)C([H])([H])[C@]([H])(O[H])[C@@]([H])(N([H])C(=O)[C@@]([H])(N([H])C(=O)[C@@]([H])(N([H])C(=O)C([H])([H])C([H])(C([H])([H])[H])C([H])([H])[H])C([H])(C([H])([H])[H])C([H])([H])[H])C([H])(C([H])([H])[H])C([H])([H])[H])C([H])([H])C([H])(C([H])([H])[H])C([H])([H])[H])[C@@]([H])(C([H])([H])[H])C([H])([H])C([H])([H])[H])C([H])([H])c1c([H])c([H])c([H])c([H])c1[H]


 58 58  0  0  0  0  0  0  0  0999 V2000
   35.6914   14.9781  -11.5799 C   0  0  0  0  0  0  0  0  0  0  0  0
   34.3972   14.3956  -11.8825 O   0  0  0  0  0  0  0  0  0  0  0  0
   34.3646   14.2841  -12.8450 H   0  0  0  0  0  0  0  0  0  0  0  0
   35.4855   16.2371  -10.8603 C   0  0  0  0  0  0  0  0  0  0  0  0
   34.9548   15.9532   -9.5400 N   0  0  0  0  0  0  0  0  0  0  0  0
   33.6333   15.8319   -9.1151 C   0  0  0  0  0  0  0  0  0  0  0  0
   32.6677   16.0032   -9.9058 O   0  0  0  0  0  0  0  0  0  0  0  0
   35.6960   15.8021   -8.7775 H   0  0  0  0  0  0  0  0  0  0  0  0
   33.1714   15.4975   -7.7342 C   0  0  0  0  0  0  0  0  0  0  0  0
   33.2817   16.7017   -6.9349 N   0  0  0  0  0  0  0  0  0  0  0  0
   34.0778   16.6631   -5.7523 C   0  0  0  0  0  0  0  0  0  0  0  0
   34.6339   15.5965   -5.4328 O   0  0  0  0  0  0  0  0  0  0  0  0
   32.8292   17.6049   -7.1764 H   0  0  0  0  0  0  0  0  0  0  0  0
   34.2250   17.9071   -4.9202 C   0  0  0  0  0  0  0  0  0  0  0  0
   35.0610   18.8220   -5.6479 N   0  0  0  0  0  0  0  0  0  0  0  0
   36.3591   19.0909   -5.1745 C   0  0  0  0  0  0  0  0  0  0  0  0
   36.7499   18.5253   -4.1196 O   0  0  0  0  0  0  0  0  0  0  0  0
   34.7264   19.2792   -6.5105 H   0  0  0  0  0  0  0  0  0  0  0  0
   37.2588   20.0121   -5.8843 C   0  0  0  0  0  0  0  0  0  0  0  0
   36.4114   20.9025   -6.7825 C   0  0  0  0  0  0  0  0  0  0  0  0
   36.9744   20.9942   -8.1816 C   0  0  0  0  0  0  0  0  0  0  0  0
   36.3330   22.2607   -6.1086 C   0  0  0  0  0  0  0  0  0  0  0  0
   32.8260   18.4959   -4.6922 C   0  0  0  0  0  0  0  0  0  0  0  0
   32.1595   17.8035   -3.5218 C   0  0  0  0  0  0  0  0  0  0  0  0
   32.8671   19.9832   -4.5161 C   0  0  0  0  0  0  0  0  0  0  0  0
   31.6583   15.2003   -7.7734 C   0  0  0  0  0  0  0  0  0  0  0  0
   30.8426   16.2736   -7.1351 C   0  0  0  0  0  0  0  0  0  0  0  0
   31.3806   13.8309   -7.2682 C   0  0  0  0  0  0  0  0  0  0  0  0
   36.8314   16.9638  -10.6424 C   0  0  0  0  0  0  0  0  0  0  0  0
   37.6980   16.4719   -9.5549 C   0  0  0  0  0  0  0  0  0  0  0  0
   38.2170   17.5165   -8.5955 C   0  0  0  0  0  0  0  0  0  0  0  0
   38.6350   15.3624   -9.7351 C   0  0  0  0  0  0  0  0  0  0  0  0
   36.4776   15.0102  -12.8162 C   0  0  0  0  0  0  0  0  0  0  0  0
   38.4220   14.0716  -14.0089 N   0  0  0  0  0  0  0  0  0  0  0  0
   37.3463   13.8668  -13.0999 C   0  0  0  0  0  0  0  0  0  0  0  0
   37.1918   12.7556  -12.6030 O   0  0  0  0  0  0  0  0  0  0  0  0
   38.4919   15.0566  -14.4245 H   0  0  0  0  0  0  0  0  0  0  0  0
   39.4009   13.0592  -14.4019 C   0  0  0  0  0  0  0  0  0  0  0  0
   40.7124   13.7084  -14.3168 C   0  0  0  0  0  0  0  0  0  0  0  0
   40.7389   15.0163  -14.2843 O   0  0  0  0  0  0  0  0  0  0  0  0
   41.9905   13.1241  -14.2641 N   0  0  0  0  0  0  0  0  0  0  0  0
   42.1920   12.1241  -14.2653 H   0  0  0  0  0  0  0  0  0  0  0  0
   43.1648   14.0460  -14.1932 C   0  0  0  0  0  0  0  0  0  0  0  0
   44.0842   13.6033  -15.2282 C   0  0  0  0  0  0  0  0  0  0  0  0
   43.9906   14.0018  -16.5454 O   0  0  0  0  0  0  0  0  0  0  0  0
   45.0263   12.8128  -14.9550 O   0  0  0  0  0  0  0  0  0  0  0  0
   44.3668   13.4327  -17.3101 H   0  0  0  0  0  0  0  0  0  0  0  0
   43.6895   14.0167  -12.7778 C   0  0  0  0  0  0  0  0  0  0  0  0
   44.4330   15.2473  -12.4797 C   0  0  0  0  0  0  0  0  0  0  0  0
   43.9012   16.5079  -12.7458 C   0  0  0  0  0  0  0  0  0  0  0  0
   44.5980   17.6449  -12.4553 C   0  0  0  0  0  0  0  0  0  0  0  0
   45.8664   17.6152  -11.8822 C   0  0  0  0  0  0  0  0  0  0  0  0
   46.3942   16.3500  -11.6177 C   0  0  0  0  0  0  0  0  0  0  0  0
   45.6797   15.2108  -11.9161 C   0  0  0  0  0  0  0  0  0  0  0  0
   39.0038   12.7623  -15.8695 C   0  0  0  0  0  0  0  0  0  0  0  0
   40.2507   12.5179  -16.6878 C   0  0  0  0  0  0  0  0  0  0  0  0
   36.6411   12.0875  -16.2859 C   0  0  0  0  0  0  0  0  0  0  0  0
   38.0596   11.6291  -16.0133 C   0  0  0  0  0  0  0  0  0  0  0  0
 57 58  1  0  0  0
 58 55  1  0  0  0
 55 56  1  0  0  0
 55 38  1  0  0  0
 38 34  1  0  0  0
 34 35  1  0  0  0
 35 36  2  0  0  0
 35 33  1  0  0  0
 33  1  1  0  0  0
  1  2  1  0  0  0
  1  4  1  0  0  0
  4 29  1  0  0  0
 29 30  1  0  0  0
 30 31  1  0  0  0
 30 32  1  0  0  0
  4  5  1  0  0  0
  5  6  1  0  0  0
  6  7  2  0  0  0
  6  9  1  0  0  0
  9 10  1  0  0  0
 10 11  1  0  0  0
 11 12  2  0  0  0
 11 14  1  0  0  0
 14 15  1  0  0  0
 15 16  1  0  0  0
 16 17  2  0  0  0
 16 19  1  0  0  0
 19 20  1  0  0  0
 20 21  1  0  0  0
 20 22  1  0  0  0
 14 23  1  0  0  0
 23 24  1  0  0  0
 23 25  1  0  0  0
  9 26  1  0  0  0
 26 27  1  0  0  0
 26 28  1  0  0  0
 38 39  1  0  0  0
 39 40  2  0  0  0
 39 41  1  0  0  0
 41 43  1  0  0  0
 43 48  1  0  0  0
 48 49  1  0  0  0
 49 50  2  0  0  0
 50 51  1  0  0  0
 51 52  2  0  0  0
 52 53  1  0  0  0
 53 54  2  0  0  0
 43 44  1  0  0  0
 44 45  1  0  0  0
 44 46  2  0  0  0
 54 49  1  0  0  0
 34 37  1  0  0  0
  2  3  1  0  0  0
  5  8  1  0  0  0
 10 13  1  0  0  0
 15 18  1  0  0  0
 41 42  1  0  0  0
 45 47  1  0  0  0
M  END
> <minimizedAffinity>
-6.79034

> <CNNscore>
0.1206426620

> <CNNaffinity>
6.2766079903

> <CNN_VS>
0.7572267056

> <CNNaffinity_variance>
0.8205339313

$$$$
[H]OC(=O)[C@@]([H])(N([H])C(=O)[C@@]([H])(N([H])C(=O)C([H])([H])[C@]([H])(O[H])[C@@]([H])(N([H])C(=O)[C@@]([H])(N([H])C(=O)[C@@]([H])(N([H])C(=O)C([H])([H])C([H])(C([H])([H])[H])C([H])([H])[H])C([H])(C([H])([H])[H])C([H])([H])[H])C([H])(C([H])([H])[H])C([H])([H])[H])C([H])([H])C([H])(C([H])([H])[H])C([H])([H])[H])[C@@]([H])(C([H])([H])[H])C([H])([H])C([H])([H])[H])C([H])([H])c1c([H])c([H])c([H])c([H])c1[H]


 58 58  0  0  0  0  0  0  0  0999 V2000
   40.0113   14.7305  -14.1519 C   0  0  0  0  0  0  0  0  0  0  0  0
   39.3406   15.8443  -13.5073 O   0  0  0  0  0  0  0  0  0  0  0  0
   39.8462   16.0413  -12.7039 H   0  0  0  0  0  0  0  0  0  0  0  0
   39.0556   13.6317  -14.3097 C   0  0  0  0  0  0  0  0  0  0  0  0
   37.8543   13.9290  -13.5523 N   0  0  0  0  0  0  0  0  0  0  0  0
   36.9637   13.0676  -12.9147 C   0  0  0  0  0  0  0  0  0  0  0  0
   37.1081   11.8171  -12.9607 O   0  0  0  0  0  0  0  0  0  0  0  0
   37.6247   14.9743  -13.4602 H   0  0  0  0  0  0  0  0  0  0  0  0
   35.7630   13.4619  -12.1179 C   0  0  0  0  0  0  0  0  0  0  0  0
   35.9814   14.8134  -11.6416 N   0  0  0  0  0  0  0  0  0  0  0  0
   36.2451   15.0119  -10.2542 C   0  0  0  0  0  0  0  0  0  0  0  0
   36.2589   14.0260   -9.4947 O   0  0  0  0  0  0  0  0  0  0  0  0
   35.9754   15.6543  -12.2514 H   0  0  0  0  0  0  0  0  0  0  0  0
   36.4974   16.4031   -9.7421 C   0  0  0  0  0  0  0  0  0  0  0  0
   36.5902   16.3304   -8.3097 N   0  0  0  0  0  0  0  0  0  0  0  0
   35.4709   16.6792   -7.5306 C   0  0  0  0  0  0  0  0  0  0  0  0
   34.4186   17.0526   -8.1126 O   0  0  0  0  0  0  0  0  0  0  0  0
   37.4600   16.0237   -7.8467 H   0  0  0  0  0  0  0  0  0  0  0  0
   35.5086   16.6151   -6.0622 C   0  0  0  0  0  0  0  0  0  0  0  0
   34.4841   17.6017   -5.5193 C   0  0  0  0  0  0  0  0  0  0  0  0
   35.0422   19.0026   -5.4255 C   0  0  0  0  0  0  0  0  0  0  0  0
   34.0371   17.0735   -4.1679 C   0  0  0  0  0  0  0  0  0  0  0  0
   37.8102   16.9065  -10.3578 C   0  0  0  0  0  0  0  0  0  0  0  0
   38.0562   18.3426   -9.9447 C   0  0  0  0  0  0  0  0  0  0  0  0
   38.9661   16.0172  -10.0145 C   0  0  0  0  0  0  0  0  0  0  0  0
   34.5526   13.5804  -13.0667 C   0  0  0  0  0  0  0  0  0  0  0  0
   34.9506   13.8410  -14.4803 C   0  0  0  0  0  0  0  0  0  0  0  0
   33.5514   14.5334  -12.5215 C   0  0  0  0  0  0  0  0  0  0  0  0
   38.6192   13.5001  -15.7859 C   0  0  0  0  0  0  0  0  0  0  0  0
   39.1711   12.3702  -16.5568 C   0  0  0  0  0  0  0  0  0  0  0  0
   38.8224   10.9897  -16.0533 C   0  0  0  0  0  0  0  0  0  0  0  0
   40.4890   12.4184  -17.1910 C   0  0  0  0  0  0  0  0  0  0  0  0
   41.2555   14.4643  -13.4248 C   0  0  0  0  0  0  0  0  0  0  0  0
   42.6303   15.1969  -11.5125 N   0  0  0  0  0  0  0  0  0  0  0  0
   41.8258   15.5537  -12.6308 C   0  0  0  0  0  0  0  0  0  0  0  0
   41.6429   16.7420  -12.8762 O   0  0  0  0  0  0  0  0  0  0  0  0
   42.7355   14.1451  -11.3383 H   0  0  0  0  0  0  0  0  0  0  0  0
   43.2956   16.1398  -10.6147 C   0  0  0  0  0  0  0  0  0  0  0  0
   44.4699   16.6320  -11.3412 C   0  0  0  0  0  0  0  0  0  0  0  0
   45.6391   16.4823  -10.7731 O   0  0  0  0  0  0  0  0  0  0  0  0
   44.5373   17.2628  -12.5962 N   0  0  0  0  0  0  0  0  0  0  0  0
   43.7464   17.4637  -13.2085 H   0  0  0  0  0  0  0  0  0  0  0  0
   45.8880   17.6731  -13.0871 C   0  0  0  0  0  0  0  0  0  0  0  0
   45.8571   19.1233  -13.1786 C   0  0  0  0  0  0  0  0  0  0  0  0
   44.7559   19.8315  -13.6128 O   0  0  0  0  0  0  0  0  0  0  0  0
   46.8649   19.8085  -12.8597 O   0  0  0  0  0  0  0  0  0  0  0  0
   44.8425   20.7653  -14.0259 H   0  0  0  0  0  0  0  0  0  0  0  0
   46.1571   16.9292  -14.3731 C   0  0  0  0  0  0  0  0  0  0  0  0
   46.0632   15.4798  -14.1578 C   0  0  0  0  0  0  0  0  0  0  0  0
   47.0466   14.7764  -13.4643 C   0  0  0  0  0  0  0  0  0  0  0  0
   46.9434   13.4305  -13.2621 C   0  0  0  0  0  0  0  0  0  0  0  0
   45.8628   12.6877  -13.7298 C   0  0  0  0  0  0  0  0  0  0  0  0
   44.8807   13.3973  -14.4236 C   0  0  0  0  0  0  0  0  0  0  0  0
   44.9979   14.7556  -14.6203 C   0  0  0  0  0  0  0  0  0  0  0  0
   43.6980   15.2379   -9.4213 C   0  0  0  0  0  0  0  0  0  0  0  0
   42.8291   15.5650   -8.2288 C   0  0  0  0  0  0  0  0  0  0  0  0
   45.0131   13.1583   -9.8177 C   0  0  0  0  0  0  0  0  0  0  0  0
   43.6380   13.7883   -9.7237 C   0  0  0  0  0  0  0  0  0  0  0  0
 57 58  1  0  0  0
 58 55  1  0  0  0
 55 56  1  0  0  0
 55 38  1  0  0  0
 38 34  1  0  0  0
 34 35  1  0  0  0
 35 36  2  0  0  0
 35 33  1  0  0  0
 33  1  1  0  0  0
  1  2  1  0  0  0
  1  4  1  0  0  0
  4 29  1  0  0  0
 29 30  1  0  0  0
 30 31  1  0  0  0
 30 32  1  0  0  0
  4  5  1  0  0  0
  5  6  1  0  0  0
  6  7  2  0  0  0
  6  9  1  0  0  0
  9 10  1  0  0  0
 10 11  1  0  0  0
 11 12  2  0  0  0
 11 14  1  0  0  0
 14 15  1  0  0  0
 15 16  1  0  0  0
 16 17  2  0  0  0
 16 19  1  0  0  0
 19 20  1  0  0  0
 20 21  1  0  0  0
 20 22  1  0  0  0
 14 23  1  0  0  0
 23 24  1  0  0  0
 23 25  1  0  0  0
  9 26  1  0  0  0
 26 27  1  0  0  0
 26 28  1  0  0  0
 38 39  1  0  0  0
 39 40  2  0  0  0
 39 41  1  0  0  0
 41 43  1  0  0  0
 43 48  1  0  0  0
 48 49  1  0  0  0
 49 50  2  0  0  0
 50 51  1  0  0  0
 51 52  2  0  0  0
 52 53  1  0  0  0
 53 54  2  0  0  0
 43 44  1  0  0  0
 44 45  1  0  0  0
 44 46  2  0  0  0
 54 49  1  0  0  0
 34 37  1  0  0  0
  2  3  1  0  0  0
  5  8  1  0  0  0
 10 13  1  0  0  0
 15 18  1  0  0  0
 41 42  1  0  0  0
 45 47  1  0  0  0
M  END
> <minimizedAffinity>
-6.61373

> <CNNscore>
0.1163157970

> <CNNaffinity>
6.5634803772

> <CNN_VS>
0.7634364367

> <CNNaffinity_variance>
0.7619537711

$$$$
[H]OC(=O)[C@@]([H])(N([H])C(=O)[C@@]([H])(N([H])C(=O)C([H])([H])[C@]([H])(O[H])[C@@]([H])(N([H])C(=O)[C@@]([H])(N([H])C(=O)[C@@]([H])(N([H])C(=O)C([H])([H])C([H])(C([H])([H])[H])C([H])([H])[H])C([H])(C([H])([H])[H])C([H])([H])[H])C([H])(C([H])([H])[H])C([H])([H])[H])C([H])([H])C([H])(C([H])([H])[H])C([H])([H])[H])[C@@]([H])(C([H])([H])[H])C([H])([H])C([H])([H])[H])C([H])([H])c1c([H])c([H])c([H])c([H])c1[H]


 58 58  0  0  0  0  0  0  0  0999 V2000
   36.5155   17.1025   -8.8260 C   0  0  0  0  0  0  0  0  0  0  0  0
   35.1019   17.4282   -8.7887 O   0  0  0  0  0  0  0  0  0  0  0  0
   34.7936   17.4187   -9.7078 H   0  0  0  0  0  0  0  0  0  0  0  0
   37.2665   18.1874   -8.1900 C   0  0  0  0  0  0  0  0  0  0  0  0
   36.4032   19.3438   -8.0395 N   0  0  0  0  0  0  0  0  0  0  0  0
   36.7194   20.7009   -8.0370 C   0  0  0  0  0  0  0  0  0  0  0  0
   37.9087   21.1013   -8.1457 O   0  0  0  0  0  0  0  0  0  0  0  0
   35.3596   19.1172   -7.9243 H   0  0  0  0  0  0  0  0  0  0  0  0
   35.7570   21.8369   -7.9135 C   0  0  0  0  0  0  0  0  0  0  0  0
   34.7920   21.4808   -6.8923 N   0  0  0  0  0  0  0  0  0  0  0  0
   33.4139   21.7597   -7.1310 C   0  0  0  0  0  0  0  0  0  0  0  0
   33.0856   22.3165   -8.1946 O   0  0  0  0  0  0  0  0  0  0  0  0
   35.0366   21.0161   -5.9961 H   0  0  0  0  0  0  0  0  0  0  0  0
   32.3929   21.3777   -6.0951 C   0  0  0  0  0  0  0  0  0  0  0  0
   31.8738   20.0854   -6.4502 N   0  0  0  0  0  0  0  0  0  0  0  0
   30.5300   19.9726   -6.8538 C   0  0  0  0  0  0  0  0  0  0  0  0
   29.8166   21.0096   -6.8861 O   0  0  0  0  0  0  0  0  0  0  0  0
   32.4703   19.2440   -6.4177 H   0  0  0  0  0  0  0  0  0  0  0  0
   29.9501   18.6764   -7.2355 C   0  0  0  0  0  0  0  0  0  0  0  0
   31.0040   17.6016   -7.0083 C   0  0  0  0  0  0  0  0  0  0  0  0
   31.2382   16.7682   -8.2466 C   0  0  0  0  0  0  0  0  0  0  0  0
   30.5303   16.7612   -5.8359 C   0  0  0  0  0  0  0  0  0  0  0  0
   33.0919   21.3381   -4.7292 C   0  0  0  0  0  0  0  0  0  0  0  0
   32.6133   22.4908   -3.8714 C   0  0  0  0  0  0  0  0  0  0  0  0
   32.9113   20.0168   -4.0466 C   0  0  0  0  0  0  0  0  0  0  0  0
   36.4991   23.0574   -7.3313 C   0  0  0  0  0  0  0  0  0  0  0  0
   36.2825   23.2186   -5.8643 C   0  0  0  0  0  0  0  0  0  0  0  0
   36.2156   24.2747   -8.1347 C   0  0  0  0  0  0  0  0  0  0  0  0
   37.7042   17.7813   -6.7650 C   0  0  0  0  0  0  0  0  0  0  0  0
   37.0318   16.6183   -6.1560 C   0  0  0  0  0  0  0  0  0  0  0  0
   35.9372   16.9291   -5.1628 C   0  0  0  0  0  0  0  0  0  0  0  0
   37.7385   15.3765   -5.8398 C   0  0  0  0  0  0  0  0  0  0  0  0
   36.8632   16.7362  -10.2017 C   0  0  0  0  0  0  0  0  0  0  0  0
   36.8006   15.0571  -12.0073 N   0  0  0  0  0  0  0  0  0  0  0  0
   36.5514   15.3759  -10.6430 C   0  0  0  0  0  0  0  0  0  0  0  0
   36.0883   14.5112   -9.9058 O   0  0  0  0  0  0  0  0  0  0  0  0
   37.1853   15.8591  -12.6044 H   0  0  0  0  0  0  0  0  0  0  0  0
   36.5695   13.7528  -12.6263 C   0  0  0  0  0  0  0  0  0  0  0  0
   37.8235   13.3933  -13.2952 C   0  0  0  0  0  0  0  0  0  0  0  0
   38.1098   12.1208  -13.4001 O   0  0  0  0  0  0  0  0  0  0  0  0
   38.8006   14.2323  -13.8598 N   0  0  0  0  0  0  0  0  0  0  0  0
   38.7665   15.2513  -13.8957 H   0  0  0  0  0  0  0  0  0  0  0  0
   39.9978   13.5783  -14.4706 C   0  0  0  0  0  0  0  0  0  0  0  0
   41.1327   13.9812  -13.6570 C   0  0  0  0  0  0  0  0  0  0  0  0
   41.0597   14.9585  -12.6863 O   0  0  0  0  0  0  0  0  0  0  0  0
   42.2597   13.4409  -13.8145 O   0  0  0  0  0  0  0  0  0  0  0  0
   41.8845   15.4915  -12.3931 H   0  0  0  0  0  0  0  0  0  0  0  0
   40.0469   13.9740  -15.9268 C   0  0  0  0  0  0  0  0  0  0  0  0
   39.7717   12.8142  -16.7842 C   0  0  0  0  0  0  0  0  0  0  0  0
   38.6285   12.0344  -16.6179 C   0  0  0  0  0  0  0  0  0  0  0  0
   38.3786   10.9643  -17.4274 C   0  0  0  0  0  0  0  0  0  0  0  0
   39.2394   10.5916  -18.4561 C   0  0  0  0  0  0  0  0  0  0  0  0
   40.3828   11.3762  -18.6183 C   0  0  0  0  0  0  0  0  0  0  0  0
   40.6223   12.4534  -17.7939 C   0  0  0  0  0  0  0  0  0  0  0  0
   35.4453   14.0614  -13.6465 C   0  0  0  0  0  0  0  0  0  0  0  0
   35.7804   13.4196  -14.9730 C   0  0  0  0  0  0  0  0  0  0  0  0
   33.3413   14.7612  -12.5085 C   0  0  0  0  0  0  0  0  0  0  0  0
   34.0983   13.6410  -13.1933 C   0  0  0  0  0  0  0  0  0  0  0  0
 57 58  1  0  0  0
 58 55  1  0  0  0
 55 56  1  0  0  0
 55 38  1  0  0  0
 38 34  1  0  0  0
 34 35  1  0  0  0
 35 36  2  0  0  0
 35 33  1  0  0  0
 33  1  1  0  0  0
  1  2  1  0  0  0
  1  4  1  0  0  0
  4 29  1  0  0  0
 29 30  1  0  0  0
 30 31  1  0  0  0
 30 32  1  0  0  0
  4  5  1  0  0  0
  5  6  1  0  0  0
  6  7  2  0  0  0
  6  9  1  0  0  0
  9 10  1  0  0  0
 10 11  1  0  0  0
 11 12  2  0  0  0
 11 14  1  0  0  0
 14 15  1  0  0  0
 15 16  1  0  0  0
 16 17  2  0  0  0
 16 19  1  0  0  0
 19 20  1  0  0  0
 20 21  1  0  0  0
 20 22  1  0  0  0
 14 23  1  0  0  0
 23 24  1  0  0  0
 23 25  1  0  0  0
  9 26  1  0  0  0
 26 27  1  0  0  0
 26 28  1  0  0  0
 38 39  1  0  0  0
 39 40  2  0  0  0
 39 41  1  0  0  0
 41 43  1  0  0  0
 43 48  1  0  0  0
 48 49  1  0  0  0
 49 50  2  0  0  0
 50 51  1  0  0  0
 51 52  2  0  0  0
 52 53  1  0  0  0
 53 54  2  0  0  0
 43 44  1  0  0  0
 44 45  1  0  0  0
 44 46  2  0  0  0
 54 49  1  0  0  0
 34 37  1  0  0  0
  2  3  1  0  0  0
  5  8  1  0  0  0
 10 13  1  0  0  0
 15 18  1  0  0  0
 41 42  1  0  0  0
 45 47  1  0  0  0
M  END
> <minimizedAffinity>
-7.92630

> <CNNscore>
0.1066539511

> <CNNaffinity>
6.3985223770

> <CNN_VS>
0.6824277043

> <CNNaffinity_variance>
0.5729858279

$$$$
[H]OC(=O)[C@@]([H])(N([H])C(=O)[C@@]([H])(N([H])C(=O)C([H])([H])[C@]([H])(O[H])[C@@]([H])(N([H])C(=O)[C@@]([H])(N([H])C(=O)[C@@]([H])(N([H])C(=O)C([H])([H])C([H])(C([H])([H])[H])C([H])([H])[H])C([H])(C([H])([H])[H])C([H])([H])[H])C([H])(C([H])([H])[H])C([H])([H])[H])C([H])([H])C([H])(C([H])([H])[H])C([H])([H])[H])[C@@]([H])(C([H])([H])[H])C([H])([H])C([H])([H])[H])C([H])([H])c1c([H])c([H])c([H])c([H])c1[H]


 58 58  0  0  0  0  0  0  0  0999 V2000
   40.9932   14.0774  -14.3733 C   0  0  0  0  0  0  0  0  0  0  0  0
   40.5965   15.3740  -13.8563 O   0  0  0  0  0  0  0  0  0  0  0  0
   41.1409   15.5344  -13.0703 H   0  0  0  0  0  0  0  0  0  0  0  0
   39.8134   13.2113  -14.4306 C   0  0  0  0  0  0  0  0  0  0  0  0
   38.7603   13.7812  -13.6111 N   0  0  0  0  0  0  0  0  0  0  0  0
   37.6562   13.1687  -13.0215 C   0  0  0  0  0  0  0  0  0  0  0  0
   37.4195   11.9417  -13.1804 O   0  0  0  0  0  0  0  0  0  0  0  0
   38.8545   14.8342  -13.4215 H   0  0  0  0  0  0  0  0  0  0  0  0
   36.6330   13.8269  -12.1545 C   0  0  0  0  0  0  0  0  0  0  0  0
   37.2938   14.9014  -11.4404 N   0  0  0  0  0  0  0  0  0  0  0  0
   37.0900   15.0098  -10.0331 C   0  0  0  0  0  0  0  0  0  0  0  0
   36.3382   14.1954   -9.4671 O   0  0  0  0  0  0  0  0  0  0  0  0
   37.9258   15.5950  -11.8860 H   0  0  0  0  0  0  0  0  0  0  0  0
   37.7840   16.1029   -9.2684 C   0  0  0  0  0  0  0  0  0  0  0  0
   39.0449   16.3523   -9.9117 N   0  0  0  0  0  0  0  0  0  0  0  0
   40.2309   15.9216   -9.2878 C   0  0  0  0  0  0  0  0  0  0  0  0
   40.1538   15.3340   -8.1768 O   0  0  0  0  0  0  0  0  0  0  0  0
   39.0925   16.8363  -10.8218 H   0  0  0  0  0  0  0  0  0  0  0  0
   41.5466   16.1435   -9.9055 C   0  0  0  0  0  0  0  0  0  0  0  0
   42.5830   15.3710   -9.1013 C   0  0  0  0  0  0  0  0  0  0  0  0
   43.5148   16.2909   -8.3475 C   0  0  0  0  0  0  0  0  0  0  0  0
   43.3277   14.4821  -10.0812 C   0  0  0  0  0  0  0  0  0  0  0  0
   36.8890   17.3494   -9.3011 C   0  0  0  0  0  0  0  0  0  0  0  0
   36.2423   17.5555   -7.9473 C   0  0  0  0  0  0  0  0  0  0  0  0
   37.6382   18.5642   -9.7567 C   0  0  0  0  0  0  0  0  0  0  0  0
   35.6028   14.5406  -13.0538 C   0  0  0  0  0  0  0  0  0  0  0  0
   34.3317   14.8539  -12.3390 C   0  0  0  0  0  0  0  0  0  0  0  0
   35.4268   13.8058  -14.3332 C   0  0  0  0  0  0  0  0  0  0  0  0
   39.2582   13.1457  -15.8709 C   0  0  0  0  0  0  0  0  0  0  0  0
   39.5774   11.9448  -16.6654 C   0  0  0  0  0  0  0  0  0  0  0  0
   40.7966   12.0398  -17.5517 C   0  0  0  0  0  0  0  0  0  0  0  0
   38.5439   11.0739  -17.2266 C   0  0  0  0  0  0  0  0  0  0  0  0
   42.1523   13.6150  -13.6050 C   0  0  0  0  0  0  0  0  0  0  0  0
   44.3548   14.7253  -13.5968 N   0  0  0  0  0  0  0  0  0  0  0  0
   43.4771   13.7842  -14.2041 C   0  0  0  0  0  0  0  0  0  0  0  0
   43.8602   13.1664  -15.1927 O   0  0  0  0  0  0  0  0  0  0  0  0
   43.9556   15.2472  -12.7506 H   0  0  0  0  0  0  0  0  0  0  0  0
   45.7169   15.0190  -14.0399 C   0  0  0  0  0  0  0  0  0  0  0  0
   46.5819   14.0481  -13.3632 C   0  0  0  0  0  0  0  0  0  0  0  0
   47.2743   14.4682  -12.3353 O   0  0  0  0  0  0  0  0  0  0  0  0
   46.7914   12.6891  -13.6578 N   0  0  0  0  0  0  0  0  0  0  0  0
   46.3425   12.1630  -14.4077 H   0  0  0  0  0  0  0  0  0  0  0  0
   47.7531   11.9393  -12.7936 C   0  0  0  0  0  0  0  0  0  0  0  0
   48.8249   11.5027  -13.6729 C   0  0  0  0  0  0  0  0  0  0  0  0
   49.7640   10.5591  -13.3115 O   0  0  0  0  0  0  0  0  0  0  0  0
   48.9431   11.9860  -14.8302 O   0  0  0  0  0  0  0  0  0  0  0  0
   50.6923   10.5275  -13.7443 H   0  0  0  0  0  0  0  0  0  0  0  0
   46.9845   10.8490  -12.0864 C   0  0  0  0  0  0  0  0  0  0  0  0
   47.5294   10.6255  -10.7414 C   0  0  0  0  0  0  0  0  0  0  0  0
   47.8208    9.3459  -10.2718 C   0  0  0  0  0  0  0  0  0  0  0  0
   48.3362    9.1515   -9.0230 C   0  0  0  0  0  0  0  0  0  0  0  0
   48.5992   10.2062   -8.1533 C   0  0  0  0  0  0  0  0  0  0  0  0
   48.3055   11.4856   -8.6288 C   0  0  0  0  0  0  0  0  0  0  0  0
   47.7857   11.6671   -9.8914 C   0  0  0  0  0  0  0  0  0  0  0  0
   45.9403   16.4552  -13.5040 C   0  0  0  0  0  0  0  0  0  0  0  0
   46.4684   17.3305  -14.6171 C   0  0  0  0  0  0  0  0  0  0  0  0
   44.9757   17.5646  -11.4916 C   0  0  0  0  0  0  0  0  0  0  0  0
   44.7300   17.0601  -12.8994 C   0  0  0  0  0  0  0  0  0  0  0  0
 57 58  1  0  0  0
 58 55  1  0  0  0
 55 56  1  0  0  0
 55 38  1  0  0  0
 38 34  1  0  0  0
 34 35  1  0  0  0
 35 36  2  0  0  0
 35 33  1  0  0  0
 33  1  1  0  0  0
  1  2  1  0  0  0
  1  4  1  0  0  0
  4 29  1  0  0  0
 29 30  1  0  0  0
 30 31  1  0  0  0
 30 32  1  0  0  0
  4  5  1  0  0  0
  5  6  1  0  0  0
  6  7  2  0  0  0
  6  9  1  0  0  0
  9 10  1  0  0  0
 10 11  1  0  0  0
 11 12  2  0  0  0
 11 14  1  0  0  0
 14 15  1  0  0  0
 15 16  1  0  0  0
 16 17  2  0  0  0
 16 19  1  0  0  0
 19 20  1  0  0  0
 20 21  1  0  0  0
 20 22  1  0  0  0
 14 23  1  0  0  0
 23 24  1  0  0  0
 23 25  1  0  0  0
  9 26  1  0  0  0
 26 27  1  0  0  0
 26 28  1  0  0  0
 38 39  1  0  0  0
 39 40  2  0  0  0
 39 41  1  0  0  0
 41 43  1  0  0  0
 43 48  1  0  0  0
 48 49  1  0  0  0
 49 50  2  0  0  0
 50 51  1  0  0  0
 51 52  2  0  0  0
 52 53  1  0  0  0
 53 54  2  0  0  0
 43 44  1  0  0  0
 44 45  1  0  0  0
 44 46  2  0  0  0
 54 49  1  0  0  0
 34 37  1  0  0  0
  2  3  1  0  0  0
  5  8  1  0  0  0
 10 13  1  0  0  0
 15 18  1  0  0  0
 41 42  1  0  0  0
 45 47  1  0  0  0
M  END
> <minimizedAffinity>
-6.96855

> <CNNscore>
0.0911561549

> <CNNaffinity>
6.4514245987

> <CNN_VS>
0.5880870819

> <CNNaffinity_variance>
0.7764023542

$$$$
[H]OC(=O)[C@@]([H])(N([H])C(=O)[C@@]([H])(N([H])C(=O)C([H])([H])[C@]([H])(O[H])[C@@]([H])(N([H])C(=O)[C@@]([H])(N([H])C(=O)[C@@]([H])(N([H])C(=O)C([H])([H])C([H])(C([H])([H])[H])C([H])([H])[H])C([H])(C([H])([H])[H])C([H])([H])[H])C([H])(C([H])([H])[H])C([H])([H])[H])C([H])([H])C([H])(C([H])([H])[H])C([H])([H])[H])[C@@]([H])(C([H])([H])[H])C([H])([H])C([H])([H])[H])C([H])([H])c1c([H])c([H])c([H])c([H])c1[H]


 58 58  0  0  0  0  0  0  0  0999 V2000
   36.0328   14.7371  -11.3739 C   0  0  0  0  0  0  0  0  0  0  0  0
   34.6007   14.7155  -11.6070 O   0  0  0  0  0  0  0  0  0  0  0  0
   34.4732   14.9012  -12.5500 H   0  0  0  0  0  0  0  0  0  0  0  0
   36.3276   15.7333  -10.3413 C   0  0  0  0  0  0  0  0  0  0  0  0
   35.3409   15.6323   -9.2823 N   0  0  0  0  0  0  0  0  0  0  0  0
   34.9478   16.5747   -8.3342 C   0  0  0  0  0  0  0  0  0  0  0  0
   35.4834   17.7133   -8.2743 O   0  0  0  0  0  0  0  0  0  0  0  0
   34.8277   14.6901   -9.2306 H   0  0  0  0  0  0  0  0  0  0  0  0
   33.8886   16.4008   -7.2950 C   0  0  0  0  0  0  0  0  0  0  0  0
   32.9780   17.5227   -7.4096 N   0  0  0  0  0  0  0  0  0  0  0  0
   32.6281   18.2390   -6.2272 C   0  0  0  0  0  0  0  0  0  0  0  0
   33.0963   17.8682   -5.1353 O   0  0  0  0  0  0  0  0  0  0  0  0
   32.5719   17.8543   -8.3063 H   0  0  0  0  0  0  0  0  0  0  0  0
   31.7032   19.4206   -6.3260 C   0  0  0  0  0  0  0  0  0  0  0  0
   32.2718   20.3417   -7.2714 N   0  0  0  0  0  0  0  0  0  0  0  0
   32.6456   21.6276   -6.8376 C   0  0  0  0  0  0  0  0  0  0  0  0
   32.4645   21.9377   -5.6307 O   0  0  0  0  0  0  0  0  0  0  0  0
   32.4132   20.0737   -8.2580 H   0  0  0  0  0  0  0  0  0  0  0  0
   33.2392   22.6060   -7.7607 C   0  0  0  0  0  0  0  0  0  0  0  0
   34.6562   22.9018   -7.2893 C   0  0  0  0  0  0  0  0  0  0  0  0
   34.8181   24.3385   -6.8504 C   0  0  0  0  0  0  0  0  0  0  0  0
   35.5851   22.5474   -8.4367 C   0  0  0  0  0  0  0  0  0  0  0  0
   30.3335   18.9151   -6.7996 C   0  0  0  0  0  0  0  0  0  0  0  0
   29.8262   17.8423   -5.8587 C   0  0  0  0  0  0  0  0  0  0  0  0
   29.3493   20.0333   -6.9597 C   0  0  0  0  0  0  0  0  0  0  0  0
   33.0307   15.1716   -7.6590 C   0  0  0  0  0  0  0  0  0  0  0  0
   31.8550   15.5195   -8.5084 C   0  0  0  0  0  0  0  0  0  0  0  0
   32.7023   14.3838   -6.4428 C   0  0  0  0  0  0  0  0  0  0  0  0
   37.6987   15.4485   -9.6886 C   0  0  0  0  0  0  0  0  0  0  0  0
   38.7862   16.4097   -9.9511 C   0  0  0  0  0  0  0  0  0  0  0  0
   38.4028   17.8702   -9.9219 C   0  0  0  0  0  0  0  0  0  0  0  0
   39.8702   16.1342  -10.8948 C   0  0  0  0  0  0  0  0  0  0  0  0
   36.7043   14.8669  -12.6700 C   0  0  0  0  0  0  0  0  0  0  0  0
   38.6326   14.0300  -13.9604 N   0  0  0  0  0  0  0  0  0  0  0  0
   37.5116   13.7375  -13.1340 C   0  0  0  0  0  0  0  0  0  0  0  0
   37.2697   12.5678  -12.8529 O   0  0  0  0  0  0  0  0  0  0  0  0
   38.7791   15.0667  -14.1869 H   0  0  0  0  0  0  0  0  0  0  0  0
   39.5621   13.0414  -14.5048 C   0  0  0  0  0  0  0  0  0  0  0  0
   40.9044   13.5995  -14.3159 C   0  0  0  0  0  0  0  0  0  0  0  0
   40.9925   14.8549  -13.9575 O   0  0  0  0  0  0  0  0  0  0  0  0
   42.1550   12.9742  -14.4663 N   0  0  0  0  0  0  0  0  0  0  0  0
   42.3098   12.0001  -14.7270 H   0  0  0  0  0  0  0  0  0  0  0  0
   43.3725   13.8045  -14.2169 C   0  0  0  0  0  0  0  0  0  0  0  0
   44.2014   13.6658  -15.4027 C   0  0  0  0  0  0  0  0  0  0  0  0
   43.7643   13.9782  -16.6731 O   0  0  0  0  0  0  0  0  0  0  0  0
   45.3832   13.2388  -15.3136 O   0  0  0  0  0  0  0  0  0  0  0  0
   44.1751   13.5471  -17.5071 H   0  0  0  0  0  0  0  0  0  0  0  0
   43.9861   13.3445  -12.9164 C   0  0  0  0  0  0  0  0  0  0  0  0
   43.7430   14.3306  -11.8560 C   0  0  0  0  0  0  0  0  0  0  0  0
   43.4379   13.9447  -10.5519 C   0  0  0  0  0  0  0  0  0  0  0  0
   43.2234   14.8706   -9.5724 C   0  0  0  0  0  0  0  0  0  0  0  0
   43.2958   16.2399   -9.8132 C   0  0  0  0  0  0  0  0  0  0  0  0
   43.6018   16.6209  -11.1210 C   0  0  0  0  0  0  0  0  0  0  0  0
   43.8159   15.6754  -12.0997 C   0  0  0  0  0  0  0  0  0  0  0  0
   39.1659   12.9989  -16.0018 C   0  0  0  0  0  0  0  0  0  0  0  0
   40.3746   13.3186  -16.8508 C   0  0  0  0  0  0  0  0  0  0  0  0
   37.0498   11.7293  -16.3509 C   0  0  0  0  0  0  0  0  0  0  0  0
   38.5636   11.7116  -16.4221 C   0  0  0  0  0  0  0  0  0  0  0  0
 57 58  1  0  0  0
 58 55  1  0  0  0
 55 56  1  0  0  0
 55 38  1  0  0  0
 38 34  1  0  0  0
 34 35  1  0  0  0
 35 36  2  0  0  0
 35 33  1  0  0  0
 33  1  1  0  0  0
  1  2  1  0  0  0
  1  4  1  0  0  0
  4 29  1  0  0  0
 29 30  1  0  0  0
 30 31  1  0  0  0
 30 32  1  0  0  0
  4  5  1  0  0  0
  5  6  1  0  0  0
  6  7  2  0  0  0
  6  9  1  0  0  0
  9 10  1  0  0  0
 10 11  1  0  0  0
 11 12  2  0  0  0
 11 14  1  0  0  0
 14 15  1  0  0  0
 15 16  1  0  0  0
 16 17  2  0  0  0
 16 19  1  0  0  0
 19 20  1  0  0  0
 20 21  1  0  0  0
 20 22  1  0  0  0
 14 23  1  0  0  0
 23 24  1  0  0  0
 23 25  1  0  0  0
  9 26  1  0  0  0
 26 27  1  0  0  0
 26 28  1  0  0  0
 38 39  1  0  0  0
 39 40  2  0  0  0
 39 41  1  0  0  0
 41 43  1  0  0  0
 43 48  1  0  0  0
 48 49  1  0  0  0
 49 50  2  0  0  0
 50 51  1  0  0  0
 51 52  2  0  0  0
 52 53  1  0  0  0
 53 54  2  0  0  0
 43 44  1  0  0  0
 44 45  1  0  0  0
 44 46  2  0  0  0
 54 49  1  0  0  0
 34 37  1  0  0  0
  2  3  1  0  0  0
  5  8  1  0  0  0
 10 13  1  0  0  0
 15 18  1  0  0  0
 41 42  1  0  0  0
 45 47  1  0  0  0
M  END
> <minimizedAffinity>
-7.24802

> <CNNscore>
0.0858480632

> <CNNaffinity>
6.4010186195

> <CNN_VS>
0.5495150685

> <CNNaffinity_variance>
0.5469976664

$$$$
[H]OC(=O)[C@@]([H])(N([H])C(=O)[C@@]([H])(N([H])C(=O)C([H])([H])[C@]([H])(O[H])[C@@]([H])(N([H])C(=O)[C@@]([H])(N([H])C(=O)[C@@]([H])(N([H])C(=O)C([H])([H])C([H])(C([H])([H])[H])C([H])([H])[H])C([H])(C([H])([H])[H])C([H])([H])[H])C([H])(C([H])([H])[H])C([H])([H])[H])C([H])([H])C([H])(C([H])([H])[H])C([H])([H])[H])[C@@]([H])(C([H])([H])[H])C([H])([H])C([H])([H])[H])C([H])([H])c1c([H])c([H])c([H])c([H])c1[H]


 58 58  0  0  0  0  0  0  0  0999 V2000
   36.8350   14.7323  -10.9008 C   0  0  0  0  0  0  0  0  0  0  0  0
   35.7156   13.8249  -10.7296 O   0  0  0  0  0  0  0  0  0  0  0  0
   35.3904   13.6192  -11.6195 H   0  0  0  0  0  0  0  0  0  0  0  0
   36.5617   15.9642  -10.1570 C   0  0  0  0  0  0  0  0  0  0  0  0
   36.3360   15.6409   -8.7606 N   0  0  0  0  0  0  0  0  0  0  0  0
   35.6849   16.3709   -7.7682 C   0  0  0  0  0  0  0  0  0  0  0  0
   35.2045   17.5127   -7.9969 O   0  0  0  0  0  0  0  0  0  0  0  0
   36.7200   14.6874   -8.4494 H   0  0  0  0  0  0  0  0  0  0  0  0
   35.4617   15.9445   -6.3539 C   0  0  0  0  0  0  0  0  0  0  0  0
   34.7287   17.0044   -5.6903 N   0  0  0  0  0  0  0  0  0  0  0  0
   35.1731   17.4392   -4.4069 C   0  0  0  0  0  0  0  0  0  0  0  0
   36.1593   16.8840   -3.8890 O   0  0  0  0  0  0  0  0  0  0  0  0
   33.9030   17.4853   -6.0976 H   0  0  0  0  0  0  0  0  0  0  0  0
   34.4415   18.5532   -3.7103 C   0  0  0  0  0  0  0  0  0  0  0  0
   34.1641   19.5704   -4.6870 N   0  0  0  0  0  0  0  0  0  0  0  0
   34.9485   20.7392   -4.7028 C   0  0  0  0  0  0  0  0  0  0  0  0
   35.8698   20.8636   -3.8536 O   0  0  0  0  0  0  0  0  0  0  0  0
   33.4047   19.4549   -5.3762 H   0  0  0  0  0  0  0  0  0  0  0  0
   34.7132   21.8075   -5.6853 C   0  0  0  0  0  0  0  0  0  0  0  0
   33.2091   21.9799   -5.8453 C   0  0  0  0  0  0  0  0  0  0  0  0
   32.7734   21.8377   -7.2850 C   0  0  0  0  0  0  0  0  0  0  0  0
   32.8588   23.3426   -5.2749 C   0  0  0  0  0  0  0  0  0  0  0  0
   33.1443   17.9783   -3.1250 C   0  0  0  0  0  0  0  0  0  0  0  0
   31.9968   18.2134   -4.0850 C   0  0  0  0  0  0  0  0  0  0  0  0
   33.2869   16.5314   -2.7635 C   0  0  0  0  0  0  0  0  0  0  0  0
   34.4940   14.7434   -6.3426 C   0  0  0  0  0  0  0  0  0  0  0  0
   33.0628   15.1545   -6.4289 C   0  0  0  0  0  0  0  0  0  0  0  0
   34.8069   13.8297   -5.2134 C   0  0  0  0  0  0  0  0  0  0  0  0
   37.7875   16.9039  -10.1946 C   0  0  0  0  0  0  0  0  0  0  0  0
   39.1136   16.2956   -9.9775 C   0  0  0  0  0  0  0  0  0  0  0  0
   39.6374   16.3330   -8.5614 C   0  0  0  0  0  0  0  0  0  0  0  0
   40.1844   16.3650  -10.9725 C   0  0  0  0  0  0  0  0  0  0  0  0
   37.1199   14.8402  -12.3342 C   0  0  0  0  0  0  0  0  0  0  0  0
   39.0710   14.1100  -13.6548 N   0  0  0  0  0  0  0  0  0  0  0  0
   37.8802   13.7572  -12.9601 C   0  0  0  0  0  0  0  0  0  0  0  0
   37.5433   12.5780  -12.9192 O   0  0  0  0  0  0  0  0  0  0  0  0
   39.3005   15.1562  -13.6725 H   0  0  0  0  0  0  0  0  0  0  0  0
   39.9676   13.1704  -14.3263 C   0  0  0  0  0  0  0  0  0  0  0  0
   41.3182   13.7200  -14.1753 C   0  0  0  0  0  0  0  0  0  0  0  0
   41.4245   14.9670  -13.7930 O   0  0  0  0  0  0  0  0  0  0  0  0
   42.5599   13.0944  -14.3857 N   0  0  0  0  0  0  0  0  0  0  0  0
   42.7012   12.1258  -14.6732 H   0  0  0  0  0  0  0  0  0  0  0  0
   43.7891   13.9152  -14.1636 C   0  0  0  0  0  0  0  0  0  0  0  0
   44.5888   13.7726  -15.3688 C   0  0  0  0  0  0  0  0  0  0  0  0
   44.0870   13.9700  -16.6385 O   0  0  0  0  0  0  0  0  0  0  0  0
   45.8045   13.4501  -15.2984 O   0  0  0  0  0  0  0  0  0  0  0  0
   44.5060   13.5239  -17.4604 H   0  0  0  0  0  0  0  0  0  0  0  0
   44.4298   13.4481  -12.8788 C   0  0  0  0  0  0  0  0  0  0  0  0
   44.1222   14.3767  -11.7837 C   0  0  0  0  0  0  0  0  0  0  0  0
   43.5837   13.9342  -10.5767 C   0  0  0  0  0  0  0  0  0  0  0  0
   43.3110   14.8058   -9.5624 C   0  0  0  0  0  0  0  0  0  0  0  0
   43.5516   16.1728   -9.6702 C   0  0  0  0  0  0  0  0  0  0  0  0
   44.0911   16.6105  -10.8812 C   0  0  0  0  0  0  0  0  0  0  0  0
   44.3614   15.7195  -11.8964 C   0  0  0  0  0  0  0  0  0  0  0  0
   39.4835   13.2387  -15.7962 C   0  0  0  0  0  0  0  0  0  0  0  0
   40.6228   13.6916  -16.6800 C   0  0  0  0  0  0  0  0  0  0  0  0
   37.4002   11.9563  -16.2723 C   0  0  0  0  0  0  0  0  0  0  0  0
   38.9155   11.9643  -16.2959 C   0  0  0  0  0  0  0  0  0  0  0  0
 57 58  1  0  0  0
 58 55  1  0  0  0
 55 56  1  0  0  0
 55 38  1  0  0  0
 38 34  1  0  0  0
 34 35  1  0  0  0
 35 36  2  0  0  0
 35 33  1  0  0  0
 33  1  1  0  0  0
  1  2  1  0  0  0
  1  4  1  0  0  0
  4 29  1  0  0  0
 29 30  1  0  0  0
 30 31  1  0  0  0
 30 32  1  0  0  0
  4  5  1  0  0  0
  5  6  1  0  0  0
  6  7  2  0  0  0
  6  9  1  0  0  0
  9 10  1  0  0  0
 10 11  1  0  0  0
 11 12  2  0  0  0
 11 14  1  0  0  0
 14 15  1  0  0  0
 15 16  1  0  0  0
 16 17  2  0  0  0
 16 19  1  0  0  0
 19 20  1  0  0  0
 20 21  1  0  0  0
 20 22  1  0  0  0
 14 23  1  0  0  0
 23 24  1  0  0  0
 23 25  1  0  0  0
  9 26  1  0  0  0
 26 27  1  0  0  0
 26 28  1  0  0  0
 38 39  1  0  0  0
 39 40  2  0  0  0
 39 41  1  0  0  0
 41 43  1  0  0  0
 43 48  1  0  0  0
 48 49  1  0  0  0
 49 50  2  0  0  0
 50 51  1  0  0  0
 51 52  2  0  0  0
 52 53  1  0  0  0
 53 54  2  0  0  0
 43 44  1  0  0  0
 44 45  1  0  0  0
 44 46  2  0  0  0
 54 49  1  0  0  0
 34 37  1  0  0  0
  2  3  1  0  0  0
  5  8  1  0  0  0
 10 13  1  0  0  0
 15 18  1  0  0  0
 41 42  1  0  0  0
 45 47  1  0  0  0
M  END
> <minimizedAffinity>
-6.83500

> <CNNscore>
0.0805680975

> <CNNaffinity>
5.9396448135

> <CNN_VS>
0.4785458744

> <CNNaffinity_variance>
0.8558626175

$$$$
[H]OC([H])([H])[C@@]1(O[H])C([H])([H])[C@@]2([H])O[C@]1(C([H])([H])[H])n1c3c([H])c([H])c([H])c([H])c3c3c4c(c5c6c([H])c([H])c([H])c([H])c6n2c5c31)C(=O)N([H])C4([H])[H]


 36 43  0  0  0  0  0  0  0  0999 V2000
   35.5672   12.6524  -12.3372 C   0  0  0  0  0  0  0  0  0  0  0  0
   36.5228   13.1987  -13.3420 C   0  0  0  0  0  0  0  0  0  0  0  0
   37.7590   12.9025  -12.7039 O   0  0  0  0  0  0  0  0  0  0  0  0
   38.6875   13.8221  -13.0535 C   0  0  0  0  0  0  0  0  0  0  0  0
   37.9911   15.0999  -13.2528 C   0  0  0  0  0  0  0  0  0  0  0  0
   36.5430   14.6966  -13.4214 C   0  0  0  0  0  0  0  0  0  0  0  0
   36.1367   15.1823  -14.6552 O   0  0  0  0  0  0  0  0  0  0  0  0
   39.4591   13.3645  -14.2165 N   0  0  0  0  0  0  0  0  0  0  0  0
   40.7487   13.5035  -14.4713 C   0  0  0  0  0  0  0  0  0  0  0  0
   41.7091   14.1196  -13.7115 C   0  0  0  0  0  0  0  0  0  0  0  0
   43.0139   14.1417  -14.1885 C   0  0  0  0  0  0  0  0  0  0  0  0
   43.3320   13.5613  -15.3895 C   0  0  0  0  0  0  0  0  0  0  0  0
   42.3532   12.9313  -16.1676 C   0  0  0  0  0  0  0  0  0  0  0  0
   41.0751   12.9155  -15.6896 C   0  0  0  0  0  0  0  0  0  0  0  0
   39.8970   12.3990  -16.1794 C   0  0  0  0  0  0  0  0  0  0  0  0
   39.5575   11.7186  -17.3346 C   0  0  0  0  0  0  0  0  0  0  0  0
   40.2900   11.2483  -18.4965 C   0  0  0  0  0  0  0  0  0  0  0  0
   41.4846   11.3368  -18.7847 O   0  0  0  0  0  0  0  0  0  0  0  0
   39.3518   10.5983  -19.3598 N   0  0  0  0  0  0  0  0  0  0  0  0
   38.0253   10.6399  -18.7940 C   0  0  0  0  0  0  0  0  0  0  0  0
   38.2352   11.3563  -17.5121 C   0  0  0  0  0  0  0  0  0  0  0  0
   37.2524   11.6525  -16.5740 C   0  0  0  0  0  0  0  0  0  0  0  0
   35.9114   11.4485  -16.4858 C   0  0  0  0  0  0  0  0  0  0  0  0
   35.0458   10.8366  -17.3628 C   0  0  0  0  0  0  0  0  0  0  0  0
   33.6868   10.7733  -17.0412 C   0  0  0  0  0  0  0  0  0  0  0  0
   33.2597   11.3304  -15.8492 C   0  0  0  0  0  0  0  0  0  0  0  0
   34.1506   11.9408  -14.9834 C   0  0  0  0  0  0  0  0  0  0  0  0
   35.4906   12.0130  -15.2790 C   0  0  0  0  0  0  0  0  0  0  0  0
   36.5521   12.5558  -14.6246 N   0  0  0  0  0  0  0  0  0  0  0  0
   37.6232   12.3183  -15.4546 C   0  0  0  0  0  0  0  0  0  0  0  0
   38.9307   12.6971  -15.2429 C   0  0  0  0  0  0  0  0  0  0  0  0
   35.7714   16.0903  -14.5244 H   0  0  0  0  0  0  0  0  0  0  0  0
   39.5591   10.1403  -20.2883 H   0  0  0  0  0  0  0  0  0  0  0  0
   35.7448   15.3705  -12.3573 C   0  0  0  0  0  0  0  0  0  0  0  0
   36.2284   16.6701  -12.2022 O   0  0  0  0  0  0  0  0  0  0  0  0
   36.7090   16.7988  -11.3453 H   0  0  0  0  0  0  0  0  0  0  0  0
  2  1  1  0  0  0
  2  3  1  0  0  0
  3  4  1  0  0  0
  4  5  1  0  0  0
  5  6  1  0  0  0
  6  7  1  0  0  0
  6 34  1  0  0  0
 34 35  1  0  0  0
  4  8  1  0  0  0
  8  9  1  0  0  0
  9 10  2  0  0  0
 10 11  1  0  0  0
 11 12  2  0  0  0
 12 13  1  0  0  0
 13 14  2  0  0  0
 14 15  1  0  0  0
 15 16  2  0  0  0
 16 17  1  0  0  0
 17 18  2  0  0  0
 17 19  1  0  0  0
 19 20  1  0  0  0
 20 21  1  0  0  0
 21 22  2  0  0  0
 22 23  1  0  0  0
 23 24  2  0  0  0
 24 25  1  0  0  0
 25 26  2  0  0  0
 26 27  1  0  0  0
 27 28  2  0  0  0
 28 29  1  0  0  0
 29 30  1  0  0  0
 30 31  2  0  0  0
  6  2  1  0  0  0
 31  8  1  0  0  0
 29  2  1  0  0  0
 14  9  1  0  0  0
 31 15  1  0  0  0
 21 16  1  0  0  0
 30 22  1  0  0  0
 28 23  1  0  0  0
  7 32  1  0  0  0
 35 36  1  0  0  0
 19 33  1  0  0  0
M  END
> <minimizedAffinity>
-13.52958

> <CNNscore>
0.9700492024

> <CNNaffinity>
7.5617651939

> <CNN_VS>
7.3352842331

> <CNNaffinity_variance>
0.0875248611

$$$$
[H]OC([H])([H])[C@@]1(O[H])C([H])([H])[C@@]2([H])O[C@]1(C([H])([H])[H])n1c3c([H])c([H])c([H])c([H])c3c3c4c(c5c6c([H])c([H])c([H])c([H])c6n2c5c31)C(=O)N([H])C4([H])[H]


 36 43  0  0  0  0  0  0  0  0999 V2000
   36.9422   16.8519  -11.5709 C   0  0  0  0  0  0  0  0  0  0  0  0
   36.9761   15.4391  -12.0442 C   0  0  0  0  0  0  0  0  0  0  0  0
   35.9112   15.4615  -12.9868 O   0  0  0  0  0  0  0  0  0  0  0  0
   35.3358   14.2392  -13.0578 C   0  0  0  0  0  0  0  0  0  0  0  0
   35.4259   13.6299  -11.7243 C   0  0  0  0  0  0  0  0  0  0  0  0
   36.5000   14.4393  -11.0321 C   0  0  0  0  0  0  0  0  0  0  0  0
   37.4856   13.5433  -10.6461 O   0  0  0  0  0  0  0  0  0  0  0  0
   35.9429   13.4413  -14.1311 N   0  0  0  0  0  0  0  0  0  0  0  0
   35.3686   12.6037  -14.9773 C   0  0  0  0  0  0  0  0  0  0  0  0
   34.0459   12.2561  -15.0715 C   0  0  0  0  0  0  0  0  0  0  0  0
   33.6715   11.3450  -16.0514 C   0  0  0  0  0  0  0  0  0  0  0  0
   34.6027   10.8076  -16.9027 C   0  0  0  0  0  0  0  0  0  0  0  0
   35.9543   11.1609  -16.8088 C   0  0  0  0  0  0  0  0  0  0  0  0
   36.3109   12.0564  -15.8428 C   0  0  0  0  0  0  0  0  0  0  0  0
   37.5164   12.6111  -15.4773 C   0  0  0  0  0  0  0  0  0  0  0  0
   38.8140   12.4662  -15.9332 C   0  0  0  0  0  0  0  0  0  0  0  0
   39.4466   11.6948  -16.9880 C   0  0  0  0  0  0  0  0  0  0  0  0
   38.9678   10.9113  -17.8096 O   0  0  0  0  0  0  0  0  0  0  0  0
   40.8467   11.9883  -16.9524 N   0  0  0  0  0  0  0  0  0  0  0  0
   41.1440   12.9253  -15.8963 C   0  0  0  0  0  0  0  0  0  0  0  0
   39.8105   13.1867  -15.3014 C   0  0  0  0  0  0  0  0  0  0  0  0
   39.5468   14.0409  -14.2364 C   0  0  0  0  0  0  0  0  0  0  0  0
   40.2980   14.8380  -13.4313 C   0  0  0  0  0  0  0  0  0  0  0  0
   41.6548   15.0658  -13.4221 C   0  0  0  0  0  0  0  0  0  0  0  0
   42.1909   15.9296  -12.4626 C   0  0  0  0  0  0  0  0  0  0  0  0
   41.3353   16.5258  -11.5536 C   0  0  0  0  0  0  0  0  0  0  0  0
   39.9735   16.2803  -11.5835 C   0  0  0  0  0  0  0  0  0  0  0  0
   39.4252   15.4359  -12.5187 C   0  0  0  0  0  0  0  0  0  0  0  0
   38.1513   15.0217  -12.7540 N   0  0  0  0  0  0  0  0  0  0  0  0
   38.2638   14.1583  -13.8190 C   0  0  0  0  0  0  0  0  0  0  0  0
   37.2441   13.4557  -14.4227 C   0  0  0  0  0  0  0  0  0  0  0  0
   37.2723   13.2226   -9.7369 H   0  0  0  0  0  0  0  0  0  0  0  0
   41.5913   11.5964  -17.5902 H   0  0  0  0  0  0  0  0  0  0  0  0
   35.9064   15.0514   -9.8087 C   0  0  0  0  0  0  0  0  0  0  0  0
   35.7403   14.0489   -8.8526 O   0  0  0  0  0  0  0  0  0  0  0  0
   34.7880   13.8224   -8.6986 H   0  0  0  0  0  0  0  0  0  0  0  0
  2  1  1  0  0  0
  2  3  1  0  0  0
  3  4  1  0  0  0
  4  5  1  0  0  0
  5  6  1  0  0  0
  6  7  1  0  0  0
  6 34  1  0  0  0
 34 35  1  0  0  0
  4  8  1  0  0  0
  8  9  1  0  0  0
  9 10  2  0  0  0
 10 11  1  0  0  0
 11 12  2  0  0  0
 12 13  1  0  0  0
 13 14  2  0  0  0
 14 15  1  0  0  0
 15 16  2  0  0  0
 16 17  1  0  0  0
 17 18  2  0  0  0
 17 19  1  0  0  0
 19 20  1  0  0  0
 20 21  1  0  0  0
 21 22  2  0  0  0
 22 23  1  0  0  0
 23 24  2  0  0  0
 24 25  1  0  0  0
 25 26  2  0  0  0
 26 27  1  0  0  0
 27 28  2  0  0  0
 28 29  1  0  0  0
 29 30  1  0  0  0
 30 31  2  0  0  0
  6  2  1  0  0  0
 31  8  1  0  0  0
 29  2  1  0  0  0
 14  9  1  0  0  0
 31 15  1  0  0  0
 21 16  1  0  0  0
 30 22  1  0  0  0
 28 23  1  0  0  0
  7 32  1  0  0  0
 35 36  1  0  0  0
 19 33  1  0  0  0
M  END
> <minimizedAffinity>
-11.27583

> <CNNscore>
0.5484931469

> <CNNaffinity>
6.7071733475

> <CNN_VS>
3.6788387299

> <CNNaffinity_variance>
0.0609079190

$$$$
[H]OC([H])([H])[C@@]1(O[H])C([H])([H])[C@@]2([H])O[C@]1(C([H])([H])[H])n1c3c([H])c([H])c([H])c([H])c3c3c4c(c5c6c([H])c([H])c([H])c([H])c6n2c5c31)C(=O)N([H])C4([H])[H]


 36 43  0  0  0  0  0  0  0  0999 V2000
   35.2944   12.0957  -13.1172 C   0  0  0  0  0  0  0  0  0  0  0  0
   36.3208   13.0974  -13.5225 C   0  0  0  0  0  0  0  0  0  0  0  0
   37.0648   13.2015  -12.3148 O   0  0  0  0  0  0  0  0  0  0  0  0
   37.5926   14.4424  -12.2067 C   0  0  0  0  0  0  0  0  0  0  0  0
   36.6552   15.3784  -12.8414 C   0  0  0  0  0  0  0  0  0  0  0  0
   35.7867   14.4878  -13.7020 C   0  0  0  0  0  0  0  0  0  0  0  0
   35.9064   14.9537  -15.0027 O   0  0  0  0  0  0  0  0  0  0  0  0
   38.9526   14.4781  -12.7600 N   0  0  0  0  0  0  0  0  0  0  0  0
   40.0173   15.1267  -12.3205 C   0  0  0  0  0  0  0  0  0  0  0  0
   40.1288   15.9452  -11.2265 C   0  0  0  0  0  0  0  0  0  0  0  0
   41.3633   16.5239  -10.9587 C   0  0  0  0  0  0  0  0  0  0  0  0
   42.4425   16.2817  -11.7694 C   0  0  0  0  0  0  0  0  0  0  0  0
   42.3316   15.4462  -12.8874 C   0  0  0  0  0  0  0  0  0  0  0  0
   41.1146   14.8831  -13.1409 C   0  0  0  0  0  0  0  0  0  0  0  0
   40.6602   14.0359  -14.1260 C   0  0  0  0  0  0  0  0  0  0  0  0
   41.2506   13.4481  -15.2299 C   0  0  0  0  0  0  0  0  0  0  0  0
   42.5851   13.4571  -15.8016 C   0  0  0  0  0  0  0  0  0  0  0  0
   43.6134   14.0286  -15.4355 O   0  0  0  0  0  0  0  0  0  0  0  0
   42.5562   12.6307  -16.9695 N   0  0  0  0  0  0  0  0  0  0  0  0
   41.2351   12.0895  -17.1780 C   0  0  0  0  0  0  0  0  0  0  0  0
   40.4671   12.6436  -16.0363 C   0  0  0  0  0  0  0  0  0  0  0  0
   39.1218   12.4125  -15.7706 C   0  0  0  0  0  0  0  0  0  0  0  0
   38.1275   11.7084  -16.3733 C   0  0  0  0  0  0  0  0  0  0  0  0
   38.1463   10.9460  -17.5184 C   0  0  0  0  0  0  0  0  0  0  0  0
   36.9648   10.3311  -17.9432 C   0  0  0  0  0  0  0  0  0  0  0  0
   35.8156   10.5123  -17.1948 C   0  0  0  0  0  0  0  0  0  0  0  0
   35.8225   11.2843  -16.0461 C   0  0  0  0  0  0  0  0  0  0  0  0
   36.9727   11.8966  -15.6096 C   0  0  0  0  0  0  0  0  0  0  0  0
   37.2439   12.7008  -14.5470 N   0  0  0  0  0  0  0  0  0  0  0  0
   38.5793   13.0037  -14.6797 C   0  0  0  0  0  0  0  0  0  0  0  0
   39.3278   13.8128  -13.8533 C   0  0  0  0  0  0  0  0  0  0  0  0
   35.2023   15.6290  -15.1547 H   0  0  0  0  0  0  0  0  0  0  0  0
   43.3646   12.4204  -17.6154 H   0  0  0  0  0  0  0  0  0  0  0  0
   34.3710   14.6542  -13.2643 C   0  0  0  0  0  0  0  0  0  0  0  0
   33.5627   14.7011  -14.4006 O   0  0  0  0  0  0  0  0  0  0  0  0
   33.1840   15.6024  -14.5627 H   0  0  0  0  0  0  0  0  0  0  0  0
  2  1  1  0  0  0
  2  3  1  0  0  0
  3  4  1  0  0  0
  4  5  1  0  0  0
  5  6  1  0  0  0
  6  7  1  0  0  0
  6 34  1  0  0  0
 34 35  1  0  0  0
  4  8  1  0  0  0
  8  9  1  0  0  0
  9 10  2  0  0  0
 10 11  1  0  0  0
 11 12  2  0  0  0
 12 13  1  0  0  0
 13 14  2  0  0  0
 14 15  1  0  0  0
 15 16  2  0  0  0
 16 17  1  0  0  0
 17 18  2  0  0  0
 17 19  1  0  0  0
 19 20  1  0  0  0
 20 21  1  0  0  0
 21 22  2  0  0  0
 22 23  1  0  0  0
 23 24  2  0  0  0
 24 25  1  0  0  0
 25 26  2  0  0  0
 26 27  1  0  0  0
 27 28  2  0  0  0
 28 29  1  0  0  0
 29 30  1  0  0  0
 30 31  2  0  0  0
  6  2  1  0  0  0
 31  8  1  0  0  0
 29  2  1  0  0  0
 14  9  1  0  0  0
 31 15  1  0  0  0
 21 16  1  0  0  0
 30 22  1  0  0  0
 28 23  1  0  0  0
  7 32  1  0  0  0
 35 36  1  0  0  0
 19 33  1  0  0  0
M  END
> <minimizedAffinity>
-12.18900

> <CNNscore>
0.4270305932

> <CNNaffinity>
6.7820701599

> <CNN_VS>
2.8961515427

> <CNNaffinity_variance>
0.0852743238

$$$$
[H]OC([H])([H])[C@@]1(O[H])C([H])([H])[C@@]2([H])O[C@]1(C([H])([H])[H])n1c3c([H])c([H])c([H])c([H])c3c3c4c(c5c6c([H])c([H])c([H])c([H])c6n2c5c31)C(=O)N([H])C4([H])[H]


 36 43  0  0  0  0  0  0  0  0999 V2000
   39.2991   14.4663  -11.0883 C   0  0  0  0  0  0  0  0  0  0  0  0
   38.8683   14.4014  -12.5136 C   0  0  0  0  0  0  0  0  0  0  0  0
   39.5132   13.2004  -12.9193 O   0  0  0  0  0  0  0  0  0  0  0  0
   39.8177   13.2655  -14.2358 C   0  0  0  0  0  0  0  0  0  0  0  0
   40.1133   14.6690  -14.5524 C   0  0  0  0  0  0  0  0  0  0  0  0
   39.5057   15.4329  -13.3969 C   0  0  0  0  0  0  0  0  0  0  0  0
   38.5920   16.3208  -13.9447 O   0  0  0  0  0  0  0  0  0  0  0  0
   38.7451   12.6742  -15.0465 N   0  0  0  0  0  0  0  0  0  0  0  0
   38.8335   11.9324  -16.1370 C   0  0  0  0  0  0  0  0  0  0  0  0
   39.9591   11.5216  -16.8030 C   0  0  0  0  0  0  0  0  0  0  0  0
   39.8038   10.7382  -17.9400 C   0  0  0  0  0  0  0  0  0  0  0  0
   38.5553   10.3853  -18.3840 C   0  0  0  0  0  0  0  0  0  0  0  0
   37.4039   10.8034  -17.7058 C   0  0  0  0  0  0  0  0  0  0  0  0
   37.5680   11.5724  -16.5904 C   0  0  0  0  0  0  0  0  0  0  0  0
   36.6811   12.1427  -15.7057 C   0  0  0  0  0  0  0  0  0  0  0  0
   35.3013   12.1667  -15.6157 C   0  0  0  0  0  0  0  0  0  0  0  0
   34.2162   11.5935  -16.3915 C   0  0  0  0  0  0  0  0  0  0  0  0
   34.2343   10.8903  -17.4030 O   0  0  0  0  0  0  0  0  0  0  0  0
   32.9896   11.9886  -15.7692 N   0  0  0  0  0  0  0  0  0  0  0  0
   33.2473   12.8111  -14.6122 C   0  0  0  0  0  0  0  0  0  0  0  0
   34.7289   12.8735  -14.5745 C   0  0  0  0  0  0  0  0  0  0  0  0
   35.4920   13.5502  -13.6293 C   0  0  0  0  0  0  0  0  0  0  0  0
   35.2196   14.3198  -12.5425 C   0  0  0  0  0  0  0  0  0  0  0  0
   34.0127   14.6938  -11.9980 C   0  0  0  0  0  0  0  0  0  0  0  0
   34.0043   15.5209  -10.8710 C   0  0  0  0  0  0  0  0  0  0  0  0
   35.2136   15.9353  -10.3423 C   0  0  0  0  0  0  0  0  0  0  0  0
   36.4148   15.5453  -10.9085 C   0  0  0  0  0  0  0  0  0  0  0  0
   36.4464   14.7317  -12.0155 C   0  0  0  0  0  0  0  0  0  0  0  0
   37.4657   14.2238  -12.7589 N   0  0  0  0  0  0  0  0  0  0  0  0
   36.8401   13.5024  -13.7492 C   0  0  0  0  0  0  0  0  0  0  0  0
   37.4468   12.8095  -14.7737 C   0  0  0  0  0  0  0  0  0  0  0  0
   39.0616   17.1680  -14.1361 H   0  0  0  0  0  0  0  0  0  0  0  0
   32.0128   11.7361  -16.0804 H   0  0  0  0  0  0  0  0  0  0  0  0
   40.5894   16.2129  -12.7329 C   0  0  0  0  0  0  0  0  0  0  0  0
   40.0028   17.0917  -11.8216 O   0  0  0  0  0  0  0  0  0  0  0  0
   40.0655   18.0378  -12.1092 H   0  0  0  0  0  0  0  0  0  0  0  0
  2  1  1  0  0  0
  2  3  1  0  0  0
  3  4  1  0  0  0
  4  5  1  0  0  0
  5  6  1  0  0  0
  6  7  1  0  0  0
  6 34  1  0  0  0
 34 35  1  0  0  0
  4  8  1  0  0  0
  8  9  1  0  0  0
  9 10  2  0  0  0
 10 11  1  0  0  0
 11 12  2  0  0  0
 12 13  1  0  0  0
 13 14  2  0  0  0
 14 15  1  0  0  0
 15 16  2  0  0  0
 16 17  1  0  0  0
 17 18  2  0  0  0
 17 19  1  0  0  0
 19 20  1  0  0  0
 20 21  1  0  0  0
 21 22  2  0  0  0
 22 23  1  0  0  0
 23 24  2  0  0  0
 24 25  1  0  0  0
 25 26  2  0  0  0
 26 27  1  0  0  0
 27 28  2  0  0  0
 28 29  1  0  0  0
 29 30  1  0  0  0
 30 31  2  0  0  0
  6  2  1  0  0  0
 31  8  1  0  0  0
 29  2  1  0  0  0
 14  9  1  0  0  0
 31 15  1  0  0  0
 21 16  1  0  0  0
 30 22  1  0  0  0
 28 23  1  0  0  0
  7 32  1  0  0  0
 35 36  1  0  0  0
 19 33  1  0  0  0
M  END
> <minimizedAffinity>
-4.07083

> <CNNscore>
0.4159988463

> <CNNaffinity>
6.5018639565

> <CNN_VS>
2.7047679424

> <CNNaffinity_variance>
0.2410023957

$$$$
[H]OC([H])([H])[C@@]1(O[H])C([H])([H])[C@@]2([H])O[C@]1(C([H])([H])[H])n1c3c([H])c([H])c([H])c([H])c3c3c4c(c5c6c([H])c([H])c([H])c([H])c6n2c5c31)C(=O)N([H])C4([H])[H]


 36 43  0  0  0  0  0  0  0  0999 V2000
   41.2229   10.3093  -17.2239 C   0  0  0  0  0  0  0  0  0  0  0  0
   40.2468   11.4149  -17.0090 C   0  0  0  0  0  0  0  0  0  0  0  0
   39.1370   10.6799  -16.5079 O   0  0  0  0  0  0  0  0  0  0  0  0
   37.9844   11.3026  -16.8452 C   0  0  0  0  0  0  0  0  0  0  0  0
   38.1978   11.9541  -18.1444 C   0  0  0  0  0  0  0  0  0  0  0  0
   39.7037   12.0111  -18.2739 C   0  0  0  0  0  0  0  0  0  0  0  0
   40.0381   13.3475  -18.4336 O   0  0  0  0  0  0  0  0  0  0  0  0
   37.5529   12.2113  -15.7751 N   0  0  0  0  0  0  0  0  0  0  0  0
   36.3326   12.4630  -15.3336 C   0  0  0  0  0  0  0  0  0  0  0  0
   35.1417   11.9398  -15.7662 C   0  0  0  0  0  0  0  0  0  0  0  0
   33.9722   12.3585  -15.1437 C   0  0  0  0  0  0  0  0  0  0  0  0
   34.0096   13.2725  -14.1220 C   0  0  0  0  0  0  0  0  0  0  0  0
   35.2244   13.8086  -13.6781 C   0  0  0  0  0  0  0  0  0  0  0  0
   36.3668   13.3903  -14.2965 C   0  0  0  0  0  0  0  0  0  0  0  0
   37.6960   13.7014  -14.1210 C   0  0  0  0  0  0  0  0  0  0  0  0
   38.3748   14.5556  -13.2711 C   0  0  0  0  0  0  0  0  0  0  0  0
   37.9840   15.4600  -12.2047 C   0  0  0  0  0  0  0  0  0  0  0  0
   36.8733   15.7280  -11.7435 O   0  0  0  0  0  0  0  0  0  0  0  0
   39.1772   16.0678  -11.7000 N   0  0  0  0  0  0  0  0  0  0  0  0
   40.3348   15.5887  -12.4154 C   0  0  0  0  0  0  0  0  0  0  0  0
   39.7503   14.6319  -13.3867 C   0  0  0  0  0  0  0  0  0  0  0  0
   40.4590   13.8834  -14.3200 C   0  0  0  0  0  0  0  0  0  0  0  0
   41.7676   13.7663  -14.6685 C   0  0  0  0  0  0  0  0  0  0  0  0
   42.8814   14.3984  -14.1654 C   0  0  0  0  0  0  0  0  0  0  0  0
   44.1322   14.1123  -14.7204 C   0  0  0  0  0  0  0  0  0  0  0  0
   44.2053   13.2017  -15.7592 C   0  0  0  0  0  0  0  0  0  0  0  0
   43.0699   12.5790  -16.2479 C   0  0  0  0  0  0  0  0  0  0  0  0
   41.8307   12.8443  -15.7163 C   0  0  0  0  0  0  0  0  0  0  0  0
   40.5832   12.3913  -16.0127 N   0  0  0  0  0  0  0  0  0  0  0  0
   39.7602   13.0567  -15.1338 C   0  0  0  0  0  0  0  0  0  0  0  0
   38.3889   12.9546  -15.0492 C   0  0  0  0  0  0  0  0  0  0  0  0
   40.0407   13.5516  -19.3997 H   0  0  0  0  0  0  0  0  0  0  0  0
   39.2452   16.7722  -10.9163 H   0  0  0  0  0  0  0  0  0  0  0  0
   40.0935   11.2712  -19.5085 C   0  0  0  0  0  0  0  0  0  0  0  0
   39.2790   11.7041  -20.5554 O   0  0  0  0  0  0  0  0  0  0  0  0
   38.6298   11.0135  -20.8446 H   0  0  0  0  0  0  0  0  0  0  0  0
  2  1  1  0  0  0
  2  3  1  0  0  0
  3  4  1  0  0  0
  4  5  1  0  0  0
  5  6  1  0  0  0
  6  7  1  0  0  0
  6 34  1  0  0  0
 34 35  1  0  0  0
  4  8  1  0  0  0
  8  9  1  0  0  0
  9 10  2  0  0  0
 10 11  1  0  0  0
 11 12  2  0  0  0
 12 13  1  0  0  0
 13 14  2  0  0  0
 14 15  1  0  0  0
 15 16  2  0  0  0
 16 17  1  0  0  0
 17 18  2  0  0  0
 17 19  1  0  0  0
 19 20  1  0  0  0
 20 21  1  0  0  0
 21 22  2  0  0  0
 22 23  1  0  0  0
 23 24  2  0  0  0
 24 25  1  0  0  0
 25 26  2  0  0  0
 26 27  1  0  0  0
 27 28  2  0  0  0
 28 29  1  0  0  0
 29 30  1  0  0  0
 30 31  2  0  0  0
  6  2  1  0  0  0
 31  8  1  0  0  0
 29  2  1  0  0  0
 14  9  1  0  0  0
 31 15  1  0  0  0
 21 16  1  0  0  0
 30 22  1  0  0  0
 28 23  1  0  0  0
  7 32  1  0  0  0
 35 36  1  0  0  0
 19 33  1  0  0  0
M  END
> <minimizedAffinity>
-7.74014

> <CNNscore>
0.2284593731

> <CNNaffinity>
6.4101853371

> <CNN_VS>
1.4644669294

> <CNNaffinity_variance>
0.0629564151

$$$$
[H]OC([H])([H])[C@@]1(O[H])C([H])([H])[C@@]2([H])O[C@]1(C([H])([H])[H])n1c3c([H])c([H])c([H])c([H])c3c3c4c(c5c6c([H])c([H])c([H])c([H])c6n2c5c31)C(=O)N([H])C4([H])[H]


 36 43  0  0  0  0  0  0  0  0999 V2000
   34.6846   11.4798  -13.9859 C   0  0  0  0  0  0  0  0  0  0  0  0
   35.4734   12.7400  -13.8813 C   0  0  0  0  0  0  0  0  0  0  0  0
   35.6341   12.8226  -12.4705 O   0  0  0  0  0  0  0  0  0  0  0  0
   35.7200   14.1191  -12.0938 C   0  0  0  0  0  0  0  0  0  0  0  0
   34.8847   14.9030  -13.0132 C   0  0  0  0  0  0  0  0  0  0  0  0
   34.6940   13.9821  -14.1980 C   0  0  0  0  0  0  0  0  0  0  0  0
   35.1755   14.6590  -15.3085 O   0  0  0  0  0  0  0  0  0  0  0  0
   37.1228   14.5499  -12.0326 N   0  0  0  0  0  0  0  0  0  0  0  0
   37.7148   15.3484  -11.1612 C   0  0  0  0  0  0  0  0  0  0  0  0
   37.1678   15.9907  -10.0808 C   0  0  0  0  0  0  0  0  0  0  0  0
   37.9949   16.7875   -9.2986 C   0  0  0  0  0  0  0  0  0  0  0  0
   39.3252   16.9271   -9.6010 C   0  0  0  0  0  0  0  0  0  0  0  0
   39.8866   16.2723  -10.7038 C   0  0  0  0  0  0  0  0  0  0  0  0
   39.0652   15.4923  -11.4650 C   0  0  0  0  0  0  0  0  0  0  0  0
   39.2758   14.7271  -12.5896 C   0  0  0  0  0  0  0  0  0  0  0  0
   40.3826   14.4684  -13.3775 C   0  0  0  0  0  0  0  0  0  0  0  0
   41.7771   14.8707  -13.3449 C   0  0  0  0  0  0  0  0  0  0  0  0
   42.3865   15.5981  -12.5590 O   0  0  0  0  0  0  0  0  0  0  0  0
   42.4278   14.2511  -14.4587 N   0  0  0  0  0  0  0  0  0  0  0  0
   41.4912   13.4615  -15.2209 C   0  0  0  0  0  0  0  0  0  0  0  0
   40.2225   13.6413  -14.4737 C   0  0  0  0  0  0  0  0  0  0  0  0
   38.9971   13.0706  -14.7997 C   0  0  0  0  0  0  0  0  0  0  0  0
   38.5451   12.2602  -15.7931 C   0  0  0  0  0  0  0  0  0  0  0  0
   39.2115   11.7095  -16.8634 C   0  0  0  0  0  0  0  0  0  0  0  0
   38.5017   10.9145  -17.7681 C   0  0  0  0  0  0  0  0  0  0  0  0
   37.1504   10.7099  -17.5543 C   0  0  0  0  0  0  0  0  0  0  0  0
   36.5026   11.2752  -16.4696 C   0  0  0  0  0  0  0  0  0  0  0  0
   37.1810   12.0587  -15.5674 C   0  0  0  0  0  0  0  0  0  0  0  0
   36.7908   12.7287  -14.4501 N   0  0  0  0  0  0  0  0  0  0  0  0
   37.9366   13.3456  -14.0037 C   0  0  0  0  0  0  0  0  0  0  0  0
   38.0568   14.1660  -12.9036 C   0  0  0  0  0  0  0  0  0  0  0  0
   34.4301   15.1709  -15.7051 H   0  0  0  0  0  0  0  0  0  0  0  0
   43.4470   14.3339  -14.7217 H   0  0  0  0  0  0  0  0  0  0  0  0
   33.2319   13.7506  -14.3775 C   0  0  0  0  0  0  0  0  0  0  0  0
   32.5972   13.9849  -13.1573 O   0  0  0  0  0  0  0  0  0  0  0  0
   32.2566   13.1539  -12.7385 H   0  0  0  0  0  0  0  0  0  0  0  0
  2  1  1  0  0  0
  2  3  1  0  0  0
  3  4  1  0  0  0
  4  5  1  0  0  0
  5  6  1  0  0  0
  6  7  1  0  0  0
  6 34  1  0  0  0
 34 35  1  0  0  0
  4  8  1  0  0  0
  8  9  1  0  0  0
  9 10  2  0  0  0
 10 11  1  0  0  0
 11 12  2  0  0  0
 12 13  1  0  0  0
 13 14  2  0  0  0
 14 15  1  0  0  0
 15 16  2  0  0  0
 16 17  1  0  0  0
 17 18  2  0  0  0
 17 19  1  0  0  0
 19 20  1  0  0  0
 20 21  1  0  0  0
 21 22  2  0  0  0
 22 23  1  0  0  0
 23 24  2  0  0  0
 24 25  1  0  0  0
 25 26  2  0  0  0
 26 27  1  0  0  0
 27 28  2  0  0  0
 28 29  1  0  0  0
 29 30  1  0  0  0
 30 31  2  0  0  0
  6  2  1  0  0  0
 31  8  1  0  0  0
 29  2  1  0  0  0
 14  9  1  0  0  0
 31 15  1  0  0  0
 21 16  1  0  0  0
 30 22  1  0  0  0
 28 23  1  0  0  0
  7 32  1  0  0  0
 35 36  1  0  0  0
 19 33  1  0  0  0
M  END
> <minimizedAffinity>
-10.87837

> <CNNscore>
0.2167924047

> <CNNaffinity>
6.2299375534

> <CNN_VS>
1.3506031036

> <CNNaffinity_variance>
0.2321807891

$$$$
[H]OC([H])([H])[C@@]1(O[H])C([H])([H])[C@@]2([H])O[C@]1(C([H])([H])[H])n1c3c([H])c([H])c([H])c([H])c3c3c4c(c5c6c([H])c([H])c([H])c([H])c6n2c5c31)C(=O)N([H])C4([H])[H]


 36 43  0  0  0  0  0  0  0  0999 V2000
   43.4987   16.9934  -12.8875 C   0  0  0  0  0  0  0  0  0  0  0  0
   44.4553   16.4724  -11.8702 C   0  0  0  0  0  0  0  0  0  0  0  0
   43.6615   16.5832  -10.6951 O   0  0  0  0  0  0  0  0  0  0  0  0
   44.4575   16.7974   -9.6225 C   0  0  0  0  0  0  0  0  0  0  0  0
   45.6130   17.5811  -10.0788 C   0  0  0  0  0  0  0  0  0  0  0  0
   45.6053   17.3908  -11.5794 C   0  0  0  0  0  0  0  0  0  0  0  0
   46.8356   16.8469  -11.9169 O   0  0  0  0  0  0  0  0  0  0  0  0
   44.8052   15.5272   -8.9722 N   0  0  0  0  0  0  0  0  0  0  0  0
   44.9211   15.2515   -7.6846 C   0  0  0  0  0  0  0  0  0  0  0  0
   44.7491   16.0877   -6.6121 C   0  0  0  0  0  0  0  0  0  0  0  0
   44.9258   15.5682   -5.3355 C   0  0  0  0  0  0  0  0  0  0  0  0
   45.2638   14.2515   -5.1543 C   0  0  0  0  0  0  0  0  0  0  0  0
   45.4401   13.3952   -6.2479 C   0  0  0  0  0  0  0  0  0  0  0  0
   45.2641   13.9159   -7.4970 C   0  0  0  0  0  0  0  0  0  0  0  0
   45.3552   13.3756   -8.7596 C   0  0  0  0  0  0  0  0  0  0  0  0
   45.6690   12.1180   -9.2421 C   0  0  0  0  0  0  0  0  0  0  0  0
   46.0114   10.8456   -8.6325 C   0  0  0  0  0  0  0  0  0  0  0  0
   46.1241   10.5252   -7.4482 O   0  0  0  0  0  0  0  0  0  0  0  0
   46.2251    9.9072   -9.6916 N   0  0  0  0  0  0  0  0  0  0  0  0
   46.0383   10.5375  -10.9760 C   0  0  0  0  0  0  0  0  0  0  0  0
   45.6820   11.9306  -10.6117 C   0  0  0  0  0  0  0  0  0  0  0  0
   45.3918   12.9571  -11.5038 C   0  0  0  0  0  0  0  0  0  0  0  0
   45.3457   13.0734  -12.8573 C   0  0  0  0  0  0  0  0  0  0  0  0
   45.5877   12.1398  -13.8384 C   0  0  0  0  0  0  0  0  0  0  0  0
   45.4912   12.5242  -15.1791 C   0  0  0  0  0  0  0  0  0  0  0  0
   45.1553   13.8338  -15.4719 C   0  0  0  0  0  0  0  0  0  0  0  0
   44.9167   14.7546  -14.4664 C   0  0  0  0  0  0  0  0  0  0  0  0
   45.0046   14.3981  -13.1423 C   0  0  0  0  0  0  0  0  0  0  0  0
   44.8369   15.0940  -11.9860 N   0  0  0  0  0  0  0  0  0  0  0  0
   45.0874   14.1742  -10.9941 C   0  0  0  0  0  0  0  0  0  0  0  0
   45.0654   14.3998   -9.6352 C   0  0  0  0  0  0  0  0  0  0  0  0
   47.4589   17.5885  -12.1080 H   0  0  0  0  0  0  0  0  0  0  0  0
   46.4842    8.8886   -9.5911 H   0  0  0  0  0  0  0  0  0  0  0  0
   45.4856   18.7327  -12.2186 C   0  0  0  0  0  0  0  0  0  0  0  0
   46.7319   19.3577  -12.1642 O   0  0  0  0  0  0  0  0  0  0  0  0
   46.7496   20.1194  -11.5307 H   0  0  0  0  0  0  0  0  0  0  0  0
  2  1  1  0  0  0
  2  3  1  0  0  0
  3  4  1  0  0  0
  4  5  1  0  0  0
  5  6  1  0  0  0
  6  7  1  0  0  0
  6 34  1  0  0  0
 34 35  1  0  0  0
  4  8  1  0  0  0
  8  9  1  0  0  0
  9 10  2  0  0  0
 10 11  1  0  0  0
 11 12  2  0  0  0
 12 13  1  0  0  0
 13 14  2  0  0  0
 14 15  1  0  0  0
 15 16  2  0  0  0
 16 17  1  0  0  0
 17 18  2  0  0  0
 17 19  1  0  0  0
 19 20  1  0  0  0
 20 21  1  0  0  0
 21 22  2  0  0  0
 22 23  1  0  0  0
 23 24  2  0  0  0
 24 25  1  0  0  0
 25 26  2  0  0  0
 26 27  1  0  0  0
 27 28  2  0  0  0
 28 29  1  0  0  0
 29 30  1  0  0  0
 30 31  2  0  0  0
  6  2  1  0  0  0
 31  8  1  0  0  0
 29  2  1  0  0  0
 14  9  1  0  0  0
 31 15  1  0  0  0
 21 16  1  0  0  0
 30 22  1  0  0  0
 28 23  1  0  0  0
  7 32  1  0  0  0
 35 36  1  0  0  0
 19 33  1  0  0  0
M  END
> <minimizedAffinity>
-5.76255

> <CNNscore>
0.1786021143

> <CNNaffinity>
4.8461127281

> <CNN_VS>
0.8655259609

> <CNNaffinity_variance>
0.2549131215

$$$$
[H]OC([H])([H])[C@@]1(O[H])C([H])([H])[C@@]2([H])O[C@]1(C([H])([H])[H])n1c3c([H])c([H])c([H])c([H])c3c3c4c(c5c6c([H])c([H])c([H])c([H])c6n2c5c31)C(=O)N([H])C4([H])[H]


 36 43  0  0  0  0  0  0  0  0999 V2000
   45.5979   14.1559  -11.2664 C   0  0  0  0  0  0  0  0  0  0  0  0
   44.9063   14.3459   -9.9600 C   0  0  0  0  0  0  0  0  0  0  0  0
   43.5499   14.2267  -10.3710 O   0  0  0  0  0  0  0  0  0  0  0  0
   42.7593   14.9723   -9.5654 C   0  0  0  0  0  0  0  0  0  0  0  0
   43.5366   16.1460   -9.1464 C   0  0  0  0  0  0  0  0  0  0  0  0
   44.9682   15.7475   -9.4288 C   0  0  0  0  0  0  0  0  0  0  0  0
   45.6520   15.8446   -8.2262 O   0  0  0  0  0  0  0  0  0  0  0  0
   42.2382   14.1628   -8.4561 N   0  0  0  0  0  0  0  0  0  0  0  0
   41.0412   14.1848   -7.8955 C   0  0  0  0  0  0  0  0  0  0  0  0
   39.9668   14.9783   -8.2038 C   0  0  0  0  0  0  0  0  0  0  0  0
   38.7980   14.8210   -7.4691 C   0  0  0  0  0  0  0  0  0  0  0  0
   38.7223   13.8945   -6.4609 C   0  0  0  0  0  0  0  0  0  0  0  0
   39.8180   13.0826   -6.1438 C   0  0  0  0  0  0  0  0  0  0  0  0
   40.9608   13.2456   -6.8717 C   0  0  0  0  0  0  0  0  0  0  0  0
   42.1936   12.6347   -6.8313 C   0  0  0  0  0  0  0  0  0  0  0  0
   42.7450   11.6437   -6.0398 C   0  0  0  0  0  0  0  0  0  0  0  0
   42.2613   10.8235   -4.9438 C   0  0  0  0  0  0  0  0  0  0  0  0
   41.1621   10.7897   -4.3884 O   0  0  0  0  0  0  0  0  0  0  0  0
   43.3350    9.9656   -4.5448 N   0  0  0  0  0  0  0  0  0  0  0  0
   44.5084   10.2112   -5.3474 C   0  0  0  0  0  0  0  0  0  0  0  0
   44.0576   11.2783   -6.2740 C   0  0  0  0  0  0  0  0  0  0  0  0
   44.8263   11.8710   -7.2697 C   0  0  0  0  0  0  0  0  0  0  0  0
   46.1065   11.7377   -7.7067 C   0  0  0  0  0  0  0  0  0  0  0  0
   47.1140   10.9100   -7.2676 C   0  0  0  0  0  0  0  0  0  0  0  0
   48.3675   10.9823   -7.8824 C   0  0  0  0  0  0  0  0  0  0  0  0
   48.5505   11.8866   -8.9131 C   0  0  0  0  0  0  0  0  0  0  0  0
   47.5208   12.7087   -9.3368 C   0  0  0  0  0  0  0  0  0  0  0  0
   46.2806   12.6534   -8.7476 C   0  0  0  0  0  0  0  0  0  0  0  0
   45.1272   13.3425   -8.9582 N   0  0  0  0  0  0  0  0  0  0  0  0
   44.2515   12.8364   -8.0257 C   0  0  0  0  0  0  0  0  0  0  0  0
   42.9466   13.2282   -7.8214 C   0  0  0  0  0  0  0  0  0  0  0  0
   46.0191   16.7583   -8.1528 H   0  0  0  0  0  0  0  0  0  0  0  0
   43.3136    9.2415   -3.7767 H   0  0  0  0  0  0  0  0  0  0  0  0
   45.5459   16.7335  -10.3868 C   0  0  0  0  0  0  0  0  0  0  0  0
   45.2978   18.0169   -9.8989 O   0  0  0  0  0  0  0  0  0  0  0  0
   44.6281   18.5079  -10.4395 H   0  0  0  0  0  0  0  0  0  0  0  0
  2  1  1  0  0  0
  2  3  1  0  0  0
  3  4  1  0  0  0
  4  5  1  0  0  0
  5  6  1  0  0  0
  6  7  1  0  0  0
  6 34  1  0  0  0
 34 35  1  0  0  0
  4  8  1  0  0  0
  8  9  1  0  0  0
  9 10  2  0  0  0
 10 11  1  0  0  0
 11 12  2  0  0  0
 12 13  1  0  0  0
 13 14  2  0  0  0
 14 15  1  0  0  0
 15 16  2  0  0  0
 16 17  1  0  0  0
 17 18  2  0  0  0
 17 19  1  0  0  0
 19 20  1  0  0  0
 20 21  1  0  0  0
 21 22  2  0  0  0
 22 23  1  0  0  0
 23 24  2  0  0  0
 24 25  1  0  0  0
 25 26  2  0  0  0
 26 27  1  0  0  0
 27 28  2  0  0  0
 28 29  1  0  0  0
 29 30  1  0  0  0
 30 31  2  0  0  0
  6  2  1  0  0  0
 31  8  1  0  0  0
 29  2  1  0  0  0
 14  9  1  0  0  0
 31 15  1  0  0  0
 21 16  1  0  0  0
 30 22  1  0  0  0
 28 23  1  0  0  0
  7 32  1  0  0  0
 35 36  1  0  0  0
 19 33  1  0  0  0
M  END
> <minimizedAffinity>
-6.75336

> <CNNscore>
0.1514871866

> <CNNaffinity>
4.6788630486

> <CNN_VS>
0.7087877989

> <CNNaffinity_variance>
0.3488199413

$$$$
[H]OC([H])([H])[C@@]1(O[H])C([H])([H])[C@@]2([H])O[C@]1(C([H])([H])[H])n1c3c([H])c([H])c([H])c([H])c3c3c4c(c5c6c([H])c([H])c([H])c([H])c6n2c5c31)C(=O)N([H])C4([H])[H]


 36 43  0  0  0  0  0  0  0  0999 V2000
   39.0417   14.7119   -8.4425 C   0  0  0  0  0  0  0  0  0  0  0  0
   37.9341   15.7088   -8.4645 C   0  0  0  0  0  0  0  0  0  0  0  0
   36.8174   14.8440   -8.6328 O   0  0  0  0  0  0  0  0  0  0  0  0
   35.8374   15.4866   -9.3086 C   0  0  0  0  0  0  0  0  0  0  0  0
   36.4825   16.4162  -10.2452 C   0  0  0  0  0  0  0  0  0  0  0  0
   37.8888   16.5514   -9.7048 C   0  0  0  0  0  0  0  0  0  0  0  0
   38.0899   17.9005   -9.4545 O   0  0  0  0  0  0  0  0  0  0  0  0
   34.8948   16.1208   -8.3778 N   0  0  0  0  0  0  0  0  0  0  0  0
   33.5800   16.2272   -8.4626 C   0  0  0  0  0  0  0  0  0  0  0  0
   32.7473   15.7726   -9.4521 C   0  0  0  0  0  0  0  0  0  0  0  0
   31.3831   16.0034   -9.3241 C   0  0  0  0  0  0  0  0  0  0  0  0
   30.8833   16.6694   -8.2345 C   0  0  0  0  0  0  0  0  0  0  0  0
   31.7314   17.1347   -7.2223 C   0  0  0  0  0  0  0  0  0  0  0  0
   33.0693   16.9026   -7.3583 C   0  0  0  0  0  0  0  0  0  0  0  0
   34.1590   17.2119   -6.5764 C   0  0  0  0  0  0  0  0  0  0  0  0
   34.3165   17.8794   -5.3754 C   0  0  0  0  0  0  0  0  0  0  0  0
   33.4128   18.5116   -4.4312 C   0  0  0  0  0  0  0  0  0  0  0  0
   32.1869   18.6332   -4.4487 O   0  0  0  0  0  0  0  0  0  0  0  0
   34.2075   19.0327   -3.3612 N   0  0  0  0  0  0  0  0  0  0  0  0
   35.6066   18.7632   -3.5877 C   0  0  0  0  0  0  0  0  0  0  0  0
   35.5969   18.0258   -4.8748 C   0  0  0  0  0  0  0  0  0  0  0  0
   36.7136   17.5268   -5.5363 C   0  0  0  0  0  0  0  0  0  0  0  0
   38.0533   17.5341   -5.3063 C   0  0  0  0  0  0  0  0  0  0  0  0
   38.7738   18.0765   -4.2672 C   0  0  0  0  0  0  0  0  0  0  0  0
   40.1671   17.9629   -4.2761 C   0  0  0  0  0  0  0  0  0  0  0  0
   40.7733   17.3076   -5.3329 C   0  0  0  0  0  0  0  0  0  0  0  0
   40.0261   16.7705   -6.3668 C   0  0  0  0  0  0  0  0  0  0  0  0
   38.6556   16.8694   -6.3776 C   0  0  0  0  0  0  0  0  0  0  0  0
   37.7070   16.4514   -7.2578 N   0  0  0  0  0  0  0  0  0  0  0  0
   36.5197   16.8775   -6.7088 C   0  0  0  0  0  0  0  0  0  0  0  0
   35.2592   16.7129   -7.2398 C   0  0  0  0  0  0  0  0  0  0  0  0
   38.4636   18.3134  -10.2699 H   0  0  0  0  0  0  0  0  0  0  0  0
   33.8592   19.5480   -2.5080 H   0  0  0  0  0  0  0  0  0  0  0  0
   38.8401   16.1166  -10.7676 C   0  0  0  0  0  0  0  0  0  0  0  0
   38.1194   15.9101  -11.9443 O   0  0  0  0  0  0  0  0  0  0  0  0
   38.0546   14.9521  -12.1891 H   0  0  0  0  0  0  0  0  0  0  0  0
  2  1  1  0  0  0
  2  3  1  0  0  0
  3  4  1  0  0  0
  4  5  1  0  0  0
  5  6  1  0  0  0
  6  7  1  0  0  0
  6 34  1  0  0  0
 34 35  1  0  0  0
  4  8  1  0  0  0
  8  9  1  0  0  0
  9 10  2  0  0  0
 10 11  1  0  0  0
 11 12  2  0  0  0
 12 13  1  0  0  0
 13 14  2  0  0  0
 14 15  1  0  0  0
 15 16  2  0  0  0
 16 17  1  0  0  0
 17 18  2  0  0  0
 17 19  1  0  0  0
 19 20  1  0  0  0
 20 21  1  0  0  0
 21 22  2  0  0  0
 22 23  1  0  0  0
 23 24  2  0  0  0
 24 25  1  0  0  0
 25 26  2  0  0  0
 26 27  1  0  0  0
 27 28  2  0  0  0
 28 29  1  0  0  0
 29 30  1  0  0  0
 30 31  2  0  0  0
  6  2  1  0  0  0
 31  8  1  0  0  0
 29  2  1  0  0  0
 14  9  1  0  0  0
 31 15  1  0  0  0
 21 16  1  0  0  0
 30 22  1  0  0  0
 28 23  1  0  0  0
  7 32  1  0  0  0
 35 36  1  0  0  0
 19 33  1  0  0  0
M  END
> <minimizedAffinity>
-6.81196

> <CNNscore>
0.1480229497

> <CNNaffinity>
5.0470795631

> <CNN_VS>
0.7470836043

> <CNNaffinity_variance>
0.3049581945

$$$$
[H]c1c([H])c([H])c(C([H])([H])[C@@]([H])(C(=O)N([H])[C@]([H])(C(=O)N([H])[C@]([H])(C(=O)N([H])[H])C([H])([H])c2c([H])n([H])c3c([H])c([H])c([H])c([H])c23)C([H])([H])C([H])(C([H])([H])[H])C([H])([H])[H])N([H])C(=O)C([H])([H])N([H])C(=O)[C@@]2([H])N(C(=O)[C@@]([H])(N([H])[H])C([H])([H])c3c([H])n([H])c4c([H])c([H])c([H])c([H])c34)C([H])([H])C([H])([H])C2([H])[H])c([H])c1[H]


 69 74  0  0  0  0  0  0  0  0999 V2000
   38.4769   15.2883  -12.0503 C   0  0  0  0  0  0  0  0  0  0  0  0
   37.3986   16.1727  -11.6197 N   0  0  0  0  0  0  0  0  0  0  0  0
   36.7602   15.9950  -10.3896 C   0  0  0  0  0  0  0  0  0  0  0  0
   37.2415   14.9698   -9.7123 O   0  0  0  0  0  0  0  0  0  0  0  0
   37.1194   16.9372  -12.2443 H   0  0  0  0  0  0  0  0  0  0  0  0
   35.6939   16.6743   -9.7066 C   0  0  0  0  0  0  0  0  0  0  0  0
   34.7642   15.9902   -8.8946 N   0  0  0  0  0  0  0  0  0  0  0  0
   34.3215   16.4886   -7.6501 C   0  0  0  0  0  0  0  0  0  0  0  0
   34.7608   17.5938   -7.2558 O   0  0  0  0  0  0  0  0  0  0  0  0
   34.3626   15.0783   -9.1895 H   0  0  0  0  0  0  0  0  0  0  0  0
   33.3704   15.7665   -6.7730 C   0  0  0  0  0  0  0  0  0  0  0  0
   32.0885   16.5033   -6.5078 C   0  0  0  0  0  0  0  0  0  0  0  0
   32.2352   16.9972   -5.1054 C   0  0  0  0  0  0  0  0  0  0  0  0
   33.3154   16.1357   -4.4761 C   0  0  0  0  0  0  0  0  0  0  0  0
   33.9200   15.3636   -5.5150 N   0  0  0  0  0  0  0  0  0  0  0  0
   34.9071   14.3672   -5.3685 C   0  0  0  0  0  0  0  0  0  0  0  0
   35.3534   13.8096   -6.4592 O   0  0  0  0  0  0  0  0  0  0  0  0
   35.4988   13.8758   -4.1316 C   0  0  0  0  0  0  0  0  0  0  0  0
   35.6277   12.4048   -4.1329 N   0  0  0  0  0  0  0  0  0  0  0  0
   36.6271   12.1022   -4.2013 H   0  0  0  0  0  0  0  0  0  0  0  0
   35.2980   12.0375   -3.1917 H   0  0  0  0  0  0  0  0  0  0  0  0
   36.8861   14.3855   -3.8845 C   0  0  0  0  0  0  0  0  0  0  0  0
   37.0580   15.8243   -3.9665 C   0  0  0  0  0  0  0  0  0  0  0  0
   36.7662   16.7034   -2.9226 C   0  0  0  0  0  0  0  0  0  0  0  0
   36.9915   17.9612   -3.3104 N   0  0  0  0  0  0  0  0  0  0  0  0
   37.4237   17.8989   -4.5831 C   0  0  0  0  0  0  0  0  0  0  0  0
   37.8183   18.9189   -5.4176 C   0  0  0  0  0  0  0  0  0  0  0  0
   38.2644   18.6313   -6.6793 C   0  0  0  0  0  0  0  0  0  0  0  0
   38.3317   17.3347   -7.1475 C   0  0  0  0  0  0  0  0  0  0  0  0
   37.9355   16.3181   -6.3114 C   0  0  0  0  0  0  0  0  0  0  0  0
   37.4739   16.5823   -5.0143 C   0  0  0  0  0  0  0  0  0  0  0  0
   36.8565   18.8021   -2.7307 H   0  0  0  0  0  0  0  0  0  0  0  0
   40.6842   15.6536  -10.8982 N   0  0  0  0  0  0  0  0  0  0  0  0
   39.8294   15.8510  -12.0275 C   0  0  0  0  0  0  0  0  0  0  0  0
   40.3228   16.5283  -12.9677 O   0  0  0  0  0  0  0  0  0  0  0  0
   40.2484   15.0894  -10.0827 H   0  0  0  0  0  0  0  0  0  0  0  0
   42.0104   16.0719  -10.6764 C   0  0  0  0  0  0  0  0  0  0  0  0
   42.8607   15.2861  -11.6529 C   0  0  0  0  0  0  0  0  0  0  0  0
   43.5821   15.9900  -12.4362 O   0  0  0  0  0  0  0  0  0  0  0  0
   42.9121   13.9072  -11.7707 N   0  0  0  0  0  0  0  0  0  0  0  0
   42.3937   13.2583  -11.1837 H   0  0  0  0  0  0  0  0  0  0  0  0
   43.7749   13.3152  -12.8145 C   0  0  0  0  0  0  0  0  0  0  0  0
   45.1221   13.2669  -12.2823 C   0  0  0  0  0  0  0  0  0  0  0  0
   46.0606   14.3285  -12.3786 N   0  0  0  0  0  0  0  0  0  0  0  0
   45.5352   12.2281  -11.6936 O   0  0  0  0  0  0  0  0  0  0  0  0
   46.7892   14.4462  -11.6406 H   0  0  0  0  0  0  0  0  0  0  0  0
   46.0037   14.9789  -13.1961 H   0  0  0  0  0  0  0  0  0  0  0  0
   43.5900   14.0572  -14.0956 C   0  0  0  0  0  0  0  0  0  0  0  0
   43.1610   13.2519  -15.2538 C   0  0  0  0  0  0  0  0  0  0  0  0
   44.0364   12.6670  -16.1933 C   0  0  0  0  0  0  0  0  0  0  0  0
   43.3211   12.0926  -17.1470 N   0  0  0  0  0  0  0  0  0  0  0  0
   41.9969   12.2544  -16.9070 C   0  0  0  0  0  0  0  0  0  0  0  0
   40.9040   11.8016  -17.6326 C   0  0  0  0  0  0  0  0  0  0  0  0
   39.6658   12.0871  -17.1421 C   0  0  0  0  0  0  0  0  0  0  0  0
   39.5282   12.8024  -15.9644 C   0  0  0  0  0  0  0  0  0  0  0  0
   40.6180   13.2475  -15.2538 C   0  0  0  0  0  0  0  0  0  0  0  0
   41.8955   12.9701  -15.7350 C   0  0  0  0  0  0  0  0  0  0  0  0
   43.7355   11.5818  -17.9766 H   0  0  0  0  0  0  0  0  0  0  0  0
   42.5828   15.8889   -9.3022 C   0  0  0  0  0  0  0  0  0  0  0  0
   44.7181   14.7205   -8.5404 C   0  0  0  0  0  0  0  0  0  0  0  0
   44.0392   15.9095   -9.1082 C   0  0  0  0  0  0  0  0  0  0  0  0
   44.5116   17.1345   -8.3177 C   0  0  0  0  0  0  0  0  0  0  0  0
   38.0643   14.9558  -13.5039 C   0  0  0  0  0  0  0  0  0  0  0  0
   36.9131   14.0843  -13.6189 C   0  0  0  0  0  0  0  0  0  0  0  0
   35.8747   14.2664  -14.5082 C   0  0  0  0  0  0  0  0  0  0  0  0
   34.8148   13.3679  -14.5667 C   0  0  0  0  0  0  0  0  0  0  0  0
   34.7736   12.2829  -13.7461 C   0  0  0  0  0  0  0  0  0  0  0  0
   35.7897   12.0703  -12.8480 C   0  0  0  0  0  0  0  0  0  0  0  0
   36.8482   12.9630  -12.7855 C   0  0  0  0  0  0  0  0  0  0  0  0
 60 61  1  0  0  0
 61 62  1  0  0  0
 61 59  1  0  0  0
 59 37  1  0  0  0
 37 33  1  0  0  0
 33 34  1  0  0  0
 34 35  2  0  0  0
 34  1  1  0  0  0
  1 63  1  0  0  0
 63 64  1  0  0  0
 64 65  2  0  0  0
 65 66  1  0  0  0
 66 67  2  0  0  0
 67 68  1  0  0  0
 68 69  2  0  0  0
  1  2  1  0  0  0
  2  3  1  0  0  0
  3  4  2  0  0  0
  3  6  1  0  0  0
  6  7  1  0  0  0
  7  8  1  0  0  0
  8  9  2  0  0  0
  8 11  1  0  0  0
 11 12  1  0  0  0
 12 13  1  0  0  0
 13 14  1  0  0  0
 14 15  1  0  0  0
 15 16  1  0  0  0
 16 17  2  0  0  0
 16 18  1  0  0  0
 18 19  1  0  0  0
 18 22  1  0  0  0
 22 23  1  0  0  0
 23 24  2  0  0  0
 24 25  1  0  0  0
 25 26  1  0  0  0
 26 27  2  0  0  0
 27 28  1  0  0  0
 28 29  2  0  0  0
 29 30  1  0  0  0
 30 31  2  0  0  0
 37 38  1  0  0  0
 38 39  2  0  0  0
 38 40  1  0  0  0
 40 42  1  0  0  0
 42 48  1  0  0  0
 48 49  1  0  0  0
 49 50  2  0  0  0
 50 51  1  0  0  0
 51 52  1  0  0  0
 52 53  2  0  0  0
 53 54  1  0  0  0
 54 55  2  0  0  0
 55 56  1  0  0  0
 56 57  2  0  0  0
 42 43  1  0  0  0
 43 44  1  0  0  0
 43 45  2  0  0  0
 69 64  1  0  0  0
 15 11  1  0  0  0
 31 23  1  0  0  0
 57 49  1  0  0  0
 31 26  1  0  0  0
 57 52  1  0  0  0
 33 36  1  0  0  0
  2  5  1  0  0  0
  7 10  1  0  0  0
 19 20  1  0  0  0
 19 21  1  0  0  0
 25 32  1  0  0  0
 40 41  1  0  0  0
 51 58  1  0  0  0
 44 46  1  0  0  0
 44 47  1  0  0  0
M  END
> <minimizedAffinity>
-9.30125

> <CNNscore>
0.4396795630

> <CNNaffinity>
7.7073183060

> <CNN_VS>
3.3887503147

> <CNNaffinity_variance>
0.5599218607

$$$$
[H]c1c([H])c([H])c(C([H])([H])[C@@]([H])(C(=O)N([H])[C@]([H])(C(=O)N([H])[C@]([H])(C(=O)N([H])[H])C([H])([H])c2c([H])n([H])c3c([H])c([H])c([H])c([H])c23)C([H])([H])C([H])(C([H])([H])[H])C([H])([H])[H])N([H])C(=O)C([H])([H])N([H])C(=O)[C@@]2([H])N(C(=O)[C@@]([H])(N([H])[H])C([H])([H])c3c([H])n([H])c4c([H])c([H])c([H])c([H])c34)C([H])([H])C([H])([H])C2([H])[H])c([H])c1[H]


 69 74  0  0  0  0  0  0  0  0999 V2000
   41.4162   16.0265  -10.5523 C   0  0  0  0  0  0  0  0  0  0  0  0
   40.8640   15.0259   -9.6443 N   0  0  0  0  0  0  0  0  0  0  0  0
   39.8055   15.3300   -8.7844 C   0  0  0  0  0  0  0  0  0  0  0  0
   39.4011   16.5807   -8.9011 O   0  0  0  0  0  0  0  0  0  0  0  0
   41.2715   14.0845   -9.6539 H   0  0  0  0  0  0  0  0  0  0  0  0
   39.0695   14.5866   -7.7993 C   0  0  0  0  0  0  0  0  0  0  0  0
   37.8144   15.0147   -7.3165 N   0  0  0  0  0  0  0  0  0  0  0  0
   36.8899   14.1403   -6.7049 C   0  0  0  0  0  0  0  0  0  0  0  0
   37.2030   12.9345   -6.5706 O   0  0  0  0  0  0  0  0  0  0  0  0
   37.5201   16.0083   -7.3932 H   0  0  0  0  0  0  0  0  0  0  0  0
   35.5565   14.5694   -6.2221 C   0  0  0  0  0  0  0  0  0  0  0  0
   34.4887   14.5835   -7.2786 C   0  0  0  0  0  0  0  0  0  0  0  0
   34.2952   16.0336   -7.5821 C   0  0  0  0  0  0  0  0  0  0  0  0
   34.8586   16.7831   -6.3880 C   0  0  0  0  0  0  0  0  0  0  0  0
   35.5495   15.8407   -5.5660 N   0  0  0  0  0  0  0  0  0  0  0  0
   36.1497   16.0851   -4.3136 C   0  0  0  0  0  0  0  0  0  0  0  0
   36.7673   15.0864   -3.7470 O   0  0  0  0  0  0  0  0  0  0  0  0
   36.1655   17.3331   -3.5626 C   0  0  0  0  0  0  0  0  0  0  0  0
   35.9476   17.1067   -2.1198 N   0  0  0  0  0  0  0  0  0  0  0  0
   36.8152   17.2858   -1.5629 H   0  0  0  0  0  0  0  0  0  0  0  0
   35.2479   17.8253   -1.7686 H   0  0  0  0  0  0  0  0  0  0  0  0
   37.4681   18.0689   -3.6463 C   0  0  0  0  0  0  0  0  0  0  0  0
   37.8699   18.4999   -4.9727 C   0  0  0  0  0  0  0  0  0  0  0  0
   38.9212   17.9287   -5.6912 C   0  0  0  0  0  0  0  0  0  0  0  0
   39.0712   18.5606   -6.8580 N   0  0  0  0  0  0  0  0  0  0  0  0
   38.1325   19.5237   -6.8964 C   0  0  0  0  0  0  0  0  0  0  0  0
   37.8526   20.4247   -7.8977 C   0  0  0  0  0  0  0  0  0  0  0  0
   36.8174   21.3077   -7.7481 C   0  0  0  0  0  0  0  0  0  0  0  0
   36.0356   21.3238   -6.6108 C   0  0  0  0  0  0  0  0  0  0  0  0
   36.3189   20.4230   -5.6120 C   0  0  0  0  0  0  0  0  0  0  0  0
   37.3729   19.5072   -5.7369 C   0  0  0  0  0  0  0  0  0  0  0  0
   39.7747   18.3365   -7.5767 H   0  0  0  0  0  0  0  0  0  0  0  0
   40.4926   14.8308  -12.5647 N   0  0  0  0  0  0  0  0  0  0  0  0
   40.8689   16.0458  -11.9111 C   0  0  0  0  0  0  0  0  0  0  0  0
   40.6963   17.0973  -12.5825 O   0  0  0  0  0  0  0  0  0  0  0  0
   40.6631   13.9271  -11.9925 H   0  0  0  0  0  0  0  0  0  0  0  0
   39.9275   14.6191  -13.8371 C   0  0  0  0  0  0  0  0  0  0  0  0
   38.4348   14.4975  -13.6118 C   0  0  0  0  0  0  0  0  0  0  0  0
   37.7027   15.0188  -14.5183 O   0  0  0  0  0  0  0  0  0  0  0  0
   37.8150   13.8941  -12.5302 N   0  0  0  0  0  0  0  0  0  0  0  0
   38.3054   13.4339  -11.7672 H   0  0  0  0  0  0  0  0  0  0  0  0
   36.3388   13.9067  -12.4596 C   0  0  0  0  0  0  0  0  0  0  0  0
   35.9733   14.5628  -11.2200 C   0  0  0  0  0  0  0  0  0  0  0  0
   34.6601   14.9993  -10.9008 N   0  0  0  0  0  0  0  0  0  0  0  0
   36.8506   14.7901  -10.3395 O   0  0  0  0  0  0  0  0  0  0  0  0
   34.3510   15.0306   -9.9044 H   0  0  0  0  0  0  0  0  0  0  0  0
   34.0210   15.2846  -11.6784 H   0  0  0  0  0  0  0  0  0  0  0  0
   35.8171   12.5235  -12.6611 C   0  0  0  0  0  0  0  0  0  0  0  0
   35.2941   12.2187  -14.0056 C   0  0  0  0  0  0  0  0  0  0  0  0
   33.9254   12.1939  -14.3479 C   0  0  0  0  0  0  0  0  0  0  0  0
   33.8044   11.8001  -15.6055 N   0  0  0  0  0  0  0  0  0  0  0  0
   35.0242   11.5542  -16.1431 C   0  0  0  0  0  0  0  0  0  0  0  0
   35.3598   11.1443  -17.4258 C   0  0  0  0  0  0  0  0  0  0  0  0
   36.6840   10.9984  -17.7093 C   0  0  0  0  0  0  0  0  0  0  0  0
   37.6391   11.2545  -16.7398 C   0  0  0  0  0  0  0  0  0  0  0  0
   37.2954   11.6591  -15.4714 C   0  0  0  0  0  0  0  0  0  0  0  0
   35.9476   11.8142  -15.1553 C   0  0  0  0  0  0  0  0  0  0  0  0
   32.8798   11.6948  -16.1103 H   0  0  0  0  0  0  0  0  0  0  0  0
   40.3840   13.4218  -14.6166 C   0  0  0  0  0  0  0  0  0  0  0  0
   40.5633   13.1258  -17.1435 C   0  0  0  0  0  0  0  0  0  0  0  0
   41.1381   13.6058  -15.8643 C   0  0  0  0  0  0  0  0  0  0  0  0
   42.5717   13.0721  -15.7712 C   0  0  0  0  0  0  0  0  0  0  0  0
   42.9143   15.6419  -10.5883 C   0  0  0  0  0  0  0  0  0  0  0  0
   43.7555   16.4117   -9.6952 C   0  0  0  0  0  0  0  0  0  0  0  0
   44.8968   17.0860  -10.0760 C   0  0  0  0  0  0  0  0  0  0  0  0
   45.6368   17.8202   -9.1555 C   0  0  0  0  0  0  0  0  0  0  0  0
   45.2542   17.8928   -7.8514 C   0  0  0  0  0  0  0  0  0  0  0  0
   44.1238   17.2337   -7.4366 C   0  0  0  0  0  0  0  0  0  0  0  0
   43.3828   16.5004   -8.3500 C   0  0  0  0  0  0  0  0  0  0  0  0
 60 61  1  0  0  0
 61 62  1  0  0  0
 61 59  1  0  0  0
 59 37  1  0  0  0
 37 33  1  0  0  0
 33 34  1  0  0  0
 34 35  2  0  0  0
 34  1  1  0  0  0
  1 63  1  0  0  0
 63 64  1  0  0  0
 64 65  2  0  0  0
 65 66  1  0  0  0
 66 67  2  0  0  0
 67 68  1  0  0  0
 68 69  2  0  0  0
  1  2  1  0  0  0
  2  3  1  0  0  0
  3  4  2  0  0  0
  3  6  1  0  0  0
  6  7  1  0  0  0
  7  8  1  0  0  0
  8  9  2  0  0  0
  8 11  1  0  0  0
 11 12  1  0  0  0
 12 13  1  0  0  0
 13 14  1  0  0  0
 14 15  1  0  0  0
 15 16  1  0  0  0
 16 17  2  0  0  0
 16 18  1  0  0  0
 18 19  1  0  0  0
 18 22  1  0  0  0
 22 23  1  0  0  0
 23 24  2  0  0  0
 24 25  1  0  0  0
 25 26  1  0  0  0
 26 27  2  0  0  0
 27 28  1  0  0  0
 28 29  2  0  0  0
 29 30  1  0  0  0
 30 31  2  0  0  0
 37 38  1  0  0  0
 38 39  2  0  0  0
 38 40  1  0  0  0
 40 42  1  0  0  0
 42 48  1  0  0  0
 48 49  1  0  0  0
 49 50  2  0  0  0
 50 51  1  0  0  0
 51 52  1  0  0  0
 52 53  2  0  0  0
 53 54  1  0  0  0
 54 55  2  0  0  0
 55 56  1  0  0  0
 56 57  2  0  0  0
 42 43  1  0  0  0
 43 44  1  0  0  0
 43 45  2  0  0  0
 69 64  1  0  0  0
 15 11  1  0  0  0
 31 23  1  0  0  0
 57 49  1  0  0  0
 31 26  1  0  0  0
 57 52  1  0  0  0
 33 36  1  0  0  0
  2  5  1  0  0  0
  7 10  1  0  0  0
 19 20  1  0  0  0
 19 21  1  0  0  0
 25 32  1  0  0  0
 40 41  1  0  0  0
 51 58  1  0  0  0
 44 46  1  0  0  0
 44 47  1  0  0  0
M  END
> <minimizedAffinity>
-9.69726

> <CNNscore>
0.4227949679

> <CNNaffinity>
7.5330648422

> <CNN_VS>
3.1849420071

> <CNNaffinity_variance>
0.9783115387

$$$$
[H]c1c([H])c([H])c(C([H])([H])[C@@]([H])(C(=O)N([H])[C@]([H])(C(=O)N([H])[C@]([H])(C(=O)N([H])[H])C([H])([H])c2c([H])n([H])c3c([H])c([H])c([H])c([H])c23)C([H])([H])C([H])(C([H])([H])[H])C([H])([H])[H])N([H])C(=O)C([H])([H])N([H])C(=O)[C@@]2([H])N(C(=O)[C@@]([H])(N([H])[H])C([H])([H])c3c([H])n([H])c4c([H])c([H])c([H])c([H])c34)C([H])([H])C([H])([H])C2([H])[H])c([H])c1[H]


 69 74  0  0  0  0  0  0  0  0999 V2000
   39.8182   13.7195  -14.6920 C   0  0  0  0  0  0  0  0  0  0  0  0
   41.2463   13.4309  -14.7790 N   0  0  0  0  0  0  0  0  0  0  0  0
   41.8913   13.3188  -16.0134 C   0  0  0  0  0  0  0  0  0  0  0  0
   41.0713   13.4979  -17.0317 O   0  0  0  0  0  0  0  0  0  0  0  0
   41.7720   13.3144  -13.9058 H   0  0  0  0  0  0  0  0  0  0  0  0
   43.2429   13.0443  -16.4165 C   0  0  0  0  0  0  0  0  0  0  0  0
   44.3443   13.7494  -15.8861 N   0  0  0  0  0  0  0  0  0  0  0  0
   45.5459   13.1162  -15.5008 C   0  0  0  0  0  0  0  0  0  0  0  0
   45.6453   11.8761  -15.6505 O   0  0  0  0  0  0  0  0  0  0  0  0
   44.3111   14.7802  -15.7591 H   0  0  0  0  0  0  0  0  0  0  0  0
   46.6980   13.8393  -14.9134 C   0  0  0  0  0  0  0  0  0  0  0  0
   48.0408   13.3199  -15.3419 C   0  0  0  0  0  0  0  0  0  0  0  0
   48.5397   12.5710  -14.1492 C   0  0  0  0  0  0  0  0  0  0  0  0
   47.7383   13.0931  -12.9702 C   0  0  0  0  0  0  0  0  0  0  0  0
   46.6831   13.9075  -13.4844 N   0  0  0  0  0  0  0  0  0  0  0  0
   45.7520   14.6613  -12.7406 C   0  0  0  0  0  0  0  0  0  0  0  0
   44.8399   15.3069  -13.4123 O   0  0  0  0  0  0  0  0  0  0  0  0
   45.6814   14.8110  -11.2934 C   0  0  0  0  0  0  0  0  0  0  0  0
   45.3391   16.1931  -10.9020 N   0  0  0  0  0  0  0  0  0  0  0  0
   44.3739   16.2562  -10.5026 H   0  0  0  0  0  0  0  0  0  0  0  0
   45.9803   16.4859  -10.1066 H   0  0  0  0  0  0  0  0  0  0  0  0
   44.6322   13.9558  -10.6508 C   0  0  0  0  0  0  0  0  0  0  0  0
   45.0912   12.6936  -10.1005 C   0  0  0  0  0  0  0  0  0  0  0  0
   45.1346   11.5000  -10.8224 C   0  0  0  0  0  0  0  0  0  0  0  0
   45.5659   10.5092  -10.0380 N   0  0  0  0  0  0  0  0  0  0  0  0
   45.7999   11.0510   -8.8288 C   0  0  0  0  0  0  0  0  0  0  0  0
   46.2849   10.4538   -7.6883 C   0  0  0  0  0  0  0  0  0  0  0  0
   46.4863   11.2037   -6.5610 C   0  0  0  0  0  0  0  0  0  0  0  0
   46.2150   12.5566   -6.5310 C   0  0  0  0  0  0  0  0  0  0  0  0
   45.7294   13.1497   -7.6721 C   0  0  0  0  0  0  0  0  0  0  0  0
   45.5128   12.4071   -8.8412 C   0  0  0  0  0  0  0  0  0  0  0  0
   45.6906    9.5272  -10.3239 H   0  0  0  0  0  0  0  0  0  0  0  0
   38.4644   14.1053  -12.6060 N   0  0  0  0  0  0  0  0  0  0  0  0
   39.3936   14.5792  -13.5843 C   0  0  0  0  0  0  0  0  0  0  0  0
   39.8001   15.7594  -13.4173 O   0  0  0  0  0  0  0  0  0  0  0  0
   38.1004   13.0977  -12.7653 H   0  0  0  0  0  0  0  0  0  0  0  0
   37.9479   14.7388  -11.4593 C   0  0  0  0  0  0  0  0  0  0  0  0
   36.4685   14.4151  -11.4388 C   0  0  0  0  0  0  0  0  0  0  0  0
   36.0485   13.8528  -10.3726 O   0  0  0  0  0  0  0  0  0  0  0  0
   35.5608   14.6619  -12.4552 N   0  0  0  0  0  0  0  0  0  0  0  0
   35.7888   15.1214  -13.3334 H   0  0  0  0  0  0  0  0  0  0  0  0
   34.1568   14.2377  -12.2722 C   0  0  0  0  0  0  0  0  0  0  0  0
   33.8263   13.3580  -13.3757 C   0  0  0  0  0  0  0  0  0  0  0  0
   33.0596   13.7444  -14.5070 N   0  0  0  0  0  0  0  0  0  0  0  0
   34.2174   12.1566  -13.3688 O   0  0  0  0  0  0  0  0  0  0  0  0
   33.2242   13.2823  -15.4283 H   0  0  0  0  0  0  0  0  0  0  0  0
   32.3368   14.4922  -14.3944 H   0  0  0  0  0  0  0  0  0  0  0  0
   33.2908   15.4395  -12.0948 C   0  0  0  0  0  0  0  0  0  0  0  0
   32.6148   15.5631  -10.7902 C   0  0  0  0  0  0  0  0  0  0  0  0
   31.2359   15.3524  -10.5775 C   0  0  0  0  0  0  0  0  0  0  0  0
   30.9485   15.6319   -9.3163 N   0  0  0  0  0  0  0  0  0  0  0  0
   32.0638   16.0235   -8.6530 C   0  0  0  0  0  0  0  0  0  0  0  0
   32.2208   16.3874   -7.3231 C   0  0  0  0  0  0  0  0  0  0  0  0
   33.4762   16.7147   -6.9082 C   0  0  0  0  0  0  0  0  0  0  0  0
   34.5378   16.6787   -7.7966 C   0  0  0  0  0  0  0  0  0  0  0  0
   34.3709   16.3179   -9.1129 C   0  0  0  0  0  0  0  0  0  0  0  0
   33.0965   15.9802   -9.5629 C   0  0  0  0  0  0  0  0  0  0  0  0
   29.9799   15.5571   -8.8956 H   0  0  0  0  0  0  0  0  0  0  0  0
   38.1048   16.2264  -11.3496 C   0  0  0  0  0  0  0  0  0  0  0  0
   37.9754   18.3613   -9.9601 C   0  0  0  0  0  0  0  0  0  0  0  0
   37.9691   16.8813  -10.0412 C   0  0  0  0  0  0  0  0  0  0  0  0
   38.9758   16.3565   -9.0116 C   0  0  0  0  0  0  0  0  0  0  0  0
   39.2097   12.3061  -14.5308 C   0  0  0  0  0  0  0  0  0  0  0  0
   38.2237   11.9570  -15.5327 C   0  0  0  0  0  0  0  0  0  0  0  0
   36.8955   12.3265  -15.4911 C   0  0  0  0  0  0  0  0  0  0  0  0
   36.0184   11.9650  -16.5080 C   0  0  0  0  0  0  0  0  0  0  0  0
   36.4480   11.2352  -17.5735 C   0  0  0  0  0  0  0  0  0  0  0  0
   37.7632   10.8494  -17.6478 C   0  0  0  0  0  0  0  0  0  0  0  0
   38.6414   11.2069  -16.6368 C   0  0  0  0  0  0  0  0  0  0  0  0
 60 61  1  0  0  0
 61 62  1  0  0  0
 61 59  1  0  0  0
 59 37  1  0  0  0
 37 33  1  0  0  0
 33 34  1  0  0  0
 34 35  2  0  0  0
 34  1  1  0  0  0
  1 63  1  0  0  0
 63 64  1  0  0  0
 64 65  2  0  0  0
 65 66  1  0  0  0
 66 67  2  0  0  0
 67 68  1  0  0  0
 68 69  2  0  0  0
  1  2  1  0  0  0
  2  3  1  0  0  0
  3  4  2  0  0  0
  3  6  1  0  0  0
  6  7  1  0  0  0
  7  8  1  0  0  0
  8  9  2  0  0  0
  8 11  1  0  0  0
 11 12  1  0  0  0
 12 13  1  0  0  0
 13 14  1  0  0  0
 14 15  1  0  0  0
 15 16  1  0  0  0
 16 17  2  0  0  0
 16 18  1  0  0  0
 18 19  1  0  0  0
 18 22  1  0  0  0
 22 23  1  0  0  0
 23 24  2  0  0  0
 24 25  1  0  0  0
 25 26  1  0  0  0
 26 27  2  0  0  0
 27 28  1  0  0  0
 28 29  2  0  0  0
 29 30  1  0  0  0
 30 31  2  0  0  0
 37 38  1  0  0  0
 38 39  2  0  0  0
 38 40  1  0  0  0
 40 42  1  0  0  0
 42 48  1  0  0  0
 48 49  1  0  0  0
 49 50  2  0  0  0
 50 51  1  0  0  0
 51 52  1  0  0  0
 52 53  2  0  0  0
 53 54  1  0  0  0
 54 55  2  0  0  0
 55 56  1  0  0  0
 56 57  2  0  0  0
 42 43  1  0  0  0
 43 44  1  0  0  0
 43 45  2  0  0  0
 69 64  1  0  0  0
 15 11  1  0  0  0
 31 23  1  0  0  0
 57 49  1  0  0  0
 31 26  1  0  0  0
 57 52  1  0  0  0
 33 36  1  0  0  0
  2  5  1  0  0  0
  7 10  1  0  0  0
 19 20  1  0  0  0
 19 21  1  0  0  0
 25 32  1  0  0  0
 40 41  1  0  0  0
 51 58  1  0  0  0
 44 46  1  0  0  0
 44 47  1  0  0  0
M  END
> <minimizedAffinity>
-9.20058

> <CNNscore>
0.2828174233

> <CNNaffinity>
7.4878358841

> <CNN_VS>
2.1176905632

> <CNNaffinity_variance>
0.9909946322

$$$$
[H]c1c([H])c([H])c(C([H])([H])[C@@]([H])(C(=O)N([H])[C@]([H])(C(=O)N([H])[C@]([H])(C(=O)N([H])[H])C([H])([H])c2c([H])n([H])c3c([H])c([H])c([H])c([H])c23)C([H])([H])C([H])(C([H])([H])[H])C([H])([H])[H])N([H])C(=O)C([H])([H])N([H])C(=O)[C@@]2([H])N(C(=O)[C@@]([H])(N([H])[H])C([H])([H])c3c([H])n([H])c4c([H])c([H])c([H])c([H])c34)C([H])([H])C([H])([H])C2([H])[H])c([H])c1[H]


 69 74  0  0  0  0  0  0  0  0999 V2000
   39.8561   13.7173  -14.6589 C   0  0  0  0  0  0  0  0  0  0  0  0
   41.2807   13.4115  -14.7459 N   0  0  0  0  0  0  0  0  0  0  0  0
   41.9393   13.3602  -15.9772 C   0  0  0  0  0  0  0  0  0  0  0  0
   41.1348   13.6102  -16.9930 O   0  0  0  0  0  0  0  0  0  0  0  0
   41.7936   13.2369  -13.8748 H   0  0  0  0  0  0  0  0  0  0  0  0
   43.2915   13.0878  -16.3798 C   0  0  0  0  0  0  0  0  0  0  0  0
   44.3927   13.7843  -15.8378 N   0  0  0  0  0  0  0  0  0  0  0  0
   45.5776   13.1394  -15.4214 C   0  0  0  0  0  0  0  0  0  0  0  0
   45.6619   11.8961  -15.5527 O   0  0  0  0  0  0  0  0  0  0  0  0
   44.3720   14.8171  -15.7252 H   0  0  0  0  0  0  0  0  0  0  0  0
   46.7287   13.8539  -14.8218 C   0  0  0  0  0  0  0  0  0  0  0  0
   47.9766   13.0269  -14.6980 C   0  0  0  0  0  0  0  0  0  0  0  0
   48.0565   12.7031  -13.2416 C   0  0  0  0  0  0  0  0  0  0  0  0
   47.1829   13.7296  -12.5430 C   0  0  0  0  0  0  0  0  0  0  0  0
   46.4566   14.4417  -13.5461 N   0  0  0  0  0  0  0  0  0  0  0  0
   45.5945   15.5406  -13.3519 C   0  0  0  0  0  0  0  0  0  0  0  0
   44.9969   16.0193  -14.4072 O   0  0  0  0  0  0  0  0  0  0  0  0
   45.2840   16.2178  -12.1003 C   0  0  0  0  0  0  0  0  0  0  0  0
   45.5173   17.6730  -12.1927 N   0  0  0  0  0  0  0  0  0  0  0  0
   44.6202   18.2118  -12.1831 H   0  0  0  0  0  0  0  0  0  0  0  0
   46.0308   17.9875  -11.3170 H   0  0  0  0  0  0  0  0  0  0  0  0
   43.8517   16.0814  -11.6819 C   0  0  0  0  0  0  0  0  0  0  0  0
   43.5754   15.0630  -10.6855 C   0  0  0  0  0  0  0  0  0  0  0  0
   43.7075   13.6929  -10.9160 C   0  0  0  0  0  0  0  0  0  0  0  0
   43.3478   13.0112   -9.8256 N   0  0  0  0  0  0  0  0  0  0  0  0
   42.9903   13.9232   -8.9032 C   0  0  0  0  0  0  0  0  0  0  0  0
   42.5739   13.7302   -7.6063 C   0  0  0  0  0  0  0  0  0  0  0  0
   42.2909   14.8106   -6.8150 C   0  0  0  0  0  0  0  0  0  0  0  0
   42.4109   16.1038   -7.2820 C   0  0  0  0  0  0  0  0  0  0  0  0
   42.8261   16.2929   -8.5787 C   0  0  0  0  0  0  0  0  0  0  0  0
   43.1227   15.2057   -9.4125 C   0  0  0  0  0  0  0  0  0  0  0  0
   43.3528   11.9854   -9.7293 H   0  0  0  0  0  0  0  0  0  0  0  0
   38.4714   14.1267  -12.5980 N   0  0  0  0  0  0  0  0  0  0  0  0
   39.4411   14.5770  -13.5477 C   0  0  0  0  0  0  0  0  0  0  0  0
   39.8906   15.7373  -13.3533 O   0  0  0  0  0  0  0  0  0  0  0  0
   38.0710   13.1371  -12.7812 H   0  0  0  0  0  0  0  0  0  0  0  0
   37.9545   14.7637  -11.4534 C   0  0  0  0  0  0  0  0  0  0  0  0
   36.4733   14.4478  -11.4376 C   0  0  0  0  0  0  0  0  0  0  0  0
   36.0382   13.9295  -10.3552 O   0  0  0  0  0  0  0  0  0  0  0  0
   35.5786   14.6590  -12.4734 N   0  0  0  0  0  0  0  0  0  0  0  0
   35.8190   15.0827  -13.3661 H   0  0  0  0  0  0  0  0  0  0  0  0
   34.1705   14.2487  -12.2904 C   0  0  0  0  0  0  0  0  0  0  0  0
   33.8249   13.3891  -13.4051 C   0  0  0  0  0  0  0  0  0  0  0  0
   33.0606   13.8018  -14.5287 N   0  0  0  0  0  0  0  0  0  0  0  0
   34.1994   12.1825  -13.4161 O   0  0  0  0  0  0  0  0  0  0  0  0
   33.2163   13.3505  -15.4568 H   0  0  0  0  0  0  0  0  0  0  0  0
   32.3484   14.5579  -14.4036 H   0  0  0  0  0  0  0  0  0  0  0  0
   33.3195   15.4579  -12.0918 C   0  0  0  0  0  0  0  0  0  0  0  0
   32.6364   15.5616  -10.7892 C   0  0  0  0  0  0  0  0  0  0  0  0
   33.2575   15.9605   -9.5865 C   0  0  0  0  0  0  0  0  0  0  0  0
   32.3839   15.8584   -8.5978 N   0  0  0  0  0  0  0  0  0  0  0  0
   31.1928   15.4095   -9.0640 C   0  0  0  0  0  0  0  0  0  0  0  0
   30.0062   15.1779   -8.3828 C   0  0  0  0  0  0  0  0  0  0  0  0
   28.9396   14.7481   -9.1128 C   0  0  0  0  0  0  0  0  0  0  0  0
   29.0589   14.5568  -10.4791 C   0  0  0  0  0  0  0  0  0  0  0  0
   30.2400   14.7883  -11.1441 C   0  0  0  0  0  0  0  0  0  0  0  0
   31.3464   15.2267  -10.4201 C   0  0  0  0  0  0  0  0  0  0  0  0
   32.5964   16.0961   -7.5883 H   0  0  0  0  0  0  0  0  0  0  0  0
   38.1189   16.2505  -11.3440 C   0  0  0  0  0  0  0  0  0  0  0  0
   38.0634   18.3819   -9.9442 C   0  0  0  0  0  0  0  0  0  0  0  0
   38.0139   16.9030  -10.0316 C   0  0  0  0  0  0  0  0  0  0  0  0
   39.0145   16.3449   -9.0136 C   0  0  0  0  0  0  0  0  0  0  0  0
   39.2302   12.3108  -14.5049 C   0  0  0  0  0  0  0  0  0  0  0  0
   38.2572   11.9698  -15.5222 C   0  0  0  0  0  0  0  0  0  0  0  0
   36.9265   12.3312  -15.4902 C   0  0  0  0  0  0  0  0  0  0  0  0
   36.0627   11.9787  -16.5215 C   0  0  0  0  0  0  0  0  0  0  0  0
   36.5081   11.2659  -17.5920 C   0  0  0  0  0  0  0  0  0  0  0  0
   37.8262   10.8886  -17.6571 C   0  0  0  0  0  0  0  0  0  0  0  0
   38.6913   11.2371  -16.6317 C   0  0  0  0  0  0  0  0  0  0  0  0
 60 61  1  0  0  0
 61 62  1  0  0  0
 61 59  1  0  0  0
 59 37  1  0  0  0
 37 33  1  0  0  0
 33 34  1  0  0  0
 34 35  2  0  0  0
 34  1  1  0  0  0
  1 63  1  0  0  0
 63 64  1  0  0  0
 64 65  2  0  0  0
 65 66  1  0  0  0
 66 67  2  0  0  0
 67 68  1  0  0  0
 68 69  2  0  0  0
  1  2  1  0  0  0
  2  3  1  0  0  0
  3  4  2  0  0  0
  3  6  1  0  0  0
  6  7  1  0  0  0
  7  8  1  0  0  0
  8  9  2  0  0  0
  8 11  1  0  0  0
 11 12  1  0  0  0
 12 13  1  0  0  0
 13 14  1  0  0  0
 14 15  1  0  0  0
 15 16  1  0  0  0
 16 17  2  0  0  0
 16 18  1  0  0  0
 18 19  1  0  0  0
 18 22  1  0  0  0
 22 23  1  0  0  0
 23 24  2  0  0  0
 24 25  1  0  0  0
 25 26  1  0  0  0
 26 27  2  0  0  0
 27 28  1  0  0  0
 28 29  2  0  0  0
 29 30  1  0  0  0
 30 31  2  0  0  0
 37 38  1  0  0  0
 38 39  2  0  0  0
 38 40  1  0  0  0
 40 42  1  0  0  0
 42 48  1  0  0  0
 48 49  1  0  0  0
 49 50  2  0  0  0
 50 51  1  0  0  0
 51 52  1  0  0  0
 52 53  2  0  0  0
 53 54  1  0  0  0
 54 55  2  0  0  0
 55 56  1  0  0  0
 56 57  2  0  0  0
 42 43  1  0  0  0
 43 44  1  0  0  0
 43 45  2  0  0  0
 69 64  1  0  0  0
 15 11  1  0  0  0
 31 23  1  0  0  0
 57 49  1  0  0  0
 31 26  1  0  0  0
 57 52  1  0  0  0
 33 36  1  0  0  0
  2  5  1  0  0  0
  7 10  1  0  0  0
 19 20  1  0  0  0
 19 21  1  0  0  0
 25 32  1  0  0  0
 40 41  1  0  0  0
 51 58  1  0  0  0
 44 46  1  0  0  0
 44 47  1  0  0  0
M  END
> <minimizedAffinity>
-9.62444

> <CNNscore>
0.2769246399

> <CNNaffinity>
7.8084249496

> <CNN_VS>
2.1623451710

> <CNNaffinity_variance>
1.0346837044

$$$$
[H]c1c([H])c([H])c(C([H])([H])[C@@]([H])(C(=O)N([H])[C@]([H])(C(=O)N([H])[C@]([H])(C(=O)N([H])[H])C([H])([H])c2c([H])n([H])c3c([H])c([H])c([H])c([H])c23)C([H])([H])C([H])(C([H])([H])[H])C([H])([H])[H])N([H])C(=O)C([H])([H])N([H])C(=O)[C@@]2([H])N(C(=O)[C@@]([H])(N([H])[H])C([H])([H])c3c([H])n([H])c4c([H])c([H])c([H])c([H])c34)C([H])([H])C([H])([H])C2([H])[H])c([H])c1[H]


 69 74  0  0  0  0  0  0  0  0999 V2000
   41.7970   16.0339  -10.1239 C   0  0  0  0  0  0  0  0  0  0  0  0
   40.6872   15.2267   -9.6268 N   0  0  0  0  0  0  0  0  0  0  0  0
   39.3768   15.7116   -9.6306 C   0  0  0  0  0  0  0  0  0  0  0  0
   39.2906   16.9352  -10.1173 O   0  0  0  0  0  0  0  0  0  0  0  0
   40.8917   14.2852   -9.2744 H   0  0  0  0  0  0  0  0  0  0  0  0
   38.1093   15.1771   -9.2153 C   0  0  0  0  0  0  0  0  0  0  0  0
   37.4108   15.6797   -8.0967 N   0  0  0  0  0  0  0  0  0  0  0  0
   36.5586   14.8813   -7.3034 C   0  0  0  0  0  0  0  0  0  0  0  0
   36.4282   13.6697   -7.5951 O   0  0  0  0  0  0  0  0  0  0  0  0
   37.5016   16.6743   -7.8096 H   0  0  0  0  0  0  0  0  0  0  0  0
   35.7949   15.4028   -6.1458 C   0  0  0  0  0  0  0  0  0  0  0  0
   36.2037   14.8246   -4.8210 C   0  0  0  0  0  0  0  0  0  0  0  0
   35.1033   13.8718   -4.4838 C   0  0  0  0  0  0  0  0  0  0  0  0
   33.9170   14.2963   -5.3309 C   0  0  0  0  0  0  0  0  0  0  0  0
   34.3758   15.2706   -6.2696 N   0  0  0  0  0  0  0  0  0  0  0  0
   33.5935   15.9968   -7.1912 C   0  0  0  0  0  0  0  0  0  0  0  0
   34.2228   16.8134   -7.9893 O   0  0  0  0  0  0  0  0  0  0  0  0
   32.1482   15.9476   -7.3649 C   0  0  0  0  0  0  0  0  0  0  0  0
   31.6296   17.1806   -7.9904 N   0  0  0  0  0  0  0  0  0  0  0  0
   31.2995   17.0109   -8.9689 H   0  0  0  0  0  0  0  0  0  0  0  0
   30.7602   17.4862   -7.4611 H   0  0  0  0  0  0  0  0  0  0  0  0
   31.6874   14.8370   -8.2591 C   0  0  0  0  0  0  0  0  0  0  0  0
   30.6675   13.9620   -7.7108 C   0  0  0  0  0  0  0  0  0  0  0  0
   30.9102   13.0091   -6.7204 C   0  0  0  0  0  0  0  0  0  0  0  0
   29.7881   12.3373   -6.4505 N   0  0  0  0  0  0  0  0  0  0  0  0
   28.8338   12.8467   -7.2506 C   0  0  0  0  0  0  0  0  0  0  0  0
   27.5006   12.5169   -7.3316 C   0  0  0  0  0  0  0  0  0  0  0  0
   26.6844   13.1923   -8.1983 C   0  0  0  0  0  0  0  0  0  0  0  0
   27.1617   14.2061   -9.0042 C   0  0  0  0  0  0  0  0  0  0  0  0
   28.4945   14.5320   -8.9216 C   0  0  0  0  0  0  0  0  0  0  0  0
   29.3544   13.8576   -8.0435 C   0  0  0  0  0  0  0  0  0  0  0  0
   29.6927   11.5803   -5.7581 H   0  0  0  0  0  0  0  0  0  0  0  0
   41.4926   14.8868  -12.3430 N   0  0  0  0  0  0  0  0  0  0  0  0
   42.1108   15.9028  -11.5489 C   0  0  0  0  0  0  0  0  0  0  0  0
   42.9215   16.6484  -12.1597 O   0  0  0  0  0  0  0  0  0  0  0  0
   40.8129   14.2339  -11.8092 H   0  0  0  0  0  0  0  0  0  0  0  0
   41.6214   14.6003  -13.7157 C   0  0  0  0  0  0  0  0  0  0  0  0
   40.2142   14.3604  -14.2219 C   0  0  0  0  0  0  0  0  0  0  0  0
   40.0489   14.5358  -15.4755 O   0  0  0  0  0  0  0  0  0  0  0  0
   39.1205   13.9871  -13.4588 N   0  0  0  0  0  0  0  0  0  0  0  0
   39.1503   13.8036  -12.4589 H   0  0  0  0  0  0  0  0  0  0  0  0
   37.8086   13.8377  -14.1230 C   0  0  0  0  0  0  0  0  0  0  0  0
   36.8691   14.6834  -13.4139 C   0  0  0  0  0  0  0  0  0  0  0  0
   35.4569   14.5827  -13.5264 N   0  0  0  0  0  0  0  0  0  0  0  0
   37.2894   15.5898  -12.6405 O   0  0  0  0  0  0  0  0  0  0  0  0
   34.8511   14.8523  -12.7203 H   0  0  0  0  0  0  0  0  0  0  0  0
   35.0463   14.2370  -14.4244 H   0  0  0  0  0  0  0  0  0  0  0  0
   37.4604   12.3903  -14.2215 C   0  0  0  0  0  0  0  0  0  0  0  0
   37.1687   11.8857  -15.5759 C   0  0  0  0  0  0  0  0  0  0  0  0
   35.8877   11.5124  -16.0349 C   0  0  0  0  0  0  0  0  0  0  0  0
   35.9961   11.0232  -17.2596 N   0  0  0  0  0  0  0  0  0  0  0  0
   37.2898   11.0436  -17.6638 C   0  0  0  0  0  0  0  0  0  0  0  0
   37.8461   10.6466  -18.8717 C   0  0  0  0  0  0  0  0  0  0  0  0
   39.1905   10.8048  -19.0231 C   0  0  0  0  0  0  0  0  0  0  0  0
   39.9511   11.3423  -17.9983 C   0  0  0  0  0  0  0  0  0  0  0  0
   39.3897   11.7313  -16.8048 C   0  0  0  0  0  0  0  0  0  0  0  0
   38.0169   11.5784  -16.6240 C   0  0  0  0  0  0  0  0  0  0  0  0
   35.1804   10.6682  -17.8336 H   0  0  0  0  0  0  0  0  0  0  0  0
   42.4690   13.4277  -14.1107 C   0  0  0  0  0  0  0  0  0  0  0  0
   43.3247   12.3841  -16.2749 C   0  0  0  0  0  0  0  0  0  0  0  0
   43.3158   13.5083  -15.3089 C   0  0  0  0  0  0  0  0  0  0  0  0
   44.7735   13.8477  -14.9792 C   0  0  0  0  0  0  0  0  0  0  0  0
   42.9807   15.5210   -9.2699 C   0  0  0  0  0  0  0  0  0  0  0  0
   43.4246   16.4400   -8.2421 C   0  0  0  0  0  0  0  0  0  0  0  0
   42.7512   16.6872   -7.0640 C   0  0  0  0  0  0  0  0  0  0  0  0
   43.2597   17.5722   -6.1195 C   0  0  0  0  0  0  0  0  0  0  0  0
   44.4376   18.2197   -6.3328 C   0  0  0  0  0  0  0  0  0  0  0  0
   45.1347   17.9985   -7.4944 C   0  0  0  0  0  0  0  0  0  0  0  0
   44.6321   17.1176   -8.4392 C   0  0  0  0  0  0  0  0  0  0  0  0
 60 61  1  0  0  0
 61 62  1  0  0  0
 61 59  1  0  0  0
 59 37  1  0  0  0
 37 33  1  0  0  0
 33 34  1  0  0  0
 34 35  2  0  0  0
 34  1  1  0  0  0
  1 63  1  0  0  0
 63 64  1  0  0  0
 64 65  2  0  0  0
 65 66  1  0  0  0
 66 67  2  0  0  0
 67 68  1  0  0  0
 68 69  2  0  0  0
  1  2  1  0  0  0
  2  3  1  0  0  0
  3  4  2  0  0  0
  3  6  1  0  0  0
  6  7  1  0  0  0
  7  8  1  0  0  0
  8  9  2  0  0  0
  8 11  1  0  0  0
 11 12  1  0  0  0
 12 13  1  0  0  0
 13 14  1  0  0  0
 14 15  1  0  0  0
 15 16  1  0  0  0
 16 17  2  0  0  0
 16 18  1  0  0  0
 18 19  1  0  0  0
 18 22  1  0  0  0
 22 23  1  0  0  0
 23 24  2  0  0  0
 24 25  1  0  0  0
 25 26  1  0  0  0
 26 27  2  0  0  0
 27 28  1  0  0  0
 28 29  2  0  0  0
 29 30  1  0  0  0
 30 31  2  0  0  0
 37 38  1  0  0  0
 38 39  2  0  0  0
 38 40  1  0  0  0
 40 42  1  0  0  0
 42 48  1  0  0  0
 48 49  1  0  0  0
 49 50  2  0  0  0
 50 51  1  0  0  0
 51 52  1  0  0  0
 52 53  2  0  0  0
 53 54  1  0  0  0
 54 55  2  0  0  0
 55 56  1  0  0  0
 56 57  2  0  0  0
 42 43  1  0  0  0
 43 44  1  0  0  0
 43 45  2  0  0  0
 69 64  1  0  0  0
 15 11  1  0  0  0
 31 23  1  0  0  0
 57 49  1  0  0  0
 31 26  1  0  0  0
 57 52  1  0  0  0
 33 36  1  0  0  0
  2  5  1  0  0  0
  7 10  1  0  0  0
 19 20  1  0  0  0
 19 21  1  0  0  0
 25 32  1  0  0  0
 40 41  1  0  0  0
 51 58  1  0  0  0
 44 46  1  0  0  0
 44 47  1  0  0  0
M  END
> <minimizedAffinity>
-10.46189

> <CNNscore>
0.2729812264

> <CNNaffinity>
7.2933487892

> <CNN_VS>
1.9909472466

> <CNNaffinity_variance>
0.6475089788

$$$$
[H]c1c([H])c([H])c(C([H])([H])[C@@]([H])(C(=O)N([H])[C@]([H])(C(=O)N([H])[C@]([H])(C(=O)N([H])[H])C([H])([H])c2c([H])n([H])c3c([H])c([H])c([H])c([H])c23)C([H])([H])C([H])(C([H])([H])[H])C([H])([H])[H])N([H])C(=O)C([H])([H])N([H])C(=O)[C@@]2([H])N(C(=O)[C@@]([H])(N([H])[H])C([H])([H])c3c([H])n([H])c4c([H])c([H])c([H])c([H])c34)C([H])([H])C([H])([H])C2([H])[H])c([H])c1[H]


 69 74  0  0  0  0  0  0  0  0999 V2000
   31.9609   15.2109   -9.5835 C   0  0  0  0  0  0  0  0  0  0  0  0
   31.6413   16.2789   -8.6412 N   0  0  0  0  0  0  0  0  0  0  0  0
   31.9326   16.1584   -7.2800 C   0  0  0  0  0  0  0  0  0  0  0  0
   32.5026   15.0057   -6.9838 O   0  0  0  0  0  0  0  0  0  0  0  0
   31.1972   17.1294   -9.0041 H   0  0  0  0  0  0  0  0  0  0  0  0
   31.7411   17.0058   -6.1354 C   0  0  0  0  0  0  0  0  0  0  0  0
   31.9822   16.5581   -4.8190 N   0  0  0  0  0  0  0  0  0  0  0  0
   32.7957   17.2643   -3.9064 C   0  0  0  0  0  0  0  0  0  0  0  0
   33.3140   18.3437   -4.2756 O   0  0  0  0  0  0  0  0  0  0  0  0
   31.5602   15.6766   -4.4660 H   0  0  0  0  0  0  0  0  0  0  0  0
   33.0828   16.7903   -2.5323 C   0  0  0  0  0  0  0  0  0  0  0  0
   32.9426   17.8434   -1.4704 C   0  0  0  0  0  0  0  0  0  0  0  0
   34.3512   18.1891   -1.1114 C   0  0  0  0  0  0  0  0  0  0  0  0
   35.1956   17.0195   -1.5846 C   0  0  0  0  0  0  0  0  0  0  0  0
   34.3639   16.1721   -2.3790 N   0  0  0  0  0  0  0  0  0  0  0  0
   34.7128   14.9294   -2.9467 C   0  0  0  0  0  0  0  0  0  0  0  0
   33.8091   14.3353   -3.6749 O   0  0  0  0  0  0  0  0  0  0  0  0
   35.9762   14.2158   -2.8187 C   0  0  0  0  0  0  0  0  0  0  0  0
   35.7698   12.7640   -2.6449 N   0  0  0  0  0  0  0  0  0  0  0  0
   36.0698   12.2248   -3.4902 H   0  0  0  0  0  0  0  0  0  0  0  0
   36.4090   12.4242   -1.8668 H   0  0  0  0  0  0  0  0  0  0  0  0
   36.8614   14.3395   -4.0213 C   0  0  0  0  0  0  0  0  0  0  0  0
   37.2426   15.6896   -4.3930 C   0  0  0  0  0  0  0  0  0  0  0  0
   38.2837   16.3977   -3.7911 C   0  0  0  0  0  0  0  0  0  0  0  0
   38.3679   17.6209   -4.3203 N   0  0  0  0  0  0  0  0  0  0  0  0
   37.3994   17.7041   -5.2506 C   0  0  0  0  0  0  0  0  0  0  0  0
   37.0925   18.7463   -6.0946 C   0  0  0  0  0  0  0  0  0  0  0  0
   36.0787   18.6091   -7.0040 C   0  0  0  0  0  0  0  0  0  0  0  0
   35.3447   17.4444   -7.1026 C   0  0  0  0  0  0  0  0  0  0  0  0
   35.6533   16.4056   -6.2569 C   0  0  0  0  0  0  0  0  0  0  0  0
   36.6859   16.5173   -5.3155 C   0  0  0  0  0  0  0  0  0  0  0  0
   39.0513   18.3448   -4.0549 H   0  0  0  0  0  0  0  0  0  0  0  0
   34.3854   15.6001  -10.1342 N   0  0  0  0  0  0  0  0  0  0  0  0
   33.0221   15.4936  -10.5531 C   0  0  0  0  0  0  0  0  0  0  0  0
   32.8202   15.6596  -11.7851 O   0  0  0  0  0  0  0  0  0  0  0  0
   34.5521   15.4786   -9.0709 H   0  0  0  0  0  0  0  0  0  0  0  0
   35.5529   15.8330  -10.8862 C   0  0  0  0  0  0  0  0  0  0  0  0
   35.6129   14.7206  -11.9122 C   0  0  0  0  0  0  0  0  0  0  0  0
   35.8213   13.5535  -11.4389 O   0  0  0  0  0  0  0  0  0  0  0  0
   35.4745   14.8607  -13.2831 N   0  0  0  0  0  0  0  0  0  0  0  0
   35.2869   15.7408  -13.7570 H   0  0  0  0  0  0  0  0  0  0  0  0
   35.6034   13.6608  -14.1363 C   0  0  0  0  0  0  0  0  0  0  0  0
   34.3098   13.0076  -14.1578 C   0  0  0  0  0  0  0  0  0  0  0  0
   33.0658   13.6903  -14.0978 N   0  0  0  0  0  0  0  0  0  0  0  0
   34.2357   11.7481  -14.2245 O   0  0  0  0  0  0  0  0  0  0  0  0
   32.2240   13.2772  -14.5561 H   0  0  0  0  0  0  0  0  0  0  0  0
   33.0162   14.6035  -13.5898 H   0  0  0  0  0  0  0  0  0  0  0  0
   36.7581   12.8386  -13.6711 C   0  0  0  0  0  0  0  0  0  0  0  0
   38.0498   13.1054  -14.3302 C   0  0  0  0  0  0  0  0  0  0  0  0
   38.9629   14.1048  -13.9318 C   0  0  0  0  0  0  0  0  0  0  0  0
   39.9714   14.1308  -14.7882 N   0  0  0  0  0  0  0  0  0  0  0  0
   39.7949   13.1970  -15.7548 C   0  0  0  0  0  0  0  0  0  0  0  0
   40.6096   12.8709  -16.8298 C   0  0  0  0  0  0  0  0  0  0  0  0
   40.1982   11.8576  -17.6417 C   0  0  0  0  0  0  0  0  0  0  0  0
   39.0102   11.1941  -17.3845 C   0  0  0  0  0  0  0  0  0  0  0  0
   38.2097   11.5261  -16.3169 C   0  0  0  0  0  0  0  0  0  0  0  0
   38.6072   12.5602  -15.4723 C   0  0  0  0  0  0  0  0  0  0  0  0
   40.7948   14.7927  -14.7189 H   0  0  0  0  0  0  0  0  0  0  0  0
   36.8621   15.8689  -10.1552 C   0  0  0  0  0  0  0  0  0  0  0  0
   39.2995   16.1564  -10.8493 C   0  0  0  0  0  0  0  0  0  0  0  0
   37.9484   16.7300  -10.6430 C   0  0  0  0  0  0  0  0  0  0  0  0
   38.1089   18.0061   -9.8096 C   0  0  0  0  0  0  0  0  0  0  0  0
   30.6129   15.0085  -10.3153 C   0  0  0  0  0  0  0  0  0  0  0  0
   29.5718   14.4101   -9.5054 C   0  0  0  0  0  0  0  0  0  0  0  0
   28.2345   14.7411   -9.5735 C   0  0  0  0  0  0  0  0  0  0  0  0
   27.2956   14.1010   -8.7717 C   0  0  0  0  0  0  0  0  0  0  0  0
   27.6719   13.1293   -7.8963 C   0  0  0  0  0  0  0  0  0  0  0  0
   28.9945   12.7745   -7.8013 C   0  0  0  0  0  0  0  0  0  0  0  0
   29.9344   13.4095   -8.5979 C   0  0  0  0  0  0  0  0  0  0  0  0
 60 61  1  0  0  0
 61 62  1  0  0  0
 61 59  1  0  0  0
 59 37  1  0  0  0
 37 33  1  0  0  0
 33 34  1  0  0  0
 34 35  2  0  0  0
 34  1  1  0  0  0
  1 63  1  0  0  0
 63 64  1  0  0  0
 64 65  2  0  0  0
 65 66  1  0  0  0
 66 67  2  0  0  0
 67 68  1  0  0  0
 68 69  2  0  0  0
  1  2  1  0  0  0
  2  3  1  0  0  0
  3  4  2  0  0  0
  3  6  1  0  0  0
  6  7  1  0  0  0
  7  8  1  0  0  0
  8  9  2  0  0  0
  8 11  1  0  0  0
 11 12  1  0  0  0
 12 13  1  0  0  0
 13 14  1  0  0  0
 14 15  1  0  0  0
 15 16  1  0  0  0
 16 17  2  0  0  0
 16 18  1  0  0  0
 18 19  1  0  0  0
 18 22  1  0  0  0
 22 23  1  0  0  0
 23 24  2  0  0  0
 24 25  1  0  0  0
 25 26  1  0  0  0
 26 27  2  0  0  0
 27 28  1  0  0  0
 28 29  2  0  0  0
 29 30  1  0  0  0
 30 31  2  0  0  0
 37 38  1  0  0  0
 38 39  2  0  0  0
 38 40  1  0  0  0
 40 42  1  0  0  0
 42 48  1  0  0  0
 48 49  1  0  0  0
 49 50  2  0  0  0
 50 51  1  0  0  0
 51 52  1  0  0  0
 52 53  2  0  0  0
 53 54  1  0  0  0
 54 55  2  0  0  0
 55 56  1  0  0  0
 56 57  2  0  0  0
 42 43  1  0  0  0
 43 44  1  0  0  0
 43 45  2  0  0  0
 69 64  1  0  0  0
 15 11  1  0  0  0
 31 23  1  0  0  0
 57 49  1  0  0  0
 31 26  1  0  0  0
 57 52  1  0  0  0
 33 36  1  0  0  0
  2  5  1  0  0  0
  7 10  1  0  0  0
 19 20  1  0  0  0
 19 21  1  0  0  0
 25 32  1  0  0  0
 40 41  1  0  0  0
 51 58  1  0  0  0
 44 46  1  0  0  0
 44 47  1  0  0  0
M  END
> <minimizedAffinity>
-9.96762

> <CNNscore>
0.2471086383

> <CNNaffinity>
7.6551589966

> <CNN_VS>
1.8916559219

> <CNNaffinity_variance>
0.5416092873

$$$$
[H]c1c([H])c([H])c(C([H])([H])[C@@]([H])(C(=O)N([H])[C@]([H])(C(=O)N([H])[C@]([H])(C(=O)N([H])[H])C([H])([H])c2c([H])n([H])c3c([H])c([H])c([H])c([H])c23)C([H])([H])C([H])(C([H])([H])[H])C([H])([H])[H])N([H])C(=O)C([H])([H])N([H])C(=O)[C@@]2([H])N(C(=O)[C@@]([H])(N([H])[H])C([H])([H])c3c([H])n([H])c4c([H])c([H])c([H])c([H])c34)C([H])([H])C([H])([H])C2([H])[H])c([H])c1[H]


 69 74  0  0  0  0  0  0  0  0999 V2000
   38.8455   16.5866   -9.6147 C   0  0  0  0  0  0  0  0  0  0  0  0
   38.2526   17.3748   -8.5387 N   0  0  0  0  0  0  0  0  0  0  0  0
   37.7544   18.6598   -8.7684 C   0  0  0  0  0  0  0  0  0  0  0  0
   37.8913   19.0392  -10.0249 O   0  0  0  0  0  0  0  0  0  0  0  0
   38.2060   16.9593   -7.6019 H   0  0  0  0  0  0  0  0  0  0  0  0
   37.1365   19.6580   -7.9398 C   0  0  0  0  0  0  0  0  0  0  0  0
   35.7434   19.8834   -7.9454 N   0  0  0  0  0  0  0  0  0  0  0  0
   35.1239   20.8710   -7.1491 C   0  0  0  0  0  0  0  0  0  0  0  0
   35.8432   21.5895   -6.4168 O   0  0  0  0  0  0  0  0  0  0  0  0
   35.1110   19.3213   -8.5486 H   0  0  0  0  0  0  0  0  0  0  0  0
   33.6599   21.0974   -7.1212 C   0  0  0  0  0  0  0  0  0  0  0  0
   33.2546   22.5434   -7.1584 C   0  0  0  0  0  0  0  0  0  0  0  0
   32.8256   22.8380   -5.7579 C   0  0  0  0  0  0  0  0  0  0  0  0
   32.5288   21.4898   -5.1259 C   0  0  0  0  0  0  0  0  0  0  0  0
   32.9894   20.4760   -6.0208 N   0  0  0  0  0  0  0  0  0  0  0  0
   32.8385   19.0815   -5.8750 C   0  0  0  0  0  0  0  0  0  0  0  0
   33.3728   18.3278   -6.7949 O   0  0  0  0  0  0  0  0  0  0  0  0
   32.1493   18.3676   -4.8087 C   0  0  0  0  0  0  0  0  0  0  0  0
   30.6920   18.6035   -4.8447 N   0  0  0  0  0  0  0  0  0  0  0  0
   30.1671   17.7483   -5.1418 H   0  0  0  0  0  0  0  0  0  0  0  0
   30.3578   18.7952   -3.8543 H   0  0  0  0  0  0  0  0  0  0  0  0
   32.3023   16.8790   -4.8849 C   0  0  0  0  0  0  0  0  0  0  0  0
   33.1542   16.2757   -3.8766 C   0  0  0  0  0  0  0  0  0  0  0  0
   33.2056   16.6980   -2.5475 C   0  0  0  0  0  0  0  0  0  0  0  0
   34.1057   15.9763   -1.8751 N   0  0  0  0  0  0  0  0  0  0  0  0
   34.6279   15.0999   -2.7524 C   0  0  0  0  0  0  0  0  0  0  0  0
   35.5693   14.1185   -2.5444 C   0  0  0  0  0  0  0  0  0  0  0  0
   35.9388   13.3006   -3.5778 C   0  0  0  0  0  0  0  0  0  0  0  0
   35.3908   13.4302   -4.8378 C   0  0  0  0  0  0  0  0  0  0  0  0
   34.4513   14.4126   -5.0424 C   0  0  0  0  0  0  0  0  0  0  0  0
   34.0535   15.2653   -4.0032 C   0  0  0  0  0  0  0  0  0  0  0  0
   34.3385   16.0842   -0.8772 H   0  0  0  0  0  0  0  0  0  0  0  0
   38.2233   15.1503  -11.5852 N   0  0  0  0  0  0  0  0  0  0  0  0
   37.9775   15.5900  -10.2468 C   0  0  0  0  0  0  0  0  0  0  0  0
   36.9834   15.0652   -9.6789 O   0  0  0  0  0  0  0  0  0  0  0  0
   39.0658   15.6202  -12.0777 H   0  0  0  0  0  0  0  0  0  0  0  0
   37.5465   14.1955  -12.3683 C   0  0  0  0  0  0  0  0  0  0  0  0
   38.5995   13.5693  -13.2587 C   0  0  0  0  0  0  0  0  0  0  0  0
   38.4348   12.3281  -13.5072 O   0  0  0  0  0  0  0  0  0  0  0  0
   39.7005   14.2099  -13.8024 N   0  0  0  0  0  0  0  0  0  0  0  0
   39.9110   15.1976  -13.6819 H   0  0  0  0  0  0  0  0  0  0  0  0
   40.6484   13.4232  -14.6190 C   0  0  0  0  0  0  0  0  0  0  0  0
   41.9805   13.7049  -14.1221 C   0  0  0  0  0  0  0  0  0  0  0  0
   43.1735   13.1740  -14.6807 N   0  0  0  0  0  0  0  0  0  0  0  0
   42.1382   14.4605  -13.1218 O   0  0  0  0  0  0  0  0  0  0  0  0
   44.0627   13.7167  -14.6179 H   0  0  0  0  0  0  0  0  0  0  0  0
   43.1380   12.2392  -15.1491 H   0  0  0  0  0  0  0  0  0  0  0  0
   40.4053   13.6937  -16.0660 C   0  0  0  0  0  0  0  0  0  0  0  0
   39.8902   12.5618  -16.8583 C   0  0  0  0  0  0  0  0  0  0  0  0
   40.6392   11.8456  -17.8160 C   0  0  0  0  0  0  0  0  0  0  0  0
   39.8511   10.9581  -18.4011 N   0  0  0  0  0  0  0  0  0  0  0  0
   38.5975   11.0300  -17.8905 C   0  0  0  0  0  0  0  0  0  0  0  0
   37.4721   10.2785  -18.1979 C   0  0  0  0  0  0  0  0  0  0  0  0
   36.3320   10.5462  -17.5024 C   0  0  0  0  0  0  0  0  0  0  0  0
   36.3207   11.5340  -16.5320 C   0  0  0  0  0  0  0  0  0  0  0  0
   37.4414   12.2738  -16.2361 C   0  0  0  0  0  0  0  0  0  0  0  0
   38.6199   12.0207  -16.9345 C   0  0  0  0  0  0  0  0  0  0  0  0
   40.1660   10.2911  -19.1605 H   0  0  0  0  0  0  0  0  0  0  0  0
   36.4201   14.6721  -13.2365 C   0  0  0  0  0  0  0  0  0  0  0  0
   34.1969   13.8440  -14.1728 C   0  0  0  0  0  0  0  0  0  0  0  0
   35.0589   14.1666  -13.0110 C   0  0  0  0  0  0  0  0  0  0  0  0
   34.2475   15.0589  -12.0654 C   0  0  0  0  0  0  0  0  0  0  0  0
   40.0221   15.8860   -8.8947 C   0  0  0  0  0  0  0  0  0  0  0  0
   39.7403   15.4827   -7.5324 C   0  0  0  0  0  0  0  0  0  0  0  0
   39.1079   14.3103   -7.1743 C   0  0  0  0  0  0  0  0  0  0  0  0
   38.8945   13.9901   -5.8379 C   0  0  0  0  0  0  0  0  0  0  0  0
   39.3042   14.8267   -4.8457 C   0  0  0  0  0  0  0  0  0  0  0  0
   39.9364   16.0025   -5.1652 C   0  0  0  0  0  0  0  0  0  0  0  0
   40.1513   16.3265   -6.4956 C   0  0  0  0  0  0  0  0  0  0  0  0
 60 61  1  0  0  0
 61 62  1  0  0  0
 61 59  1  0  0  0
 59 37  1  0  0  0
 37 33  1  0  0  0
 33 34  1  0  0  0
 34 35  2  0  0  0
 34  1  1  0  0  0
  1 63  1  0  0  0
 63 64  1  0  0  0
 64 65  2  0  0  0
 65 66  1  0  0  0
 66 67  2  0  0  0
 67 68  1  0  0  0
 68 69  2  0  0  0
  1  2  1  0  0  0
  2  3  1  0  0  0
  3  4  2  0  0  0
  3  6  1  0  0  0
  6  7  1  0  0  0
  7  8  1  0  0  0
  8  9  2  0  0  0
  8 11  1  0  0  0
 11 12  1  0  0  0
 12 13  1  0  0  0
 13 14  1  0  0  0
 14 15  1  0  0  0
 15 16  1  0  0  0
 16 17  2  0  0  0
 16 18  1  0  0  0
 18 19  1  0  0  0
 18 22  1  0  0  0
 22 23  1  0  0  0
 23 24  2  0  0  0
 24 25  1  0  0  0
 25 26  1  0  0  0
 26 27  2  0  0  0
 27 28  1  0  0  0
 28 29  2  0  0  0
 29 30  1  0  0  0
 30 31  2  0  0  0
 37 38  1  0  0  0
 38 39  2  0  0  0
 38 40  1  0  0  0
 40 42  1  0  0  0
 42 48  1  0  0  0
 48 49  1  0  0  0
 49 50  2  0  0  0
 50 51  1  0  0  0
 51 52  1  0  0  0
 52 53  2  0  0  0
 53 54  1  0  0  0
 54 55  2  0  0  0
 55 56  1  0  0  0
 56 57  2  0  0  0
 42 43  1  0  0  0
 43 44  1  0  0  0
 43 45  2  0  0  0
 69 64  1  0  0  0
 15 11  1  0  0  0
 31 23  1  0  0  0
 57 49  1  0  0  0
 31 26  1  0  0  0
 57 52  1  0  0  0
 33 36  1  0  0  0
  2  5  1  0  0  0
  7 10  1  0  0  0
 19 20  1  0  0  0
 19 21  1  0  0  0
 25 32  1  0  0  0
 40 41  1  0  0  0
 51 58  1  0  0  0
 44 46  1  0  0  0
 44 47  1  0  0  0
M  END
> <minimizedAffinity>
-9.80486

> <CNNscore>
0.1935307235

> <CNNaffinity>
7.2571372986

> <CNN_VS>
1.4044790268

> <CNNaffinity_variance>
0.4836824536

$$$$
[H]c1c([H])c([H])c(C([H])([H])[C@@]([H])(C(=O)N([H])[C@]([H])(C(=O)N([H])[C@]([H])(C(=O)N([H])[H])C([H])([H])c2c([H])n([H])c3c([H])c([H])c([H])c([H])c23)C([H])([H])C([H])(C([H])([H])[H])C([H])([H])[H])N([H])C(=O)C([H])([H])N([H])C(=O)[C@@]2([H])N(C(=O)[C@@]([H])(N([H])[H])C([H])([H])c3c([H])n([H])c4c([H])c([H])c([H])c([H])c34)C([H])([H])C([H])([H])C2([H])[H])c([H])c1[H]


 69 74  0  0  0  0  0  0  0  0999 V2000
   38.1118   16.1747   -8.5392 C   0  0  0  0  0  0  0  0  0  0  0  0
   36.6666   15.9798   -8.6039 N   0  0  0  0  0  0  0  0  0  0  0  0
   35.7851   16.8655   -7.9790 C   0  0  0  0  0  0  0  0  0  0  0  0
   36.4097   17.8461   -7.3546 O   0  0  0  0  0  0  0  0  0  0  0  0
   36.3088   15.1726   -9.1262 H   0  0  0  0  0  0  0  0  0  0  0  0
   34.3550   16.9387   -7.8596 C   0  0  0  0  0  0  0  0  0  0  0  0
   33.7115   17.9699   -7.1425 N   0  0  0  0  0  0  0  0  0  0  0  0
   32.3401   17.9312   -6.8094 C   0  0  0  0  0  0  0  0  0  0  0  0
   31.6677   16.9308   -7.1516 O   0  0  0  0  0  0  0  0  0  0  0  0
   34.2341   18.8104   -6.8258 H   0  0  0  0  0  0  0  0  0  0  0  0
   31.6447   19.0205   -6.0849 C   0  0  0  0  0  0  0  0  0  0  0  0
   30.3643   19.4741   -6.7263 C   0  0  0  0  0  0  0  0  0  0  0  0
   30.7139   20.7859   -7.3503 C   0  0  0  0  0  0  0  0  0  0  0  0
   31.9734   21.2552   -6.6444 C   0  0  0  0  0  0  0  0  0  0  0  0
   32.4536   20.1752   -5.8418 N   0  0  0  0  0  0  0  0  0  0  0  0
   33.5476   20.1987   -4.9524 C   0  0  0  0  0  0  0  0  0  0  0  0
   33.8415   19.0836   -4.3442 O   0  0  0  0  0  0  0  0  0  0  0  0
   34.4029   21.3309   -4.6233 C   0  0  0  0  0  0  0  0  0  0  0  0
   34.7026   21.3889   -3.1785 N   0  0  0  0  0  0  0  0  0  0  0  0
   35.7028   21.1544   -2.9794 H   0  0  0  0  0  0  0  0  0  0  0  0
   34.5906   22.3940   -2.8520 H   0  0  0  0  0  0  0  0  0  0  0  0
   35.7418   21.2883   -5.2947 C   0  0  0  0  0  0  0  0  0  0  0  0
   35.9131   22.1804   -6.4267 C   0  0  0  0  0  0  0  0  0  0  0  0
   35.7706   21.7848   -7.7575 C   0  0  0  0  0  0  0  0  0  0  0  0
   36.0247   22.8151   -8.5682 N   0  0  0  0  0  0  0  0  0  0  0  0
   36.3251   23.8612   -7.7770 C   0  0  0  0  0  0  0  0  0  0  0  0
   36.6294   25.1563   -8.1272 C   0  0  0  0  0  0  0  0  0  0  0  0
   36.8700   26.0859   -7.1518 C   0  0  0  0  0  0  0  0  0  0  0  0
   36.8168   25.7619   -5.8112 C   0  0  0  0  0  0  0  0  0  0  0  0
   36.5136   24.4666   -5.4650 C   0  0  0  0  0  0  0  0  0  0  0  0
   36.2628   23.4930   -6.4419 C   0  0  0  0  0  0  0  0  0  0  0  0
   35.9896   22.7926   -9.5976 H   0  0  0  0  0  0  0  0  0  0  0  0
   39.7161   15.8058  -10.4426 N   0  0  0  0  0  0  0  0  0  0  0  0
   38.7631   16.6324   -9.7691 C   0  0  0  0  0  0  0  0  0  0  0  0
   38.5411   17.7499  -10.3059 O   0  0  0  0  0  0  0  0  0  0  0  0
   39.9206   14.8549   -9.9659 H   0  0  0  0  0  0  0  0  0  0  0  0
   40.4313   16.0276  -11.6352 C   0  0  0  0  0  0  0  0  0  0  0  0
   39.6182   15.3732  -12.7328 C   0  0  0  0  0  0  0  0  0  0  0  0
   40.0287   15.5952  -13.9210 O   0  0  0  0  0  0  0  0  0  0  0  0
   38.4927   14.5848  -12.5608 N   0  0  0  0  0  0  0  0  0  0  0  0
   38.0976   14.3323  -11.6584 H   0  0  0  0  0  0  0  0  0  0  0  0
   37.8022   14.0617  -13.7584 C   0  0  0  0  0  0  0  0  0  0  0  0
   36.3960   14.3840  -13.6187 C   0  0  0  0  0  0  0  0  0  0  0  0
   35.5398   14.7223  -14.7002 N   0  0  0  0  0  0  0  0  0  0  0  0
   35.8554   14.3854  -12.4767 O   0  0  0  0  0  0  0  0  0  0  0  0
   34.5213   14.5012  -14.6451 H   0  0  0  0  0  0  0  0  0  0  0  0
   35.9504   15.1920  -15.5401 H   0  0  0  0  0  0  0  0  0  0  0  0
   38.1411   12.6203  -13.9409 C   0  0  0  0  0  0  0  0  0  0  0  0
   37.9536   12.0785  -15.2994 C   0  0  0  0  0  0  0  0  0  0  0  0
   36.7522   11.5163  -15.7807 C   0  0  0  0  0  0  0  0  0  0  0  0
   36.9555   11.0502  -17.0024 N   0  0  0  0  0  0  0  0  0  0  0  0
   38.2383   11.2662  -17.3832 C   0  0  0  0  0  0  0  0  0  0  0  0
   38.8700   10.9589  -18.5800 C   0  0  0  0  0  0  0  0  0  0  0  0
   40.1776   11.3186  -18.7075 C   0  0  0  0  0  0  0  0  0  0  0  0
   40.8295   11.9640  -17.6702 C   0  0  0  0  0  0  0  0  0  0  0  0
   40.1943   12.2626  -16.4878 C   0  0  0  0  0  0  0  0  0  0  0  0
   38.8574   11.9038  -16.3314 C   0  0  0  0  0  0  0  0  0  0  0  0
   36.2133   10.5765  -17.5903 H   0  0  0  0  0  0  0  0  0  0  0  0
   41.8358   15.5077  -11.7175 C   0  0  0  0  0  0  0  0  0  0  0  0
   43.9876   16.5016  -10.7759 C   0  0  0  0  0  0  0  0  0  0  0  0
   42.7543   15.7013  -10.5871 C   0  0  0  0  0  0  0  0  0  0  0  0
   43.1561   14.3810   -9.9207 C   0  0  0  0  0  0  0  0  0  0  0  0
   38.6146   14.7598   -8.1667 C   0  0  0  0  0  0  0  0  0  0  0  0
   39.7168   14.7404   -7.2270 C   0  0  0  0  0  0  0  0  0  0  0  0
   40.7347   13.8096   -7.2281 C   0  0  0  0  0  0  0  0  0  0  0  0
   41.7683   13.8763   -6.3001 C   0  0  0  0  0  0  0  0  0  0  0  0
   41.8029   14.8634   -5.3638 C   0  0  0  0  0  0  0  0  0  0  0  0
   40.8060   15.8065   -5.3326 C   0  0  0  0  0  0  0  0  0  0  0  0
   39.7735   15.7445   -6.2551 C   0  0  0  0  0  0  0  0  0  0  0  0
 60 61  1  0  0  0
 61 62  1  0  0  0
 61 59  1  0  0  0
 59 37  1  0  0  0
 37 33  1  0  0  0
 33 34  1  0  0  0
 34 35  2  0  0  0
 34  1  1  0  0  0
  1 63  1  0  0  0
 63 64  1  0  0  0
 64 65  2  0  0  0
 65 66  1  0  0  0
 66 67  2  0  0  0
 67 68  1  0  0  0
 68 69  2  0  0  0
  1  2  1  0  0  0
  2  3  1  0  0  0
  3  4  2  0  0  0
  3  6  1  0  0  0
  6  7  1  0  0  0
  7  8  1  0  0  0
  8  9  2  0  0  0
  8 11  1  0  0  0
 11 12  1  0  0  0
 12 13  1  0  0  0
 13 14  1  0  0  0
 14 15  1  0  0  0
 15 16  1  0  0  0
 16 17  2  0  0  0
 16 18  1  0  0  0
 18 19  1  0  0  0
 18 22  1  0  0  0
 22 23  1  0  0  0
 23 24  2  0  0  0
 24 25  1  0  0  0
 25 26  1  0  0  0
 26 27  2  0  0  0
 27 28  1  0  0  0
 28 29  2  0  0  0
 29 30  1  0  0  0
 30 31  2  0  0  0
 37 38  1  0  0  0
 38 39  2  0  0  0
 38 40  1  0  0  0
 40 42  1  0  0  0
 42 48  1  0  0  0
 48 49  1  0  0  0
 49 50  2  0  0  0
 50 51  1  0  0  0
 51 52  1  0  0  0
 52 53  2  0  0  0
 53 54  1  0  0  0
 54 55  2  0  0  0
 55 56  1  0  0  0
 56 57  2  0  0  0
 42 43  1  0  0  0
 43 44  1  0  0  0
 43 45  2  0  0  0
 69 64  1  0  0  0
 15 11  1  0  0  0
 31 23  1  0  0  0
 57 49  1  0  0  0
 31 26  1  0  0  0
 57 52  1  0  0  0
 33 36  1  0  0  0
  2  5  1  0  0  0
  7 10  1  0  0  0
 19 20  1  0  0  0
 19 21  1  0  0  0
 25 32  1  0  0  0
 40 41  1  0  0  0
 51 58  1  0  0  0
 44 46  1  0  0  0
 44 47  1  0  0  0
M  END
> <minimizedAffinity>
-10.03156

> <CNNscore>
0.1890480816

> <CNNaffinity>
7.0347800255

> <CNN_VS>
1.3299117088

> <CNNaffinity_variance>
0.7826434374

$$$$
[H]c1c([H])c([H])c(C([H])([H])[C@@]([H])(C(=O)N([H])[C@]([H])(C(=O)N([H])[C@]([H])(C(=O)N([H])[H])C([H])([H])c2c([H])n([H])c3c([H])c([H])c([H])c([H])c23)C([H])([H])C([H])(C([H])([H])[H])C([H])([H])[H])N([H])C(=O)C([H])([H])N([H])C(=O)[C@@]2([H])N(C(=O)[C@@]([H])(N([H])[H])C([H])([H])c3c([H])n([H])c4c([H])c([H])c([H])c([H])c34)C([H])([H])C([H])([H])C2([H])[H])c([H])c1[H]


 69 74  0  0  0  0  0  0  0  0999 V2000
   41.7409   14.5798  -13.7528 C   0  0  0  0  0  0  0  0  0  0  0  0
   41.5604   14.7326  -12.3125 N   0  0  0  0  0  0  0  0  0  0  0  0
   40.9397   15.8625  -11.7735 C   0  0  0  0  0  0  0  0  0  0  0  0
   40.5639   16.7244  -12.6995 O   0  0  0  0  0  0  0  0  0  0  0  0
   41.8993   13.9836  -11.6988 H   0  0  0  0  0  0  0  0  0  0  0  0
   40.6297   16.2946  -10.4386 C   0  0  0  0  0  0  0  0  0  0  0  0
   40.7658   15.4432   -9.3214 N   0  0  0  0  0  0  0  0  0  0  0  0
   41.9285   15.4090   -8.5213 C   0  0  0  0  0  0  0  0  0  0  0  0
   42.8753   16.1789   -8.8057 O   0  0  0  0  0  0  0  0  0  0  0  0
   39.9999   14.7997   -9.0404 H   0  0  0  0  0  0  0  0  0  0  0  0
   42.0975   14.4982   -7.3650 C   0  0  0  0  0  0  0  0  0  0  0  0
   42.1235   13.0395   -7.7224 C   0  0  0  0  0  0  0  0  0  0  0  0
   40.7855   12.5343   -7.2902 C   0  0  0  0  0  0  0  0  0  0  0  0
   40.2661   13.5494   -6.2878 C   0  0  0  0  0  0  0  0  0  0  0  0
   41.1336   14.6839   -6.3242 N   0  0  0  0  0  0  0  0  0  0  0  0
   41.0766   15.8240   -5.4964 C   0  0  0  0  0  0  0  0  0  0  0  0
   41.9461   16.7679   -5.7262 O   0  0  0  0  0  0  0  0  0  0  0  0
   40.1534   16.0823   -4.3997 C   0  0  0  0  0  0  0  0  0  0  0  0
   40.4537   17.3584   -3.7202 N   0  0  0  0  0  0  0  0  0  0  0  0
   39.7211   18.0814   -3.9094 H   0  0  0  0  0  0  0  0  0  0  0  0
   40.4109   17.1987   -2.6704 H   0  0  0  0  0  0  0  0  0  0  0  0
   38.7238   16.2015   -4.8324 C   0  0  0  0  0  0  0  0  0  0  0  0
   37.7434   15.5749   -3.9650 C   0  0  0  0  0  0  0  0  0  0  0  0
   37.9434   14.3539   -3.3193 C   0  0  0  0  0  0  0  0  0  0  0  0
   36.8523   14.0225   -2.6243 N   0  0  0  0  0  0  0  0  0  0  0  0
   35.9608   15.0121   -2.8144 C   0  0  0  0  0  0  0  0  0  0  0  0
   34.6979   15.1569   -2.2881 C   0  0  0  0  0  0  0  0  0  0  0  0
   33.9617   16.2722   -2.5839 C   0  0  0  0  0  0  0  0  0  0  0  0
   34.4512   17.2689   -3.4036 C   0  0  0  0  0  0  0  0  0  0  0  0
   35.7130   17.1204   -3.9286 C   0  0  0  0  0  0  0  0  0  0  0  0
   36.4900   15.9889   -3.6436 C   0  0  0  0  0  0  0  0  0  0  0  0
   36.7371   13.1702   -2.0569 H   0  0  0  0  0  0  0  0  0  0  0  0
   39.3846   13.6997  -13.8329 N   0  0  0  0  0  0  0  0  0  0  0  0
   40.5806   14.0994  -14.5074 C   0  0  0  0  0  0  0  0  0  0  0  0
   40.5512   14.0045  -15.7628 O   0  0  0  0  0  0  0  0  0  0  0  0
   39.4216   13.7620  -12.7522 H   0  0  0  0  0  0  0  0  0  0  0  0
   38.1578   13.2412  -14.3503 C   0  0  0  0  0  0  0  0  0  0  0  0
   37.1263   13.5193  -13.2768 C   0  0  0  0  0  0  0  0  0  0  0  0
   37.0871   12.6691  -12.3255 O   0  0  0  0  0  0  0  0  0  0  0  0
   36.2402   14.5832  -13.2468 N   0  0  0  0  0  0  0  0  0  0  0  0
   36.2035   15.3234  -13.9433 H   0  0  0  0  0  0  0  0  0  0  0  0
   35.2720   14.6700  -12.1334 C   0  0  0  0  0  0  0  0  0  0  0  0
   33.9537   14.8080  -12.7199 C   0  0  0  0  0  0  0  0  0  0  0  0
   33.6415   14.5028  -14.0713 N   0  0  0  0  0  0  0  0  0  0  0  0
   32.9900   15.2332  -12.0222 O   0  0  0  0  0  0  0  0  0  0  0  0
   32.6812   14.1802  -14.3224 H   0  0  0  0  0  0  0  0  0  0  0  0
   34.3876   14.6085  -14.7971 H   0  0  0  0  0  0  0  0  0  0  0  0
   35.6956   15.7412  -11.1852 C   0  0  0  0  0  0  0  0  0  0  0  0
   35.9643   15.3107   -9.8008 C   0  0  0  0  0  0  0  0  0  0  0  0
   37.2035   14.8180   -9.3396 C   0  0  0  0  0  0  0  0  0  0  0  0
   37.0732   14.4425   -8.0774 N   0  0  0  0  0  0  0  0  0  0  0  0
   35.8045   14.6545   -7.6498 C   0  0  0  0  0  0  0  0  0  0  0  0
   35.2407   14.4246   -6.4027 C   0  0  0  0  0  0  0  0  0  0  0  0
   33.9310   14.7596   -6.2371 C   0  0  0  0  0  0  0  0  0  0  0  0
   33.2110   15.3063   -7.2861 C   0  0  0  0  0  0  0  0  0  0  0  0
   33.7793   15.5289   -8.5183 C   0  0  0  0  0  0  0  0  0  0  0  0
   35.1170   15.1933   -8.7142 C   0  0  0  0  0  0  0  0  0  0  0  0
   37.8565   14.0346   -7.4935 H   0  0  0  0  0  0  0  0  0  0  0  0
   38.0562   11.7954  -14.7361 C   0  0  0  0  0  0  0  0  0  0  0  0
   38.6492   11.5315  -17.2027 C   0  0  0  0  0  0  0  0  0  0  0  0
   37.6604   11.4296  -16.1032 C   0  0  0  0  0  0  0  0  0  0  0  0
   36.3846   12.1458  -16.5595 C   0  0  0  0  0  0  0  0  0  0  0  0
   42.8893   13.5459  -13.8290 C   0  0  0  0  0  0  0  0  0  0  0  0
   44.1942   14.0682  -13.4792 C   0  0  0  0  0  0  0  0  0  0  0  0
   45.0080   13.5541  -12.4913 C   0  0  0  0  0  0  0  0  0  0  0  0
   46.2585   14.1053  -12.2335 C   0  0  0  0  0  0  0  0  0  0  0  0
   46.7136   15.1690  -12.9502 C   0  0  0  0  0  0  0  0  0  0  0  0
   45.9302   15.7070  -13.9407 C   0  0  0  0  0  0  0  0  0  0  0  0
   44.6829   15.1617  -14.2014 C   0  0  0  0  0  0  0  0  0  0  0  0
 60 61  1  0  0  0
 61 62  1  0  0  0
 61 59  1  0  0  0
 59 37  1  0  0  0
 37 33  1  0  0  0
 33 34  1  0  0  0
 34 35  2  0  0  0
 34  1  1  0  0  0
  1 63  1  0  0  0
 63 64  1  0  0  0
 64 65  2  0  0  0
 65 66  1  0  0  0
 66 67  2  0  0  0
 67 68  1  0  0  0
 68 69  2  0  0  0
  1  2  1  0  0  0
  2  3  1  0  0  0
  3  4  2  0  0  0
  3  6  1  0  0  0
  6  7  1  0  0  0
  7  8  1  0  0  0
  8  9  2  0  0  0
  8 11  1  0  0  0
 11 12  1  0  0  0
 12 13  1  0  0  0
 13 14  1  0  0  0
 14 15  1  0  0  0
 15 16  1  0  0  0
 16 17  2  0  0  0
 16 18  1  0  0  0
 18 19  1  0  0  0
 18 22  1  0  0  0
 22 23  1  0  0  0
 23 24  2  0  0  0
 24 25  1  0  0  0
 25 26  1  0  0  0
 26 27  2  0  0  0
 27 28  1  0  0  0
 28 29  2  0  0  0
 29 30  1  0  0  0
 30 31  2  0  0  0
 37 38  1  0  0  0
 38 39  2  0  0  0
 38 40  1  0  0  0
 40 42  1  0  0  0
 42 48  1  0  0  0
 48 49  1  0  0  0
 49 50  2  0  0  0
 50 51  1  0  0  0
 51 52  1  0  0  0
 52 53  2  0  0  0
 53 54  1  0  0  0
 54 55  2  0  0  0
 55 56  1  0  0  0
 56 57  2  0  0  0
 42 43  1  0  0  0
 43 44  1  0  0  0
 43 45  2  0  0  0
 69 64  1  0  0  0
 15 11  1  0  0  0
 31 23  1  0  0  0
 57 49  1  0  0  0
 31 26  1  0  0  0
 57 52  1  0  0  0
 33 36  1  0  0  0
  2  5  1  0  0  0
  7 10  1  0  0  0
 19 20  1  0  0  0
 19 21  1  0  0  0
 25 32  1  0  0  0
 40 41  1  0  0  0
 51 58  1  0  0  0
 44 46  1  0  0  0
 44 47  1  0  0  0
M  END
> <minimizedAffinity>
-8.78968

> <CNNscore>
0.1792550832

> <CNNaffinity>
6.9080924988

> <CNN_VS>
1.2383106947

> <CNNaffinity_variance>
1.7995300293

$$$$
[H]c1c([H])c([H])c2c(c1[H])c1c3c(c4c5c([H])c([H])c([H])c([H])c5n5c4c1n2[C@@]1([H])O[C@]5(C([H])([H])[H])[C@]([H])(OC([H])([H])[H])[C@@]([H])(N([H])C([H])([H])[H])C1([H])[H])C([H])([H])N([H])C3=O


 37 44  0  0  0  0  0  0  0  0999 V2000
   34.1182   14.7955  -12.2740 C   0  0  0  0  0  0  0  0  0  0  0  0
   34.2746   14.0510  -13.5519 C   0  0  0  0  0  0  0  0  0  0  0  0
   35.1784   12.8742  -13.1976 C   0  0  0  0  0  0  0  0  0  0  0  0
   35.8778   13.0253  -12.0654 O   0  0  0  0  0  0  0  0  0  0  0  0
   36.4297   14.2691  -11.7533 C   0  0  0  0  0  0  0  0  0  0  0  0
   36.6289   14.1440  -10.2363 C   0  0  0  0  0  0  0  0  0  0  0  0
   35.5051   15.4100  -12.0153 C   0  0  0  0  0  0  0  0  0  0  0  0
   37.6879   14.3481  -12.4804 N   0  0  0  0  0  0  0  0  0  0  0  0
   38.7923   15.0339  -12.1289 C   0  0  0  0  0  0  0  0  0  0  0  0
   39.0769   15.8428  -11.0767 C   0  0  0  0  0  0  0  0  0  0  0  0
   40.3118   16.4767  -10.8993 C   0  0  0  0  0  0  0  0  0  0  0  0
   41.3059   16.2928  -11.8170 C   0  0  0  0  0  0  0  0  0  0  0  0
   41.0478   15.4750  -12.9014 C   0  0  0  0  0  0  0  0  0  0  0  0
   39.8147   14.8607  -13.0494 C   0  0  0  0  0  0  0  0  0  0  0  0
   39.3252   14.0368  -14.0138 C   0  0  0  0  0  0  0  0  0  0  0  0
   39.8762   13.5202  -15.1827 C   0  0  0  0  0  0  0  0  0  0  0  0
   41.2434   13.7317  -15.7069 C   0  0  0  0  0  0  0  0  0  0  0  0
   41.2570   13.0013  -16.9446 N   0  0  0  0  0  0  0  0  0  0  0  0
   39.9803   12.3522  -17.1240 C   0  0  0  0  0  0  0  0  0  0  0  0
   39.7896   11.6457  -18.1263 O   0  0  0  0  0  0  0  0  0  0  0  0
   39.1450   12.6958  -16.0117 C   0  0  0  0  0  0  0  0  0  0  0  0
   37.8528   12.3907  -15.6596 C   0  0  0  0  0  0  0  0  0  0  0  0
   36.8705   11.6388  -16.2228 C   0  0  0  0  0  0  0  0  0  0  0  0
   36.7807   10.8793  -17.3613 C   0  0  0  0  0  0  0  0  0  0  0  0
   35.5808   10.2277  -17.6247 C   0  0  0  0  0  0  0  0  0  0  0  0
   34.5002   10.3307  -16.7764 C   0  0  0  0  0  0  0  0  0  0  0  0
   34.5999   11.0876  -15.6480 C   0  0  0  0  0  0  0  0  0  0  0  0
   35.7768   11.7437  -15.3626 C   0  0  0  0  0  0  0  0  0  0  0  0
   36.0581   12.5160  -14.3197 N   0  0  0  0  0  0  0  0  0  0  0  0
   37.3217   12.9179  -14.4858 C   0  0  0  0  0  0  0  0  0  0  0  0
   38.0543   13.7415  -13.6582 C   0  0  0  0  0  0  0  0  0  0  0  0
   42.0836   12.9728  -17.5850 H   0  0  0  0  0  0  0  0  0  0  0  0
   31.8957   15.1104  -11.6163 C   0  0  0  0  0  0  0  0  0  0  0  0
   33.0669   15.7376  -12.1903 N   0  0  0  0  0  0  0  0  0  0  0  0
   33.3560   16.4910  -11.5285 H   0  0  0  0  0  0  0  0  0  0  0  0
   35.3257   16.3113  -11.0106 O   0  0  0  0  0  0  0  0  0  0  0  0
   36.2253   17.3621  -11.0968 C   0  0  0  0  0  0  0  0  0  0  0  0
 33 34  1  0  0  0
 34  1  1  0  0  0
  1  2  1  0  0  0
  2  3  1  0  0  0
  3  4  1  0  0  0
  4  5  1  0  0  0
  5  6  1  0  0  0
  5  7  1  0  0  0
  7 36  1  0  0  0
 36 37  1  0  0  0
  5  8  1  0  0  0
  8  9  1  0  0  0
  9 10  2  0  0  0
 10 11  1  0  0  0
 11 12  2  0  0  0
 12 13  1  0  0  0
 13 14  2  0  0  0
 14 15  1  0  0  0
 15 16  2  0  0  0
 16 17  1  0  0  0
 17 18  1  0  0  0
 18 19  1  0  0  0
 19 20  2  0  0  0
 19 21  1  0  0  0
 21 22  2  0  0  0
 22 23  1  0  0  0
 23 24  2  0  0  0
 24 25  1  0  0  0
 25 26  2  0  0  0
 26 27  1  0  0  0
 27 28  2  0  0  0
 28 29  1  0  0  0
 29 30  1  0  0  0
 30 31  2  0  0  0
  7  1  1  0  0  0
 31  8  1  0  0  0
 29  3  1  0  0  0
 14  9  1  0  0  0
 31 15  1  0  0  0
 21 16  1  0  0  0
 30 22  1  0  0  0
 28 23  1  0  0  0
 34 35  1  0  0  0
 18 32  1  0  0  0
M  END
> <minimizedAffinity>
-10.94770

> <CNNscore>
0.6020333171

> <CNNaffinity>
7.2201790810

> <CNN_VS>
4.3467884064

> <CNNaffinity_variance>
0.1542605758

$$$$
[H]c1c([H])c([H])c2c(c1[H])c1c3c(c4c5c([H])c([H])c([H])c([H])c5n5c4c1n2[C@@]1([H])O[C@]5(C([H])([H])[H])[C@]([H])(OC([H])([H])[H])[C@@]([H])(N([H])C([H])([H])[H])C1([H])[H])C([H])([H])N([H])C3=O


 37 44  0  0  0  0  0  0  0  0999 V2000
   40.3996   13.4805  -15.8963 C   0  0  0  0  0  0  0  0  0  0  0  0
   39.9884   14.4664  -14.8616 C   0  0  0  0  0  0  0  0  0  0  0  0
   39.5041   13.6122  -13.6942 C   0  0  0  0  0  0  0  0  0  0  0  0
   39.1959   12.3485  -14.0139 O   0  0  0  0  0  0  0  0  0  0  0  0
   38.5383   12.0792  -15.2157 C   0  0  0  0  0  0  0  0  0  0  0  0
   38.8728   10.5952  -15.4220 C   0  0  0  0  0  0  0  0  0  0  0  0
   39.0791   12.8501  -16.3725 C   0  0  0  0  0  0  0  0  0  0  0  0
   37.1231   12.3060  -14.9629 N   0  0  0  0  0  0  0  0  0  0  0  0
   36.0796   11.7048  -15.5653 C   0  0  0  0  0  0  0  0  0  0  0  0
   35.9969   10.7780  -16.5535 C   0  0  0  0  0  0  0  0  0  0  0  0
   34.7865   10.2803  -17.0490 C   0  0  0  0  0  0  0  0  0  0  0  0
   33.6061   10.7315  -16.5320 C   0  0  0  0  0  0  0  0  0  0  0  0
   33.6554   11.6767  -15.5244 C   0  0  0  0  0  0  0  0  0  0  0  0
   34.8699   12.1502  -15.0545 C   0  0  0  0  0  0  0  0  0  0  0  0
   35.1735   13.0678  -14.0983 C   0  0  0  0  0  0  0  0  0  0  0  0
   34.3874   13.8512  -13.2585 C   0  0  0  0  0  0  0  0  0  0  0  0
   32.9110   13.8758  -13.1668 C   0  0  0  0  0  0  0  0  0  0  0  0
   32.6420   14.8788  -12.1733 N   0  0  0  0  0  0  0  0  0  0  0  0
   33.8935   15.3908  -11.6681 C   0  0  0  0  0  0  0  0  0  0  0  0
   33.8851   16.2557  -10.7783 O   0  0  0  0  0  0  0  0  0  0  0  0
   34.9586   14.7316  -12.3640 C   0  0  0  0  0  0  0  0  0  0  0  0
   36.3284   14.8215  -12.3159 C   0  0  0  0  0  0  0  0  0  0  0  0
   37.2034   15.5614  -11.5850 C   0  0  0  0  0  0  0  0  0  0  0  0
   37.0682   16.5057  -10.5995 C   0  0  0  0  0  0  0  0  0  0  0  0
   38.2218   17.0666  -10.0627 C   0  0  0  0  0  0  0  0  0  0  0  0
   39.4758   16.6962  -10.4965 C   0  0  0  0  0  0  0  0  0  0  0  0
   39.5992   15.7571  -11.4758 C   0  0  0  0  0  0  0  0  0  0  0  0
   38.4730   15.1852  -12.0250 C   0  0  0  0  0  0  0  0  0  0  0  0
   38.3978   14.2616  -12.9762 N   0  0  0  0  0  0  0  0  0  0  0  0
   37.0956   14.0283  -13.1645 C   0  0  0  0  0  0  0  0  0  0  0  0
   36.5228   13.1485  -14.0577 C   0  0  0  0  0  0  0  0  0  0  0  0
   31.6755   15.1630  -11.8919 H   0  0  0  0  0  0  0  0  0  0  0  0
   42.5485   13.4142  -16.8177 C   0  0  0  0  0  0  0  0  0  0  0  0
   41.2098   13.9457  -16.9579 N   0  0  0  0  0  0  0  0  0  0  0  0
   40.8290   13.5625  -17.8508 H   0  0  0  0  0  0  0  0  0  0  0  0
   39.3912   12.1500  -17.4978 O   0  0  0  0  0  0  0  0  0  0  0  0
   38.3049   12.0389  -18.3512 C   0  0  0  0  0  0  0  0  0  0  0  0
 33 34  1  0  0  0
 34  1  1  0  0  0
  1  2  1  0  0  0
  2  3  1  0  0  0
  3  4  1  0  0  0
  4  5  1  0  0  0
  5  6  1  0  0  0
  5  7  1  0  0  0
  7 36  1  0  0  0
 36 37  1  0  0  0
  5  8  1  0  0  0
  8  9  1  0  0  0
  9 10  2  0  0  0
 10 11  1  0  0  0
 11 12  2  0  0  0
 12 13  1  0  0  0
 13 14  2  0  0  0
 14 15  1  0  0  0
 15 16  2  0  0  0
 16 17  1  0  0  0
 17 18  1  0  0  0
 18 19  1  0  0  0
 19 20  2  0  0  0
 19 21  1  0  0  0
 21 22  2  0  0  0
 22 23  1  0  0  0
 23 24  2  0  0  0
 24 25  1  0  0  0
 25 26  2  0  0  0
 26 27  1  0  0  0
 27 28  2  0  0  0
 28 29  1  0  0  0
 29 30  1  0  0  0
 30 31  2  0  0  0
  7  1  1  0  0  0
 31  8  1  0  0  0
 29  3  1  0  0  0
 14  9  1  0  0  0
 31 15  1  0  0  0
 21 16  1  0  0  0
 30 22  1  0  0  0
 28 23  1  0  0  0
 34 35  1  0  0  0
 18 32  1  0  0  0
M  END
> <minimizedAffinity>
-7.00723

> <CNNscore>
0.2499268651

> <CNNaffinity>
6.8382310867

> <CNN_VS>
1.7090576887

> <CNNaffinity_variance>
0.0606284216

$$$$
[H]c1c([H])c([H])c2c(c1[H])c1c3c(c4c5c([H])c([H])c([H])c([H])c5n5c4c1n2[C@@]1([H])O[C@]5(C([H])([H])[H])[C@]([H])(OC([H])([H])[H])[C@@]([H])(N([H])C([H])([H])[H])C1([H])[H])C([H])([H])N([H])C3=O


 37 44  0  0  0  0  0  0  0  0999 V2000
   36.7241   14.3894  -11.5962 C   0  0  0  0  0  0  0  0  0  0  0  0
   38.1936   14.5683  -11.4528 C   0  0  0  0  0  0  0  0  0  0  0  0
   38.5951   15.4002  -12.6669 C   0  0  0  0  0  0  0  0  0  0  0  0
   37.7069   15.3943  -13.6694 O   0  0  0  0  0  0  0  0  0  0  0  0
   37.0398   14.2122  -13.9963 C   0  0  0  0  0  0  0  0  0  0  0  0
   35.8129   14.7502  -14.7459 C   0  0  0  0  0  0  0  0  0  0  0  0
   36.5677   13.4494  -12.8045 C   0  0  0  0  0  0  0  0  0  0  0  0
   37.9414   13.4634  -14.8591 N   0  0  0  0  0  0  0  0  0  0  0  0
   37.6067   12.5904  -15.8282 C   0  0  0  0  0  0  0  0  0  0  0  0
   36.4123   12.1264  -16.2761 C   0  0  0  0  0  0  0  0  0  0  0  0
   36.2827   11.1960  -17.3132 C   0  0  0  0  0  0  0  0  0  0  0  0
   37.3993   10.7078  -17.9289 C   0  0  0  0  0  0  0  0  0  0  0  0
   38.6320   11.1595  -17.4957 C   0  0  0  0  0  0  0  0  0  0  0  0
   38.7280   12.0819  -16.4661 C   0  0  0  0  0  0  0  0  0  0  0  0
   39.8032   12.6596  -15.8673 C   0  0  0  0  0  0  0  0  0  0  0  0
   41.1748   12.5360  -16.0682 C   0  0  0  0  0  0  0  0  0  0  0  0
   41.8688   11.6994  -17.0717 C   0  0  0  0  0  0  0  0  0  0  0  0
   43.2632   11.9291  -16.8100 N   0  0  0  0  0  0  0  0  0  0  0  0
   43.3910   12.8869  -15.7377 C   0  0  0  0  0  0  0  0  0  0  0  0
   44.5207   13.2445  -15.3694 O   0  0  0  0  0  0  0  0  0  0  0  0
   42.0744   13.2433  -15.2987 C   0  0  0  0  0  0  0  0  0  0  0  0
   41.5882   14.0793  -14.3232 C   0  0  0  0  0  0  0  0  0  0  0  0
   42.1651   14.8980  -13.4044 C   0  0  0  0  0  0  0  0  0  0  0  0
   43.4605   15.2221  -13.0910 C   0  0  0  0  0  0  0  0  0  0  0  0
   43.6810   16.1276  -12.0589 C   0  0  0  0  0  0  0  0  0  0  0  0
   42.6387   16.6943  -11.3586 C   0  0  0  0  0  0  0  0  0  0  0  0
   41.3557   16.3658  -11.6780 C   0  0  0  0  0  0  0  0  0  0  0  0
   41.1086   15.4716  -12.6960 C   0  0  0  0  0  0  0  0  0  0  0  0
   39.9369   15.0380  -13.1459 N   0  0  0  0  0  0  0  0  0  0  0  0
   40.2126   14.1882  -14.1397 C   0  0  0  0  0  0  0  0  0  0  0  0
   39.3149   13.4806  -14.9101 C   0  0  0  0  0  0  0  0  0  0  0  0
   44.0318   11.4543  -17.3373 H   0  0  0  0  0  0  0  0  0  0  0  0
   36.4303   14.7113   -9.2981 C   0  0  0  0  0  0  0  0  0  0  0  0
   36.0034   13.9589  -10.4583 N   0  0  0  0  0  0  0  0  0  0  0  0
   34.9953   14.1852  -10.6058 H   0  0  0  0  0  0  0  0  0  0  0  0
   35.2656   13.0514  -12.7939 O   0  0  0  0  0  0  0  0  0  0  0  0
   35.1352   11.7130  -13.1293 C   0  0  0  0  0  0  0  0  0  0  0  0
 33 34  1  0  0  0
 34  1  1  0  0  0
  1  2  1  0  0  0
  2  3  1  0  0  0
  3  4  1  0  0  0
  4  5  1  0  0  0
  5  6  1  0  0  0
  5  7  1  0  0  0
  7 36  1  0  0  0
 36 37  1  0  0  0
  5  8  1  0  0  0
  8  9  1  0  0  0
  9 10  2  0  0  0
 10 11  1  0  0  0
 11 12  2  0  0  0
 12 13  1  0  0  0
 13 14  2  0  0  0
 14 15  1  0  0  0
 15 16  2  0  0  0
 16 17  1  0  0  0
 17 18  1  0  0  0
 18 19  1  0  0  0
 19 20  2  0  0  0
 19 21  1  0  0  0
 21 22  2  0  0  0
 22 23  1  0  0  0
 23 24  2  0  0  0
 24 25  1  0  0  0
 25 26  2  0  0  0
 26 27  1  0  0  0
 27 28  2  0  0  0
 28 29  1  0  0  0
 29 30  1  0  0  0
 30 31  2  0  0  0
  7  1  1  0  0  0
 31  8  1  0  0  0
 29  3  1  0  0  0
 14  9  1  0  0  0
 31 15  1  0  0  0
 21 16  1  0  0  0
 30 22  1  0  0  0
 28 23  1  0  0  0
 34 35  1  0  0  0
 18 32  1  0  0  0
M  END
> <minimizedAffinity>
-10.79040

> <CNNscore>
0.2034609020

> <CNNaffinity>
6.5413055420

> <CNN_VS>
1.3308999538

> <CNNaffinity_variance>
0.1363087595

$$$$
[H]c1c([H])c([H])c2c(c1[H])c1c3c(c4c5c([H])c([H])c([H])c([H])c5n5c4c1n2[C@@]1([H])O[C@]5(C([H])([H])[H])[C@]([H])(OC([H])([H])[H])[C@@]([H])(N([H])C([H])([H])[H])C1([H])[H])C([H])([H])N([H])C3=O


 37 44  0  0  0  0  0  0  0  0999 V2000
   43.2822   14.0892  -13.0387 C   0  0  0  0  0  0  0  0  0  0  0  0
   42.4603   13.1990  -13.9013 C   0  0  0  0  0  0  0  0  0  0  0  0
   41.5620   14.1520  -14.6835 C   0  0  0  0  0  0  0  0  0  0  0  0
   41.4418   15.3746  -14.1498 O   0  0  0  0  0  0  0  0  0  0  0  0
   41.3396   15.5184  -12.7649 C   0  0  0  0  0  0  0  0  0  0  0  0
   41.7648   16.9814  -12.5765 C   0  0  0  0  0  0  0  0  0  0  0  0
   42.2872   14.6503  -12.0076 C   0  0  0  0  0  0  0  0  0  0  0  0
   39.9397   15.2936  -12.4364 N   0  0  0  0  0  0  0  0  0  0  0  0
   39.2483   15.8183  -11.4068 C   0  0  0  0  0  0  0  0  0  0  0  0
   39.5990   16.6459  -10.3898 C   0  0  0  0  0  0  0  0  0  0  0  0
   38.7092   17.0749   -9.3987 C   0  0  0  0  0  0  0  0  0  0  0  0
   37.4101   16.6557   -9.4269 C   0  0  0  0  0  0  0  0  0  0  0  0
   37.0206   15.8109  -10.4496 C   0  0  0  0  0  0  0  0  0  0  0  0
   37.9251   15.4037  -11.4170 C   0  0  0  0  0  0  0  0  0  0  0  0
   37.7892   14.5857  -12.4945 C   0  0  0  0  0  0  0  0  0  0  0  0
   36.7099   13.8727  -13.0080 C   0  0  0  0  0  0  0  0  0  0  0  0
   35.3249   13.8331  -12.4896 C   0  0  0  0  0  0  0  0  0  0  0  0
   34.6493   12.9244  -13.3746 N   0  0  0  0  0  0  0  0  0  0  0  0
   35.5723   12.4828  -14.3927 C   0  0  0  0  0  0  0  0  0  0  0  0
   35.1801   11.7059  -15.2774 O   0  0  0  0  0  0  0  0  0  0  0  0
   36.8443   13.0902  -14.1355 C   0  0  0  0  0  0  0  0  0  0  0  0
   38.0722   13.0274  -14.7479 C   0  0  0  0  0  0  0  0  0  0  0  0
   38.5540   12.3742  -15.8381 C   0  0  0  0  0  0  0  0  0  0  0  0
   38.0051   11.5253  -16.7650 C   0  0  0  0  0  0  0  0  0  0  0  0
   38.8247   11.0364  -17.7764 C   0  0  0  0  0  0  0  0  0  0  0  0
   40.1551   11.3844  -17.8613 C   0  0  0  0  0  0  0  0  0  0  0  0
   40.6905   12.2284  -16.9355 C   0  0  0  0  0  0  0  0  0  0  0  0
   39.9012   12.7275  -15.9231 C   0  0  0  0  0  0  0  0  0  0  0  0
   40.2436   13.5556  -14.9430 N   0  0  0  0  0  0  0  0  0  0  0  0
   39.1380   13.7490  -14.2177 C   0  0  0  0  0  0  0  0  0  0  0  0
   39.0018   14.5310  -13.0908 C   0  0  0  0  0  0  0  0  0  0  0  0
   33.6456   12.6525  -13.2610 H   0  0  0  0  0  0  0  0  0  0  0  0
   45.3588   13.1099  -13.4859 C   0  0  0  0  0  0  0  0  0  0  0  0
   44.4440   13.5387  -12.4497 N   0  0  0  0  0  0  0  0  0  0  0  0
   44.9293   14.2943  -11.9178 H   0  0  0  0  0  0  0  0  0  0  0  0
   43.0488   15.2457  -11.0487 O   0  0  0  0  0  0  0  0  0  0  0  0
   42.7085   14.8089   -9.7782 C   0  0  0  0  0  0  0  0  0  0  0  0
 33 34  1  0  0  0
 34  1  1  0  0  0
  1  2  1  0  0  0
  2  3  1  0  0  0
  3  4  1  0  0  0
  4  5  1  0  0  0
  5  6  1  0  0  0
  5  7  1  0  0  0
  7 36  1  0  0  0
 36 37  1  0  0  0
  5  8  1  0  0  0
  8  9  1  0  0  0
  9 10  2  0  0  0
 10 11  1  0  0  0
 11 12  2  0  0  0
 12 13  1  0  0  0
 13 14  2  0  0  0
 14 15  1  0  0  0
 15 16  2  0  0  0
 16 17  1  0  0  0
 17 18  1  0  0  0
 18 19  1  0  0  0
 19 20  2  0  0  0
 19 21  1  0  0  0
 21 22  2  0  0  0
 22 23  1  0  0  0
 23 24  2  0  0  0
 24 25  1  0  0  0
 25 26  2  0  0  0
 26 27  1  0  0  0
 27 28  2  0  0  0
 28 29  1  0  0  0
 29 30  1  0  0  0
 30 31  2  0  0  0
  7  1  1  0  0  0
 31  8  1  0  0  0
 29  3  1  0  0  0
 14  9  1  0  0  0
 31 15  1  0  0  0
 21 16  1  0  0  0
 30 22  1  0  0  0
 28 23  1  0  0  0
 34 35  1  0  0  0
 18 32  1  0  0  0
M  END
> <minimizedAffinity>
-9.81248

> <CNNscore>
0.1405774057

> <CNNaffinity>
6.3086752892

> <CNN_VS>
0.8868572116

> <CNNaffinity_variance>
0.2938988805

$$$$
[H]c1c([H])c([H])c2c(c1[H])c1c3c(c4c5c([H])c([H])c([H])c([H])c5n5c4c1n2[C@@]1([H])O[C@]5(C([H])([H])[H])[C@]([H])(OC([H])([H])[H])[C@@]([H])(N([H])C([H])([H])[H])C1([H])[H])C([H])([H])N([H])C3=O


 37 44  0  0  0  0  0  0  0  0999 V2000
   38.0993   14.5759  -11.5648 C   0  0  0  0  0  0  0  0  0  0  0  0
   39.5807   14.6915  -11.5018 C   0  0  0  0  0  0  0  0  0  0  0  0
   39.9522   15.4944  -12.7445 C   0  0  0  0  0  0  0  0  0  0  0  0
   39.0121   15.5188  -13.6982 O   0  0  0  0  0  0  0  0  0  0  0  0
   38.2778   14.3643  -13.9762 C   0  0  0  0  0  0  0  0  0  0  0  0
   37.0369   14.9490  -14.6653 C   0  0  0  0  0  0  0  0  0  0  0  0
   37.8378   13.6333  -12.7527 C   0  0  0  0  0  0  0  0  0  0  0  0
   39.0986   13.5693  -14.8775 N   0  0  0  0  0  0  0  0  0  0  0  0
   38.6749   12.7033  -15.8177 C   0  0  0  0  0  0  0  0  0  0  0  0
   37.4393   12.2883  -16.1963 C   0  0  0  0  0  0  0  0  0  0  0  0
   37.2141   11.3555  -17.2148 C   0  0  0  0  0  0  0  0  0  0  0  0
   38.2738   10.8135  -17.8836 C   0  0  0  0  0  0  0  0  0  0  0  0
   39.5464   11.2146  -17.5216 C   0  0  0  0  0  0  0  0  0  0  0  0
   39.7373   12.1407  -16.5088 C   0  0  0  0  0  0  0  0  0  0  0  0
   40.8671   12.6759  -15.9744 C   0  0  0  0  0  0  0  0  0  0  0  0
   42.2193   12.4906  -16.2466 C   0  0  0  0  0  0  0  0  0  0  0  0
   42.8216   11.6157  -17.2764 C   0  0  0  0  0  0  0  0  0  0  0  0
   44.2367   11.7863  -17.0917 N   0  0  0  0  0  0  0  0  0  0  0  0
   44.4631   12.7469  -16.0383 C   0  0  0  0  0  0  0  0  0  0  0  0
   45.6254   13.0577  -15.7346 O   0  0  0  0  0  0  0  0  0  0  0  0
   43.1887   13.1644  -15.5339 C   0  0  0  0  0  0  0  0  0  0  0  0
   42.7922   14.0293  -14.5431 C   0  0  0  0  0  0  0  0  0  0  0  0
   43.4524   14.8299  -13.6654 C   0  0  0  0  0  0  0  0  0  0  0  0
   44.7755   15.0996  -13.4249 C   0  0  0  0  0  0  0  0  0  0  0  0
   45.0901   16.0035  -12.4160 C   0  0  0  0  0  0  0  0  0  0  0  0
   44.1124   16.6214  -11.6675 C   0  0  0  0  0  0  0  0  0  0  0  0
   42.8010   16.3466  -11.9146 C   0  0  0  0  0  0  0  0  0  0  0  0
   42.4612   15.4553  -12.9081 C   0  0  0  0  0  0  0  0  0  0  0  0
   41.2494   15.0696  -13.2903 N   0  0  0  0  0  0  0  0  0  0  0  0
   41.4344   14.2000  -14.2879 C   0  0  0  0  0  0  0  0  0  0  0  0
   40.4669   13.5258  -15.0016 C   0  0  0  0  0  0  0  0  0  0  0  0
   44.9546   11.2738  -17.6539 H   0  0  0  0  0  0  0  0  0  0  0  0
   37.6422   15.1745   -9.3503 C   0  0  0  0  0  0  0  0  0  0  0  0
   37.4226   14.1872  -10.3855 N   0  0  0  0  0  0  0  0  0  0  0  0
   36.3978   14.1854  -10.5830 H   0  0  0  0  0  0  0  0  0  0  0  0
   36.5221   13.2928  -12.6685 O   0  0  0  0  0  0  0  0  0  0  0  0
   36.3218   11.9477  -12.9357 C   0  0  0  0  0  0  0  0  0  0  0  0
 33 34  1  0  0  0
 34  1  1  0  0  0
  1  2  1  0  0  0
  2  3  1  0  0  0
  3  4  1  0  0  0
  4  5  1  0  0  0
  5  6  1  0  0  0
  5  7  1  0  0  0
  7 36  1  0  0  0
 36 37  1  0  0  0
  5  8  1  0  0  0
  8  9  1  0  0  0
  9 10  2  0  0  0
 10 11  1  0  0  0
 11 12  2  0  0  0
 12 13  1  0  0  0
 13 14  2  0  0  0
 14 15  1  0  0  0
 15 16  2  0  0  0
 16 17  1  0  0  0
 17 18  1  0  0  0
 18 19  1  0  0  0
 19 20  2  0  0  0
 19 21  1  0  0  0
 21 22  2  0  0  0
 22 23  1  0  0  0
 23 24  2  0  0  0
 24 25  1  0  0  0
 25 26  2  0  0  0
 26 27  1  0  0  0
 27 28  2  0  0  0
 28 29  1  0  0  0
 29 30  1  0  0  0
 30 31  2  0  0  0
  7  1  1  0  0  0
 31  8  1  0  0  0
 29  3  1  0  0  0
 14  9  1  0  0  0
 31 15  1  0  0  0
 21 16  1  0  0  0
 30 22  1  0  0  0
 28 23  1  0  0  0
 34 35  1  0  0  0
 18 32  1  0  0  0
M  END
> <minimizedAffinity>
-8.57666

> <CNNscore>
0.1012676358

> <CNNaffinity>
6.0313558578

> <CNN_VS>
0.6107811332

> <CNNaffinity_variance>
0.4551493526

$$$$
[H]c1c([H])c([H])c2c(c1[H])c1c3c(c4c5c([H])c([H])c([H])c([H])c5n5c4c1n2[C@@]1([H])O[C@]5(C([H])([H])[H])[C@]([H])(OC([H])([H])[H])[C@@]([H])(N([H])C([H])([H])[H])C1([H])[H])C([H])([H])N([H])C3=O


 37 44  0  0  0  0  0  0  0  0999 V2000
   43.4070   12.4961   -5.8492 C   0  0  0  0  0  0  0  0  0  0  0  0
   44.6182   12.6068   -6.7052 C   0  0  0  0  0  0  0  0  0  0  0  0
   44.9334   14.0992   -6.7259 C   0  0  0  0  0  0  0  0  0  0  0  0
   43.9143   14.8927   -6.3715 O   0  0  0  0  0  0  0  0  0  0  0  0
   42.6196   14.5878   -6.7958 C   0  0  0  0  0  0  0  0  0  0  0  0
   41.7727   15.3604   -5.7747 C   0  0  0  0  0  0  0  0  0  0  0  0
   42.2859   13.1382   -6.6852 C   0  0  0  0  0  0  0  0  0  0  0  0
   42.4989   15.1217   -8.1443 N   0  0  0  0  0  0  0  0  0  0  0  0
   41.3800   15.5612   -8.7512 C   0  0  0  0  0  0  0  0  0  0  0  0
   40.0832   15.6250   -8.3555 C   0  0  0  0  0  0  0  0  0  0  0  0
   39.0517   16.1218   -9.1601 C   0  0  0  0  0  0  0  0  0  0  0  0
   39.3313   16.5745  -10.4175 C   0  0  0  0  0  0  0  0  0  0  0  0
   40.6429   16.5224  -10.8516 C   0  0  0  0  0  0  0  0  0  0  0  0
   41.6427   16.0251  -10.0313 C   0  0  0  0  0  0  0  0  0  0  0  0
   42.9781   15.8644  -10.2294 C   0  0  0  0  0  0  0  0  0  0  0  0
   43.8114   16.1370  -11.3102 C   0  0  0  0  0  0  0  0  0  0  0  0
   43.4372   16.7347  -12.6108 C   0  0  0  0  0  0  0  0  0  0  0  0
   44.6693   16.7544  -13.3505 N   0  0  0  0  0  0  0  0  0  0  0  0
   45.7288   16.2382  -12.5172 C   0  0  0  0  0  0  0  0  0  0  0  0
   46.8869   16.1910  -12.9607 O   0  0  0  0  0  0  0  0  0  0  0  0
   45.1618   15.8628  -11.2560 C   0  0  0  0  0  0  0  0  0  0  0  0
   45.6737   15.3123  -10.1064 C   0  0  0  0  0  0  0  0  0  0  0  0
   46.9150   14.9197   -9.7161 C   0  0  0  0  0  0  0  0  0  0  0  0
   48.1511   14.9245  -10.3104 C   0  0  0  0  0  0  0  0  0  0  0  0
   49.2312   14.4309   -9.5868 C   0  0  0  0  0  0  0  0  0  0  0  0
   49.0828   13.9459   -8.3059 C   0  0  0  0  0  0  0  0  0  0  0  0
   47.8506   13.9457   -7.7246 C   0  0  0  0  0  0  0  0  0  0  0  0
   46.7635   14.4289   -8.4187 C   0  0  0  0  0  0  0  0  0  0  0  0
   45.5000   14.5104   -8.0186 N   0  0  0  0  0  0  0  0  0  0  0  0
   44.8224   15.0483   -9.0371 C   0  0  0  0  0  0  0  0  0  0  0  0
   43.4728   15.3234   -9.0930 C   0  0  0  0  0  0  0  0  0  0  0  0
   44.7412   17.0966  -14.3364 H   0  0  0  0  0  0  0  0  0  0  0  0
   44.2599   10.3950   -5.2756 C   0  0  0  0  0  0  0  0  0  0  0  0
   43.0698   11.2146   -5.3554 N   0  0  0  0  0  0  0  0  0  0  0  0
   42.7171   11.3237   -4.3793 H   0  0  0  0  0  0  0  0  0  0  0  0
   41.1244   12.8115   -6.0542 O   0  0  0  0  0  0  0  0  0  0  0  0
   40.1682   12.3503   -6.9452 C   0  0  0  0  0  0  0  0  0  0  0  0
 33 34  1  0  0  0
 34  1  1  0  0  0
  1  2  1  0  0  0
  2  3  1  0  0  0
  3  4  1  0  0  0
  4  5  1  0  0  0
  5  6  1  0  0  0
  5  7  1  0  0  0
  7 36  1  0  0  0
 36 37  1  0  0  0
  5  8  1  0  0  0
  8  9  1  0  0  0
  9 10  2  0  0  0
 10 11  1  0  0  0
 11 12  2  0  0  0
 12 13  1  0  0  0
 13 14  2  0  0  0
 14 15  1  0  0  0
 15 16  2  0  0  0
 16 17  1  0  0  0
 17 18  1  0  0  0
 18 19  1  0  0  0
 19 20  2  0  0  0
 19 21  1  0  0  0
 21 22  2  0  0  0
 22 23  1  0  0  0
 23 24  2  0  0  0
 24 25  1  0  0  0
 25 26  2  0  0  0
 26 27  1  0  0  0
 27 28  2  0  0  0
 28 29  1  0  0  0
 29 30  1  0  0  0
 30 31  2  0  0  0
  7  1  1  0  0  0
 31  8  1  0  0  0
 29  3  1  0  0  0
 14  9  1  0  0  0
 31 15  1  0  0  0
 21 16  1  0  0  0
 30 22  1  0  0  0
 28 23  1  0  0  0
 34 35  1  0  0  0
 18 32  1  0  0  0
M  END
> <minimizedAffinity>
-5.52259

> <CNNscore>
0.0881766900

> <CNNaffinity>
5.0695915222

> <CNN_VS>
0.4470197856

> <CNNaffinity_variance>
0.1410168707

$$$$
[H]c1c([H])c([H])c2c(c1[H])c1c3c(c4c5c([H])c([H])c([H])c([H])c5n5c4c1n2[C@@]1([H])O[C@]5(C([H])([H])[H])[C@]([H])(OC([H])([H])[H])[C@@]([H])(N([H])C([H])([H])[H])C1([H])[H])C([H])([H])N([H])C3=O


 37 44  0  0  0  0  0  0  0  0999 V2000
   37.2256   18.6524   -9.0456 C   0  0  0  0  0  0  0  0  0  0  0  0
   38.5732   18.2955   -9.5640 C   0  0  0  0  0  0  0  0  0  0  0  0
   38.4687   16.8120   -9.9035 C   0  0  0  0  0  0  0  0  0  0  0  0
   37.4496   16.1723   -9.3151 O   0  0  0  0  0  0  0  0  0  0  0  0
   37.1180   16.4686   -7.9917 C   0  0  0  0  0  0  0  0  0  0  0  0
   35.6673   15.9715   -7.9207 C   0  0  0  0  0  0  0  0  0  0  0  0
   37.1316   17.9295   -7.6905 C   0  0  0  0  0  0  0  0  0  0  0  0
   38.0214   15.6850   -7.1623 N   0  0  0  0  0  0  0  0  0  0  0  0
   37.7860   15.2057   -5.9261 C   0  0  0  0  0  0  0  0  0  0  0  0
   36.7233   15.3055   -5.0876 C   0  0  0  0  0  0  0  0  0  0  0  0
   36.6839   14.7252   -3.8150 C   0  0  0  0  0  0  0  0  0  0  0  0
   37.7572   14.0134   -3.3614 C   0  0  0  0  0  0  0  0  0  0  0  0
   38.8566   13.8935   -4.1909 C   0  0  0  0  0  0  0  0  0  0  0  0
   38.8656   14.4795   -5.4465 C   0  0  0  0  0  0  0  0  0  0  0  0
   39.8115   14.5114   -6.4225 C   0  0  0  0  0  0  0  0  0  0  0  0
   41.0928   13.9756   -6.5129 C   0  0  0  0  0  0  0  0  0  0  0  0
   41.8017   13.1553   -5.5063 C   0  0  0  0  0  0  0  0  0  0  0  0
   43.0862   12.9092   -6.1019 N   0  0  0  0  0  0  0  0  0  0  0  0
   43.1224   13.5125   -7.4128 C   0  0  0  0  0  0  0  0  0  0  0  0
   44.1415   13.3957   -8.1111 O   0  0  0  0  0  0  0  0  0  0  0  0
   41.8680   14.1678   -7.6369 C   0  0  0  0  0  0  0  0  0  0  0  0
   41.3483   14.9030   -8.6744 C   0  0  0  0  0  0  0  0  0  0  0  0
   41.8169   15.2852   -9.8916 C   0  0  0  0  0  0  0  0  0  0  0  0
   42.9904   15.0825  -10.5720 C   0  0  0  0  0  0  0  0  0  0  0  0
   43.1213   15.6404  -11.8390 C   0  0  0  0  0  0  0  0  0  0  0  0
   42.1100   16.3801  -12.4119 C   0  0  0  0  0  0  0  0  0  0  0  0
   40.9482   16.5755  -11.7276 C   0  0  0  0  0  0  0  0  0  0  0  0
   40.7918   16.0340  -10.4708 C   0  0  0  0  0  0  0  0  0  0  0  0
   39.7407   16.1153   -9.6633 N   0  0  0  0  0  0  0  0  0  0  0  0
   40.0644   15.4293   -8.5631 C   0  0  0  0  0  0  0  0  0  0  0  0
   39.2908   15.2358   -7.4388 C   0  0  0  0  0  0  0  0  0  0  0  0
   43.8469   12.3731   -5.6244 H   0  0  0  0  0  0  0  0  0  0  0  0
   37.9321   20.7343   -8.2471 C   0  0  0  0  0  0  0  0  0  0  0  0
   36.8969   20.0257   -8.9687 N   0  0  0  0  0  0  0  0  0  0  0  0
   36.8896   20.4140   -9.9373 H   0  0  0  0  0  0  0  0  0  0  0  0
   36.0354   18.4494   -7.0723 O   0  0  0  0  0  0  0  0  0  0  0  0
   36.2911   18.7545   -5.7447 C   0  0  0  0  0  0  0  0  0  0  0  0
 33 34  1  0  0  0
 34  1  1  0  0  0
  1  2  1  0  0  0
  2  3  1  0  0  0
  3  4  1  0  0  0
  4  5  1  0  0  0
  5  6  1  0  0  0
  5  7  1  0  0  0
  7 36  1  0  0  0
 36 37  1  0  0  0
  5  8  1  0  0  0
  8  9  1  0  0  0
  9 10  2  0  0  0
 10 11  1  0  0  0
 11 12  2  0  0  0
 12 13  1  0  0  0
 13 14  2  0  0  0
 14 15  1  0  0  0
 15 16  2  0  0  0
 16 17  1  0  0  0
 17 18  1  0  0  0
 18 19  1  0  0  0
 19 20  2  0  0  0
 19 21  1  0  0  0
 21 22  2  0  0  0
 22 23  1  0  0  0
 23 24  2  0  0  0
 24 25  1  0  0  0
 25 26  2  0  0  0
 26 27  1  0  0  0
 27 28  2  0  0  0
 28 29  1  0  0  0
 29 30  1  0  0  0
 30 31  2  0  0  0
  7  1  1  0  0  0
 31  8  1  0  0  0
 29  3  1  0  0  0
 14  9  1  0  0  0
 31 15  1  0  0  0
 21 16  1  0  0  0
 30 22  1  0  0  0
 28 23  1  0  0  0
 34 35  1  0  0  0
 18 32  1  0  0  0
M  END
> <minimizedAffinity>
-6.47067

> <CNNscore>
0.0823393017

> <CNNaffinity>
5.0876016617

> <CNN_VS>
0.4189095795

> <CNNaffinity_variance>
0.4014873505

$$$$
[H]c1c([H])c([H])c2c(c1[H])c1c3c(c4c5c([H])c([H])c([H])c([H])c5n5c4c1n2[C@@]1([H])O[C@]5(C([H])([H])[H])[C@]([H])(OC([H])([H])[H])[C@@]([H])(N([H])C([H])([H])[H])C1([H])[H])C([H])([H])N([H])C3=O


 37 44  0  0  0  0  0  0  0  0999 V2000
   45.5921   15.0209  -12.5790 C   0  0  0  0  0  0  0  0  0  0  0  0
   44.1294   14.8047  -12.4186 C   0  0  0  0  0  0  0  0  0  0  0  0
   43.5760   16.1861  -12.0829 C   0  0  0  0  0  0  0  0  0  0  0  0
   44.4865   17.0623  -11.6389 O   0  0  0  0  0  0  0  0  0  0  0  0
   45.4917   16.6352  -10.7693 C   0  0  0  0  0  0  0  0  0  0  0  0
   46.5490   17.7316  -10.9612 C   0  0  0  0  0  0  0  0  0  0  0  0
   46.0934   15.3264  -11.1566 C   0  0  0  0  0  0  0  0  0  0  0  0
   44.9065   16.6464   -9.4368 N   0  0  0  0  0  0  0  0  0  0  0  0
   45.5434   16.8459   -8.2671 C   0  0  0  0  0  0  0  0  0  0  0  0
   46.8467   17.0590   -7.9539 C   0  0  0  0  0  0  0  0  0  0  0  0
   47.3091   17.2397   -6.6456 C   0  0  0  0  0  0  0  0  0  0  0  0
   46.4267   17.2049   -5.6043 C   0  0  0  0  0  0  0  0  0  0  0  0
   45.0913   16.9888   -5.8893 C   0  0  0  0  0  0  0  0  0  0  0  0
   44.6638   16.8135   -7.1956 C   0  0  0  0  0  0  0  0  0  0  0  0
   43.4311   16.5812   -7.7199 C   0  0  0  0  0  0  0  0  0  0  0  0
   42.1723   16.4378   -7.1440 C   0  0  0  0  0  0  0  0  0  0  0  0
   41.8196   16.5279   -5.7100 C   0  0  0  0  0  0  0  0  0  0  0  0
   40.4062   16.2689   -5.6836 N   0  0  0  0  0  0  0  0  0  0  0  0
   39.9354   16.0802   -7.0350 C   0  0  0  0  0  0  0  0  0  0  0  0
   38.7299   15.8665   -7.2376 O   0  0  0  0  0  0  0  0  0  0  0  0
   41.0582   16.1908   -7.9181 C   0  0  0  0  0  0  0  0  0  0  0  0
   41.2146   16.0889   -9.2791 C   0  0  0  0  0  0  0  0  0  0  0  0
   40.3661   15.8539  -10.3144 C   0  0  0  0  0  0  0  0  0  0  0  0
   39.0160   15.6335  -10.4141 C   0  0  0  0  0  0  0  0  0  0  0  0
   38.4746   15.4261  -11.6781 C   0  0  0  0  0  0  0  0  0  0  0  0
   39.2577   15.4381  -12.8115 C   0  0  0  0  0  0  0  0  0  0  0  0
   40.5978   15.6582  -12.7015 C   0  0  0  0  0  0  0  0  0  0  0  0
   41.1603   15.8666  -11.4617 C   0  0  0  0  0  0  0  0  0  0  0  0
   42.4332   16.0975  -11.1623 N   0  0  0  0  0  0  0  0  0  0  0  0
   42.4827   16.2363   -9.8342 C   0  0  0  0  0  0  0  0  0  0  0  0
   43.5951   16.4836   -9.0587 C   0  0  0  0  0  0  0  0  0  0  0  0
   39.8462   16.2309   -4.8010 H   0  0  0  0  0  0  0  0  0  0  0  0
   45.7090   12.7229  -12.9994 C   0  0  0  0  0  0  0  0  0  0  0  0
   46.3360   14.0073  -13.2263 N   0  0  0  0  0  0  0  0  0  0  0  0
   46.2969   14.1805  -14.2548 H   0  0  0  0  0  0  0  0  0  0  0  0
   47.4517   15.2594  -11.2237 O   0  0  0  0  0  0  0  0  0  0  0  0
   47.9762   14.4568  -10.2229 C   0  0  0  0  0  0  0  0  0  0  0  0
 33 34  1  0  0  0
 34  1  1  0  0  0
  1  2  1  0  0  0
  2  3  1  0  0  0
  3  4  1  0  0  0
  4  5  1  0  0  0
  5  6  1  0  0  0
  5  7  1  0  0  0
  7 36  1  0  0  0
 36 37  1  0  0  0
  5  8  1  0  0  0
  8  9  1  0  0  0
  9 10  2  0  0  0
 10 11  1  0  0  0
 11 12  2  0  0  0
 12 13  1  0  0  0
 13 14  2  0  0  0
 14 15  1  0  0  0
 15 16  2  0  0  0
 16 17  1  0  0  0
 17 18  1  0  0  0
 18 19  1  0  0  0
 19 20  2  0  0  0
 19 21  1  0  0  0
 21 22  2  0  0  0
 22 23  1  0  0  0
 23 24  2  0  0  0
 24 25  1  0  0  0
 25 26  2  0  0  0
 26 27  1  0  0  0
 27 28  2  0  0  0
 28 29  1  0  0  0
 29 30  1  0  0  0
 30 31  2  0  0  0
  7  1  1  0  0  0
 31  8  1  0  0  0
 29  3  1  0  0  0
 14  9  1  0  0  0
 31 15  1  0  0  0
 21 16  1  0  0  0
 30 22  1  0  0  0
 28 23  1  0  0  0
 34 35  1  0  0  0
 18 32  1  0  0  0
M  END
> <minimizedAffinity>
-5.61178

> <CNNscore>
0.0793422163

> <CNNaffinity>
5.2799539566

> <CNN_VS>
0.4189232588

> <CNNaffinity_variance>
0.0987571105

$$$$
[H]c1c([H])c([H])c2c(c1[H])c1c3c(c4c5c([H])c([H])c([H])c([H])c5n5c4c1n2[C@@]1([H])O[C@]5(C([H])([H])[H])[C@]([H])(OC([H])([H])[H])[C@@]([H])(N([H])C([H])([H])[H])C1([H])[H])C([H])([H])N([H])C3=O


 37 44  0  0  0  0  0  0  0  0999 V2000
   39.4156   15.8366   -9.2035 C   0  0  0  0  0  0  0  0  0  0  0  0
   40.3577   15.1885  -10.1544 C   0  0  0  0  0  0  0  0  0  0  0  0
   40.1745   15.9616  -11.4567 C   0  0  0  0  0  0  0  0  0  0  0  0
   39.0359   16.6623  -11.5375 O   0  0  0  0  0  0  0  0  0  0  0  0
   37.8512   16.1181  -11.0378 C   0  0  0  0  0  0  0  0  0  0  0  0
   36.9976   17.3777  -10.8341 C   0  0  0  0  0  0  0  0  0  0  0  0
   38.0196   15.4436   -9.7181 C   0  0  0  0  0  0  0  0  0  0  0  0
   37.3311   15.2502  -12.0839 N   0  0  0  0  0  0  0  0  0  0  0  0
   36.0419   14.9456  -12.3259 C   0  0  0  0  0  0  0  0  0  0  0  0
   34.8833   15.2925  -11.7099 C   0  0  0  0  0  0  0  0  0  0  0  0
   33.6224   14.8514  -12.1268 C   0  0  0  0  0  0  0  0  0  0  0  0
   33.5172   14.0254  -13.2088 C   0  0  0  0  0  0  0  0  0  0  0  0
   34.6791   13.6523  -13.8586 C   0  0  0  0  0  0  0  0  0  0  0  0
   35.9133   14.1059  -13.4220 C   0  0  0  0  0  0  0  0  0  0  0  0
   37.1736   13.8766  -13.8776 C   0  0  0  0  0  0  0  0  0  0  0  0
   37.6726   13.1158  -14.9308 C   0  0  0  0  0  0  0  0  0  0  0  0
   36.9045   12.3178  -15.9116 C   0  0  0  0  0  0  0  0  0  0  0  0
   37.9155   11.7211  -16.7407 N   0  0  0  0  0  0  0  0  0  0  0  0
   39.2138   12.1769  -16.3044 C   0  0  0  0  0  0  0  0  0  0  0  0
   40.2294   11.7956  -16.9070 O   0  0  0  0  0  0  0  0  0  0  0  0
   39.0273   13.0417  -15.1772 C   0  0  0  0  0  0  0  0  0  0  0  0
   39.8821   13.7386  -14.3584 C   0  0  0  0  0  0  0  0  0  0  0  0
   41.2322   13.8860  -14.3053 C   0  0  0  0  0  0  0  0  0  0  0  0
   42.2774   13.4052  -15.0520 C   0  0  0  0  0  0  0  0  0  0  0  0
   43.5682   13.7800  -14.6953 C   0  0  0  0  0  0  0  0  0  0  0  0
   43.8101   14.6113  -13.6237 C   0  0  0  0  0  0  0  0  0  0  0  0
   42.7648   15.0835  -12.8885 C   0  0  0  0  0  0  0  0  0  0  0  0
   41.4760   14.7282  -13.2198 C   0  0  0  0  0  0  0  0  0  0  0  0
   40.3435   15.0888  -12.6275 N   0  0  0  0  0  0  0  0  0  0  0  0
   39.3615   14.4938  -13.3113 C   0  0  0  0  0  0  0  0  0  0  0  0
   38.0070   14.5670  -13.0667 C   0  0  0  0  0  0  0  0  0  0  0  0
   37.6998   11.0642  -17.5256 H   0  0  0  0  0  0  0  0  0  0  0  0
   40.1785   14.2635   -7.6496 C   0  0  0  0  0  0  0  0  0  0  0  0
   39.5950   15.5762   -7.8252 N   0  0  0  0  0  0  0  0  0  0  0  0
   40.2868   16.2623   -7.4510 H   0  0  0  0  0  0  0  0  0  0  0  0
   37.1524   15.7876   -8.7263 O   0  0  0  0  0  0  0  0  0  0  0  0
   36.3230   14.7324   -8.3807 C   0  0  0  0  0  0  0  0  0  0  0  0
 33 34  1  0  0  0
 34  1  1  0  0  0
  1  2  1  0  0  0
  2  3  1  0  0  0
  3  4  1  0  0  0
  4  5  1  0  0  0
  5  6  1  0  0  0
  5  7  1  0  0  0
  7 36  1  0  0  0
 36 37  1  0  0  0
  5  8  1  0  0  0
  8  9  1  0  0  0
  9 10  2  0  0  0
 10 11  1  0  0  0
 11 12  2  0  0  0
 12 13  1  0  0  0
 13 14  2  0  0  0
 14 15  1  0  0  0
 15 16  2  0  0  0
 16 17  1  0  0  0
 17 18  1  0  0  0
 18 19  1  0  0  0
 19 20  2  0  0  0
 19 21  1  0  0  0
 21 22  2  0  0  0
 22 23  1  0  0  0
 23 24  2  0  0  0
 24 25  1  0  0  0
 25 26  2  0  0  0
 26 27  1  0  0  0
 27 28  2  0  0  0
 28 29  1  0  0  0
 29 30  1  0  0  0
 30 31  2  0  0  0
  7  1  1  0  0  0
 31  8  1  0  0  0
 29  3  1  0  0  0
 14  9  1  0  0  0
 31 15  1  0  0  0
 21 16  1  0  0  0
 30 22  1  0  0  0
 28 23  1  0  0  0
 34 35  1  0  0  0
 18 32  1  0  0  0
M  END
> <minimizedAffinity>
-9.85361

> <CNNscore>
0.0687117428

> <CNNaffinity>
5.9159955978

> <CNN_VS>
0.4064983726

> <CNNaffinity_variance>
0.3701746762

$$$$
[H]Oc1c([H])c([H])c2c(c1[H])C([H])([H])C([H])([H])[C@]1([H])[C@]2([H])C([H])([H])C([H])([H])[C@]2(C([H])([H])[H])[C@@]([H])(N([H])C(=O)OC(C([H])([H])[H])(C([H])([H])[H])C([H])([H])[H])C([H])([H])C([H])([H])[C@@]21[H]


 29 32  0  0  0  0  0  0  0  0999 V2000
   44.7206   14.8634   -7.7204 C   0  0  0  0  0  0  0  0  0  0  0  0
   45.2492   16.2141   -7.2643 C   0  0  0  0  0  0  0  0  0  0  0  0
   44.1534   17.2178   -7.5045 C   0  0  0  0  0  0  0  0  0  0  0  0
   42.9094   16.4166   -7.7482 C   0  0  0  0  0  0  0  0  0  0  0  0
   42.0531   16.1857   -6.5775 C   0  0  0  0  0  0  0  0  0  0  0  0
   42.6972   16.2172   -5.2421 C   0  0  0  0  0  0  0  0  0  0  0  0
   41.6359   16.2273   -4.1717 C   0  0  0  0  0  0  0  0  0  0  0  0
   40.3127   15.7286   -4.6171 C   0  0  0  0  0  0  0  0  0  0  0  0
   39.2242   15.9746   -3.7705 C   0  0  0  0  0  0  0  0  0  0  0  0
   37.9889   15.5156   -4.1711 C   0  0  0  0  0  0  0  0  0  0  0  0
   36.8795   15.7377   -3.3610 O   0  0  0  0  0  0  0  0  0  0  0  0
   37.7800   14.8370   -5.3470 C   0  0  0  0  0  0  0  0  0  0  0  0
   38.8483   14.5949   -6.1794 C   0  0  0  0  0  0  0  0  0  0  0  0
   40.0987   15.0440   -5.8027 C   0  0  0  0  0  0  0  0  0  0  0  0
   41.3080   14.8398   -6.6218 C   0  0  0  0  0  0  0  0  0  0  0  0
   41.0960   14.4417   -8.0286 C   0  0  0  0  0  0  0  0  0  0  0  0
   42.4884   14.0771   -8.5699 C   0  0  0  0  0  0  0  0  0  0  0  0
   43.4458   15.1957   -8.4356 C   0  0  0  0  0  0  0  0  0  0  0  0
   43.8386   15.6305   -9.8545 C   0  0  0  0  0  0  0  0  0  0  0  0
   36.3650   16.5948   -3.5232 H   0  0  0  0  0  0  0  0  0  0  0  0
   46.0357   12.8187   -8.3730 C   0  0  0  0  0  0  0  0  0  0  0  0
   45.5254   12.1244   -7.4599 O   0  0  0  0  0  0  0  0  0  0  0  0
   45.6831   14.1737   -8.5558 N   0  0  0  0  0  0  0  0  0  0  0  0
   46.1300   14.7084   -9.3228 H   0  0  0  0  0  0  0  0  0  0  0  0
   46.9629   12.2017   -9.1988 O   0  0  0  0  0  0  0  0  0  0  0  0
   47.6557   11.5228  -11.3425 C   0  0  0  0  0  0  0  0  0  0  0  0
   46.6369   11.2961  -10.2203 C   0  0  0  0  0  0  0  0  0  0  0  0
   45.2713   11.5540  -10.8223 C   0  0  0  0  0  0  0  0  0  0  0  0
   46.7386    9.8637   -9.7968 C   0  0  0  0  0  0  0  0  0  0  0  0
 26 27  1  0  0  0
 27 28  1  0  0  0
 27 29  1  0  0  0
 27 25  1  0  0  0
 25 21  1  0  0  0
 21 22  2  0  0  0
 21 23  1  0  0  0
 23  1  1  0  0  0
  1  2  1  0  0  0
  2  3  1  0  0  0
  3  4  1  0  0  0
  4  5  1  0  0  0
  5  6  1  0  0  0
  6  7  1  0  0  0
  7  8  1  0  0  0
  8  9  2  0  0  0
  9 10  1  0  0  0
 10 11  1  0  0  0
 10 12  2  0  0  0
 12 13  1  0  0  0
 13 14  2  0  0  0
 14 15  1  0  0  0
 15 16  1  0  0  0
 16 17  1  0  0  0
 17 18  1  0  0  0
 18 19  1  0  0  0
 18  1  1  0  0  0
 18  4  1  0  0  0
 15  5  1  0  0  0
 14  8  1  0  0  0
 23 24  1  0  0  0
 11 20  1  0  0  0
M  END
> <minimizedAffinity>
-4.14404

> <CNNscore>
0.5385615230

> <CNNaffinity>
5.0547971725

> <CNN_VS>
2.7223193645

> <CNNaffinity_variance>
0.3389708996

$$$$
[H]Oc1c([H])c([H])c2c(c1[H])C([H])([H])C([H])([H])[C@]1([H])[C@]2([H])C([H])([H])C([H])([H])[C@]2(C([H])([H])[H])[C@@]([H])(N([H])C(=O)OC(C([H])([H])[H])(C([H])([H])[H])C([H])([H])[H])C([H])([H])C([H])([H])[C@@]21[H]


 29 32  0  0  0  0  0  0  0  0999 V2000
   44.0173   14.6533   -9.5669 C   0  0  0  0  0  0  0  0  0  0  0  0
   44.2500   13.1581   -9.4194 C   0  0  0  0  0  0  0  0  0  0  0  0
   44.3502   12.8732   -7.9447 C   0  0  0  0  0  0  0  0  0  0  0  0
   43.8293   14.0980   -7.2539 C   0  0  0  0  0  0  0  0  0  0  0  0
   42.4107   14.0688   -6.8748 C   0  0  0  0  0  0  0  0  0  0  0  0
   41.5113   13.1881   -7.6585 C   0  0  0  0  0  0  0  0  0  0  0  0
   40.1761   13.0882   -6.9661 C   0  0  0  0  0  0  0  0  0  0  0  0
   39.8946   14.1920   -6.0173 C   0  0  0  0  0  0  0  0  0  0  0  0
   38.8171   14.0154   -5.1399 C   0  0  0  0  0  0  0  0  0  0  0  0
   38.5432   15.0336   -4.2539 C   0  0  0  0  0  0  0  0  0  0  0  0
   37.4818   14.9008   -3.3639 O   0  0  0  0  0  0  0  0  0  0  0  0
   39.2693   16.1981   -4.1933 C   0  0  0  0  0  0  0  0  0  0  0  0
   40.3279   16.3728   -5.0544 C   0  0  0  0  0  0  0  0  0  0  0  0
   40.6253   15.3678   -5.9536 C   0  0  0  0  0  0  0  0  0  0  0  0
   41.7388   15.4528   -6.9170 C   0  0  0  0  0  0  0  0  0  0  0  0
   42.7520   16.4987   -6.6679 C   0  0  0  0  0  0  0  0  0  0  0  0
   43.6449   16.5164   -7.9198 C   0  0  0  0  0  0  0  0  0  0  0  0
   44.2495   15.1941   -8.1882 C   0  0  0  0  0  0  0  0  0  0  0  0
   45.7683   15.3476   -8.0265 C   0  0  0  0  0  0  0  0  0  0  0  0
   37.6928   14.4792   -2.4676 H   0  0  0  0  0  0  0  0  0  0  0  0
   44.4550   16.1276  -11.5596 C   0  0  0  0  0  0  0  0  0  0  0  0
   43.2534   16.4829  -11.6373 O   0  0  0  0  0  0  0  0  0  0  0  0
   44.8972   15.2294  -10.5639 N   0  0  0  0  0  0  0  0  0  0  0  0
   45.8985   14.9640  -10.5378 H   0  0  0  0  0  0  0  0  0  0  0  0
   45.3355   16.6531  -12.4930 O   0  0  0  0  0  0  0  0  0  0  0  0
   46.2441   16.9397  -14.6444 C   0  0  0  0  0  0  0  0  0  0  0  0
   45.8992   15.9229  -13.5508 C   0  0  0  0  0  0  0  0  0  0  0  0
   44.9287   14.9392  -14.1705 C   0  0  0  0  0  0  0  0  0  0  0  0
   47.1632   15.2145  -13.1741 C   0  0  0  0  0  0  0  0  0  0  0  0
 26 27  1  0  0  0
 27 28  1  0  0  0
 27 29  1  0  0  0
 27 25  1  0  0  0
 25 21  1  0  0  0
 21 22  2  0  0  0
 21 23  1  0  0  0
 23  1  1  0  0  0
  1  2  1  0  0  0
  2  3  1  0  0  0
  3  4  1  0  0  0
  4  5  1  0  0  0
  5  6  1  0  0  0
  6  7  1  0  0  0
  7  8  1  0  0  0
  8  9  2  0  0  0
  9 10  1  0  0  0
 10 11  1  0  0  0
 10 12  2  0  0  0
 12 13  1  0  0  0
 13 14  2  0  0  0
 14 15  1  0  0  0
 15 16  1  0  0  0
 16 17  1  0  0  0
 17 18  1  0  0  0
 18 19  1  0  0  0
 18  1  1  0  0  0
 18  4  1  0  0  0
 15  5  1  0  0  0
 14  8  1  0  0  0
 23 24  1  0  0  0
 11 20  1  0  0  0
M  END
> <minimizedAffinity>
-4.40682

> <CNNscore>
0.5230793953

> <CNNaffinity>
5.2770171165

> <CNN_VS>
2.7602989674

> <CNNaffinity_variance>
0.3825350106

$$$$
[H]Oc1c([H])c([H])c2c(c1[H])C([H])([H])C([H])([H])[C@]1([H])[C@]2([H])C([H])([H])C([H])([H])[C@]2(C([H])([H])[H])[C@@]([H])(N([H])C(=O)OC(C([H])([H])[H])(C([H])([H])[H])C([H])([H])[H])C([H])([H])C([H])([H])[C@@]21[H]


 29 32  0  0  0  0  0  0  0  0999 V2000
   36.5386   16.7940   -6.8801 C   0  0  0  0  0  0  0  0  0  0  0  0
   36.2377   15.9341   -8.0974 C   0  0  0  0  0  0  0  0  0  0  0  0
   37.5059   15.8573   -8.9046 C   0  0  0  0  0  0  0  0  0  0  0  0
   38.5974   16.3493   -8.0016 C   0  0  0  0  0  0  0  0  0  0  0  0
   39.3384   15.3166   -7.2658 C   0  0  0  0  0  0  0  0  0  0  0  0
   38.6438   14.0331   -7.0024 C   0  0  0  0  0  0  0  0  0  0  0  0
   39.6344   13.0219   -6.4844 C   0  0  0  0  0  0  0  0  0  0  0  0
   40.8679   13.6116   -5.9112 C   0  0  0  0  0  0  0  0  0  0  0  0
   41.9388   12.7395   -5.6773 C   0  0  0  0  0  0  0  0  0  0  0  0
   43.0907   13.2735   -5.1436 C   0  0  0  0  0  0  0  0  0  0  0  0
   44.1797   12.4437   -4.8948 O   0  0  0  0  0  0  0  0  0  0  0  0
   43.2340   14.6043   -4.8349 C   0  0  0  0  0  0  0  0  0  0  0  0
   42.1830   15.4620   -5.0642 C   0  0  0  0  0  0  0  0  0  0  0  0
   41.0156   14.9536   -5.5988 C   0  0  0  0  0  0  0  0  0  0  0  0
   39.8322   15.7857   -5.8857 C   0  0  0  0  0  0  0  0  0  0  0  0
   40.0404   17.2480   -5.9093 C   0  0  0  0  0  0  0  0  0  0  0  0
   38.6343   17.8649   -5.9947 C   0  0  0  0  0  0  0  0  0  0  0  0
   37.8867   17.3798   -7.1744 C   0  0  0  0  0  0  0  0  0  0  0  0
   37.6501   18.5882   -8.0910 C   0  0  0  0  0  0  0  0  0  0  0  0
   44.8465   12.3339   -5.6489 H   0  0  0  0  0  0  0  0  0  0  0  0
   34.9489   18.0767   -5.4093 C   0  0  0  0  0  0  0  0  0  0  0  0
   35.3138   17.4635   -4.3763 O   0  0  0  0  0  0  0  0  0  0  0  0
   35.5117   17.7953   -6.6733 N   0  0  0  0  0  0  0  0  0  0  0  0
   35.1797   18.3266   -7.4988 H   0  0  0  0  0  0  0  0  0  0  0  0
   33.9676   19.0450   -5.2611 O   0  0  0  0  0  0  0  0  0  0  0  0
   33.2603   21.1099   -4.3823 C   0  0  0  0  0  0  0  0  0  0  0  0
   34.1887   20.4249   -5.3911 C   0  0  0  0  0  0  0  0  0  0  0  0
   33.8055   20.9567   -6.7564 C   0  0  0  0  0  0  0  0  0  0  0  0
   35.5921   20.8331   -5.0669 C   0  0  0  0  0  0  0  0  0  0  0  0
 26 27  1  0  0  0
 27 28  1  0  0  0
 27 29  1  0  0  0
 27 25  1  0  0  0
 25 21  1  0  0  0
 21 22  2  0  0  0
 21 23  1  0  0  0
 23  1  1  0  0  0
  1  2  1  0  0  0
  2  3  1  0  0  0
  3  4  1  0  0  0
  4  5  1  0  0  0
  5  6  1  0  0  0
  6  7  1  0  0  0
  7  8  1  0  0  0
  8  9  2  0  0  0
  9 10  1  0  0  0
 10 11  1  0  0  0
 10 12  2  0  0  0
 12 13  1  0  0  0
 13 14  2  0  0  0
 14 15  1  0  0  0
 15 16  1  0  0  0
 16 17  1  0  0  0
 17 18  1  0  0  0
 18 19  1  0  0  0
 18  1  1  0  0  0
 18  4  1  0  0  0
 15  5  1  0  0  0
 14  8  1  0  0  0
 23 24  1  0  0  0
 11 20  1  0  0  0
M  END
> <minimizedAffinity>
-4.52138

> <CNNscore>
0.5009247661

> <CNNaffinity>
5.4663987160

> <CNN_VS>
2.7382545471

> <CNNaffinity_variance>
0.7496389151

$$$$
[H]Oc1c([H])c([H])c2c(c1[H])C([H])([H])C([H])([H])[C@]1([H])[C@]2([H])C([H])([H])C([H])([H])[C@]2(C([H])([H])[H])[C@@]([H])(N([H])C(=O)OC(C([H])([H])[H])(C([H])([H])[H])C([H])([H])[H])C([H])([H])C([H])([H])[C@@]21[H]


 29 32  0  0  0  0  0  0  0  0999 V2000
   35.9625   17.5187   -7.7292 C   0  0  0  0  0  0  0  0  0  0  0  0
   36.0801   17.0223   -9.1615 C   0  0  0  0  0  0  0  0  0  0  0  0
   37.4849   17.3177   -9.6142 C   0  0  0  0  0  0  0  0  0  0  0  0
   38.2579   17.6390   -8.3700 C   0  0  0  0  0  0  0  0  0  0  0  0
   38.9916   16.5216   -7.7616 C   0  0  0  0  0  0  0  0  0  0  0  0
   38.4881   15.1510   -8.0206 C   0  0  0  0  0  0  0  0  0  0  0  0
   39.5044   14.1437   -7.5469 C   0  0  0  0  0  0  0  0  0  0  0  0
   40.4674   14.6686   -6.5494 C   0  0  0  0  0  0  0  0  0  0  0  0
   41.5976   13.8845   -6.2847 C   0  0  0  0  0  0  0  0  0  0  0  0
   42.5001   14.3593   -5.3590 C   0  0  0  0  0  0  0  0  0  0  0  0
   43.6372   13.6130   -5.0651 O   0  0  0  0  0  0  0  0  0  0  0  0
   42.3434   15.5505   -4.6933 C   0  0  0  0  0  0  0  0  0  0  0  0
   41.2339   16.3217   -4.9523 C   0  0  0  0  0  0  0  0  0  0  0  0
   40.3123   15.8699   -5.8763 C   0  0  0  0  0  0  0  0  0  0  0  0
   39.0920   16.6193   -6.2290 C   0  0  0  0  0  0  0  0  0  0  0  0
   39.0459   18.0391   -5.8232 C   0  0  0  0  0  0  0  0  0  0  0  0
   37.6056   18.5018   -6.0993 C   0  0  0  0  0  0  0  0  0  0  0  0
   37.2211   18.3038   -7.5132 C   0  0  0  0  0  0  0  0  0  0  0  0
   36.9809   19.6942   -8.1178 C   0  0  0  0  0  0  0  0  0  0  0  0
   44.4580   13.7980   -5.6285 H   0  0  0  0  0  0  0  0  0  0  0  0
   33.9034   18.1482   -6.4255 C   0  0  0  0  0  0  0  0  0  0  0  0
   34.1434   17.3082   -5.5238 O   0  0  0  0  0  0  0  0  0  0  0  0
   34.7587   18.3024   -7.5384 N   0  0  0  0  0  0  0  0  0  0  0  0
   34.5210   19.0085   -8.2586 H   0  0  0  0  0  0  0  0  0  0  0  0
   32.7614   18.9221   -6.2865 O   0  0  0  0  0  0  0  0  0  0  0  0
   30.6068   19.6115   -6.9337 C   0  0  0  0  0  0  0  0  0  0  0  0
   31.4521   18.4371   -6.4288 C   0  0  0  0  0  0  0  0  0  0  0  0
   30.8392   18.0015   -5.1141 C   0  0  0  0  0  0  0  0  0  0  0  0
   31.3360   17.3302   -7.4302 C   0  0  0  0  0  0  0  0  0  0  0  0
 26 27  1  0  0  0
 27 28  1  0  0  0
 27 29  1  0  0  0
 27 25  1  0  0  0
 25 21  1  0  0  0
 21 22  2  0  0  0
 21 23  1  0  0  0
 23  1  1  0  0  0
  1  2  1  0  0  0
  2  3  1  0  0  0
  3  4  1  0  0  0
  4  5  1  0  0  0
  5  6  1  0  0  0
  6  7  1  0  0  0
  7  8  1  0  0  0
  8  9  2  0  0  0
  9 10  1  0  0  0
 10 11  1  0  0  0
 10 12  2  0  0  0
 12 13  1  0  0  0
 13 14  2  0  0  0
 14 15  1  0  0  0
 15 16  1  0  0  0
 16 17  1  0  0  0
 17 18  1  0  0  0
 18 19  1  0  0  0
 18  1  1  0  0  0
 18  4  1  0  0  0
 15  5  1  0  0  0
 14  8  1  0  0  0
 23 24  1  0  0  0
 11 20  1  0  0  0
M  END
> <minimizedAffinity>
-5.02887

> <CNNscore>
0.4718215466

> <CNNaffinity>
5.3505258560

> <CNN_VS>
2.5244934559

> <CNNaffinity_variance>
0.1418337673

$$$$
[H]Oc1c([H])c([H])c2c(c1[H])C([H])([H])C([H])([H])[C@]1([H])[C@]2([H])C([H])([H])C([H])([H])[C@]2(C([H])([H])[H])[C@@]([H])(N([H])C(=O)OC(C([H])([H])[H])(C([H])([H])[H])C([H])([H])[H])C([H])([H])C([H])([H])[C@@]21[H]


 29 32  0  0  0  0  0  0  0  0999 V2000
   38.7710   14.9069   -7.1067 C   0  0  0  0  0  0  0  0  0  0  0  0
   39.3406   16.2592   -7.5051 C   0  0  0  0  0  0  0  0  0  0  0  0
   40.5650   16.4858   -6.6594 C   0  0  0  0  0  0  0  0  0  0  0  0
   40.8992   15.1542   -6.0561 C   0  0  0  0  0  0  0  0  0  0  0  0
   41.8943   14.3516   -6.7790 C   0  0  0  0  0  0  0  0  0  0  0  0
   42.0421   14.5943   -8.2345 C   0  0  0  0  0  0  0  0  0  0  0  0
   43.2713   13.8837   -8.7408 C   0  0  0  0  0  0  0  0  0  0  0  0
   43.7394   12.7768   -7.8728 C   0  0  0  0  0  0  0  0  0  0  0  0
   45.0194   12.2682   -8.1279 C   0  0  0  0  0  0  0  0  0  0  0  0
   45.4667   11.2385   -7.3301 C   0  0  0  0  0  0  0  0  0  0  0  0
   46.7323   10.7027   -7.5480 O   0  0  0  0  0  0  0  0  0  0  0  0
   44.7240   10.6958   -6.3099 C   0  0  0  0  0  0  0  0  0  0  0  0
   43.4667   11.1944   -6.0582 C   0  0  0  0  0  0  0  0  0  0  0  0
   42.9927   12.2272   -6.8429 C   0  0  0  0  0  0  0  0  0  0  0  0
   41.6621   12.8352   -6.6558 C   0  0  0  0  0  0  0  0  0  0  0  0
   40.9746   12.5454   -5.3807 C   0  0  0  0  0  0  0  0  0  0  0  0
   39.5479   13.0952   -5.5456 C   0  0  0  0  0  0  0  0  0  0  0  0
   39.5438   14.5361   -5.8769 C   0  0  0  0  0  0  0  0  0  0  0  0
   38.8806   15.2704   -4.7033 C   0  0  0  0  0  0  0  0  0  0  0  0
   47.4980   11.1298   -7.0411 H   0  0  0  0  0  0  0  0  0  0  0  0
   36.3866   14.6647   -7.8757 C   0  0  0  0  0  0  0  0  0  0  0  0
   36.7307   14.2964   -9.0256 O   0  0  0  0  0  0  0  0  0  0  0  0
   37.3410   14.9803   -6.8842 N   0  0  0  0  0  0  0  0  0  0  0  0
   37.0110   15.2800   -5.9487 H   0  0  0  0  0  0  0  0  0  0  0  0
   35.0274   14.7501   -7.6152 O   0  0  0  0  0  0  0  0  0  0  0  0
   33.9954   16.2637   -6.1385 C   0  0  0  0  0  0  0  0  0  0  0  0
   34.2947   15.9472   -7.6078 C   0  0  0  0  0  0  0  0  0  0  0  0
   32.9541   15.8216   -8.3011 C   0  0  0  0  0  0  0  0  0  0  0  0
   35.0500   17.1075   -8.1777 C   0  0  0  0  0  0  0  0  0  0  0  0
 26 27  1  0  0  0
 27 28  1  0  0  0
 27 29  1  0  0  0
 27 25  1  0  0  0
 25 21  1  0  0  0
 21 22  2  0  0  0
 21 23  1  0  0  0
 23  1  1  0  0  0
  1  2  1  0  0  0
  2  3  1  0  0  0
  3  4  1  0  0  0
  4  5  1  0  0  0
  5  6  1  0  0  0
  6  7  1  0  0  0
  7  8  1  0  0  0
  8  9  2  0  0  0
  9 10  1  0  0  0
 10 11  1  0  0  0
 10 12  2  0  0  0
 12 13  1  0  0  0
 13 14  2  0  0  0
 14 15  1  0  0  0
 15 16  1  0  0  0
 16 17  1  0  0  0
 17 18  1  0  0  0
 18 19  1  0  0  0
 18  1  1  0  0  0
 18  4  1  0  0  0
 15  5  1  0  0  0
 14  8  1  0  0  0
 23 24  1  0  0  0
 11 20  1  0  0  0
M  END
> <minimizedAffinity>
-4.94313

> <CNNscore>
0.4267025292

> <CNNaffinity>
5.2269926071

> <CNN_VS>
2.2303709984

> <CNNaffinity_variance>
0.3182009161

$$$$
[H]Oc1c([H])c([H])c2c(c1[H])C([H])([H])C([H])([H])[C@]1([H])[C@]2([H])C([H])([H])C([H])([H])[C@]2(C([H])([H])[H])[C@@]([H])(N([H])C(=O)OC(C([H])([H])[H])(C([H])([H])[H])C([H])([H])[H])C([H])([H])C([H])([H])[C@@]21[H]


 29 32  0  0  0  0  0  0  0  0999 V2000
   35.2971   15.3184   -6.6371 C   0  0  0  0  0  0  0  0  0  0  0  0
   35.3405   14.4319   -7.8716 C   0  0  0  0  0  0  0  0  0  0  0  0
   36.5289   14.8703   -8.6849 C   0  0  0  0  0  0  0  0  0  0  0  0
   37.3531   15.7319   -7.7754 C   0  0  0  0  0  0  0  0  0  0  0  0
   38.4465   15.0560   -7.0650 C   0  0  0  0  0  0  0  0  0  0  0  0
   38.3098   13.5987   -6.8270 C   0  0  0  0  0  0  0  0  0  0  0  0
   39.6220   13.0439   -6.3346 C   0  0  0  0  0  0  0  0  0  0  0  0
   40.5351   14.0569   -5.7533 C   0  0  0  0  0  0  0  0  0  0  0  0
   41.8638   13.6668   -5.5422 C   0  0  0  0  0  0  0  0  0  0  0  0
   42.7230   14.5973   -5.0013 C   0  0  0  0  0  0  0  0  0  0  0  0
   44.0521   14.2529   -4.7745 O   0  0  0  0  0  0  0  0  0  0  0  0
   42.3403   15.8728   -4.6643 C   0  0  0  0  0  0  0  0  0  0  0  0
   41.0357   16.2574   -4.8711 C   0  0  0  0  0  0  0  0  0  0  0  0
   40.1522   15.3443   -5.4124 C   0  0  0  0  0  0  0  0  0  0  0  0
   38.7349   15.6547   -5.6768 C   0  0  0  0  0  0  0  0  0  0  0  0
   38.3568   17.0828   -5.6695 C   0  0  0  0  0  0  0  0  0  0  0  0
   36.8206   17.1046   -5.7363 C   0  0  0  0  0  0  0  0  0  0  0  0
   36.3071   16.3884   -6.9235 C   0  0  0  0  0  0  0  0  0  0  0  0
   35.6077   17.4260   -7.8128 C   0  0  0  0  0  0  0  0  0  0  0  0
   44.7001   14.4257   -5.5333 H   0  0  0  0  0  0  0  0  0  0  0  0
   32.9620   15.1150   -5.7197 C   0  0  0  0  0  0  0  0  0  0  0  0
   33.1752   13.9639   -5.2659 O   0  0  0  0  0  0  0  0  0  0  0  0
   33.9639   15.8364   -6.4048 N   0  0  0  0  0  0  0  0  0  0  0  0
   33.7431   16.7837   -6.7623 H   0  0  0  0  0  0  0  0  0  0  0  0
   31.6997   15.6532   -5.5217 O   0  0  0  0  0  0  0  0  0  0  0  0
   29.5115   16.4447   -5.8710 C   0  0  0  0  0  0  0  0  0  0  0  0
   30.7882   15.9376   -6.5504 C   0  0  0  0  0  0  0  0  0  0  0  0
   30.3930   14.7093   -7.3435 C   0  0  0  0  0  0  0  0  0  0  0  0
   31.2626   17.0085   -7.4829 C   0  0  0  0  0  0  0  0  0  0  0  0
 26 27  1  0  0  0
 27 28  1  0  0  0
 27 29  1  0  0  0
 27 25  1  0  0  0
 25 21  1  0  0  0
 21 22  2  0  0  0
 21 23  1  0  0  0
 23  1  1  0  0  0
  1  2  1  0  0  0
  2  3  1  0  0  0
  3  4  1  0  0  0
  4  5  1  0  0  0
  5  6  1  0  0  0
  6  7  1  0  0  0
  7  8  1  0  0  0
  8  9  2  0  0  0
  9 10  1  0  0  0
 10 11  1  0  0  0
 10 12  2  0  0  0
 12 13  1  0  0  0
 13 14  2  0  0  0
 14 15  1  0  0  0
 15 16  1  0  0  0
 16 17  1  0  0  0
 17 18  1  0  0  0
 18 19  1  0  0  0
 18  1  1  0  0  0
 18  4  1  0  0  0
 15  5  1  0  0  0
 14  8  1  0  0  0
 23 24  1  0  0  0
 11 20  1  0  0  0
M  END
> <minimizedAffinity>
-5.38740

> <CNNscore>
0.3966530263

> <CNNaffinity>
5.2776513100

> <CNN_VS>
2.0933964252

> <CNNaffinity_variance>
0.1766595244

$$$$
[H]Oc1c([H])c([H])c2c(c1[H])C([H])([H])C([H])([H])[C@]1([H])[C@]2([H])C([H])([H])C([H])([H])[C@]2(C([H])([H])[H])[C@@]([H])(N([H])C(=O)OC(C([H])([H])[H])(C([H])([H])[H])C([H])([H])[H])C([H])([H])C([H])([H])[C@@]21[H]


 29 32  0  0  0  0  0  0  0  0999 V2000
   37.2484   14.4134   -5.0716 C   0  0  0  0  0  0  0  0  0  0  0  0
   36.6216   14.4556   -3.6871 C   0  0  0  0  0  0  0  0  0  0  0  0
   35.6824   15.6319   -3.6665 C   0  0  0  0  0  0  0  0  0  0  0  0
   35.4976   16.0344   -5.0992 C   0  0  0  0  0  0  0  0  0  0  0  0
   34.3243   15.4711   -5.7796 C   0  0  0  0  0  0  0  0  0  0  0  0
   33.7872   14.1874   -5.2671 C   0  0  0  0  0  0  0  0  0  0  0  0
   32.4506   13.9101   -5.9065 C   0  0  0  0  0  0  0  0  0  0  0  0
   32.2148   14.6422   -7.1739 C   0  0  0  0  0  0  0  0  0  0  0  0
   30.9030   14.6545   -7.6649 C   0  0  0  0  0  0  0  0  0  0  0  0
   30.6696   15.3297   -8.8424 C   0  0  0  0  0  0  0  0  0  0  0  0
   29.3813   15.3679   -9.3670 O   0  0  0  0  0  0  0  0  0  0  0  0
   31.6521   15.9821   -9.5467 C   0  0  0  0  0  0  0  0  0  0  0  0
   32.9409   15.9709   -9.0655 C   0  0  0  0  0  0  0  0  0  0  0  0
   33.2036   15.3014   -7.8865 C   0  0  0  0  0  0  0  0  0  0  0  0
   34.5475   15.2304   -7.2833 C   0  0  0  0  0  0  0  0  0  0  0  0
   35.5527   16.1870   -7.7901 C   0  0  0  0  0  0  0  0  0  0  0  0
   36.8909   15.7468   -7.1733 C   0  0  0  0  0  0  0  0  0  0  0  0
   36.8358   15.7121   -5.6962 C   0  0  0  0  0  0  0  0  0  0  0  0
   37.8125   16.7778   -5.1798 C   0  0  0  0  0  0  0  0  0  0  0  0
   28.7944   16.1378   -9.0699 H   0  0  0  0  0  0  0  0  0  0  0  0
   39.3999   13.3258   -5.7954 C   0  0  0  0  0  0  0  0  0  0  0  0
   38.8183   12.5903   -6.6302 O   0  0  0  0  0  0  0  0  0  0  0  0
   38.6857   14.2451   -4.9963 N   0  0  0  0  0  0  0  0  0  0  0  0
   39.2075   14.8321   -4.3202 H   0  0  0  0  0  0  0  0  0  0  0  0
   40.7766   13.2005   -5.6873 O   0  0  0  0  0  0  0  0  0  0  0  0
   42.1392   12.9461   -7.5886 C   0  0  0  0  0  0  0  0  0  0  0  0
   41.7015   13.9035   -6.4748 C   0  0  0  0  0  0  0  0  0  0  0  0
   42.9564   14.2797   -5.7149 C   0  0  0  0  0  0  0  0  0  0  0  0
   41.1216   15.1213   -7.1245 C   0  0  0  0  0  0  0  0  0  0  0  0
 26 27  1  0  0  0
 27 28  1  0  0  0
 27 29  1  0  0  0
 27 25  1  0  0  0
 25 21  1  0  0  0
 21 22  2  0  0  0
 21 23  1  0  0  0
 23  1  1  0  0  0
  1  2  1  0  0  0
  2  3  1  0  0  0
  3  4  1  0  0  0
  4  5  1  0  0  0
  5  6  1  0  0  0
  6  7  1  0  0  0
  7  8  1  0  0  0
  8  9  2  0  0  0
  9 10  1  0  0  0
 10 11  1  0  0  0
 10 12  2  0  0  0
 12 13  1  0  0  0
 13 14  2  0  0  0
 14 15  1  0  0  0
 15 16  1  0  0  0
 16 17  1  0  0  0
 17 18  1  0  0  0
 18 19  1  0  0  0
 18  1  1  0  0  0
 18  4  1  0  0  0
 15  5  1  0  0  0
 14  8  1  0  0  0
 23 24  1  0  0  0
 11 20  1  0  0  0
M  END
> <minimizedAffinity>
-6.17867

> <CNNscore>
0.3363053203

> <CNNaffinity>
5.3494095802

> <CNN_VS>
1.7990349531

> <CNNaffinity_variance>
0.0970068350

$$$$
[H]Oc1c([H])c([H])c2c(c1[H])C([H])([H])C([H])([H])[C@]1([H])[C@]2([H])C([H])([H])C([H])([H])[C@]2(C([H])([H])[H])[C@@]([H])(N([H])C(=O)OC(C([H])([H])[H])(C([H])([H])[H])C([H])([H])[H])C([H])([H])C([H])([H])[C@@]21[H]


 29 32  0  0  0  0  0  0  0  0999 V2000
   38.1728   16.5431   -7.3065 C   0  0  0  0  0  0  0  0  0  0  0  0
   38.1562   18.0517   -7.4948 C   0  0  0  0  0  0  0  0  0  0  0  0
   37.0383   18.3617   -8.4540 C   0  0  0  0  0  0  0  0  0  0  0  0
   36.2068   17.1161   -8.5314 C   0  0  0  0  0  0  0  0  0  0  0  0
   35.0436   17.0622   -7.6364 C   0  0  0  0  0  0  0  0  0  0  0  0
   35.0958   17.8751   -6.3972 C   0  0  0  0  0  0  0  0  0  0  0  0
   33.7324   17.9011   -5.7547 C   0  0  0  0  0  0  0  0  0  0  0  0
   32.8382   16.7945   -6.1715 C   0  0  0  0  0  0  0  0  0  0  0  0
   31.4824   16.9156   -5.8411 C   0  0  0  0  0  0  0  0  0  0  0  0
   30.6402   15.8941   -6.2209 C   0  0  0  0  0  0  0  0  0  0  0  0
   29.2854   15.9726   -5.9133 O   0  0  0  0  0  0  0  0  0  0  0  0
   31.0648   14.7778   -6.8995 C   0  0  0  0  0  0  0  0  0  0  0  0
   32.3961   14.6577   -7.2248 C   0  0  0  0  0  0  0  0  0  0  0  0
   33.2633   15.6673   -6.8563 C   0  0  0  0  0  0  0  0  0  0  0  0
   34.7067   15.6388   -7.1578 C   0  0  0  0  0  0  0  0  0  0  0  0
   35.1527   14.6611   -8.1715 C   0  0  0  0  0  0  0  0  0  0  0  0
   36.6894   14.6823   -8.1191 C   0  0  0  0  0  0  0  0  0  0  0  0
   37.2338   16.0359   -8.3592 C   0  0  0  0  0  0  0  0  0  0  0  0
   38.0318   15.9791   -9.6693 C   0  0  0  0  0  0  0  0  0  0  0  0
   28.6904   16.4182   -6.6010 H   0  0  0  0  0  0  0  0  0  0  0  0
   40.1769   15.3308   -6.3845 C   0  0  0  0  0  0  0  0  0  0  0  0
   39.6300   15.1490   -5.2691 O   0  0  0  0  0  0  0  0  0  0  0  0
   39.5144   16.0095   -7.4305 N   0  0  0  0  0  0  0  0  0  0  0  0
   40.0046   16.1366   -8.3346 H   0  0  0  0  0  0  0  0  0  0  0  0
   41.4620   14.8376   -6.5509 O   0  0  0  0  0  0  0  0  0  0  0  0
   42.3074   12.8291   -5.6635 C   0  0  0  0  0  0  0  0  0  0  0  0
   41.7636   13.5175   -6.9201 C   0  0  0  0  0  0  0  0  0  0  0  0
   42.8584   13.4331   -7.9632 C   0  0  0  0  0  0  0  0  0  0  0  0
   40.5678   12.7434   -7.3807 C   0  0  0  0  0  0  0  0  0  0  0  0
 26 27  1  0  0  0
 27 28  1  0  0  0
 27 29  1  0  0  0
 27 25  1  0  0  0
 25 21  1  0  0  0
 21 22  2  0  0  0
 21 23  1  0  0  0
 23  1  1  0  0  0
  1  2  1  0  0  0
  2  3  1  0  0  0
  3  4  1  0  0  0
  4  5  1  0  0  0
  5  6  1  0  0  0
  6  7  1  0  0  0
  7  8  1  0  0  0
  8  9  2  0  0  0
  9 10  1  0  0  0
 10 11  1  0  0  0
 10 12  2  0  0  0
 12 13  1  0  0  0
 13 14  2  0  0  0
 14 15  1  0  0  0
 15 16  1  0  0  0
 16 17  1  0  0  0
 17 18  1  0  0  0
 18 19  1  0  0  0
 18  1  1  0  0  0
 18  4  1  0  0  0
 15  5  1  0  0  0
 14  8  1  0  0  0
 23 24  1  0  0  0
 11 20  1  0  0  0
M  END
> <minimizedAffinity>
-5.33572

> <CNNscore>
0.3289023638

> <CNNaffinity>
5.3893280029

> <CNN_VS>
1.7725627422

> <CNNaffinity_variance>
0.3024427593

$$$$
[H]Oc1c([H])c([H])c2c(c1[H])C([H])([H])C([H])([H])[C@]1([H])[C@]2([H])C([H])([H])C([H])([H])[C@]2(C([H])([H])[H])[C@@]([H])(N([H])C(=O)OC(C([H])([H])[H])(C([H])([H])[H])C([H])([H])[H])C([H])([H])C([H])([H])[C@@]21[H]


 29 32  0  0  0  0  0  0  0  0999 V2000
   41.4273   13.1480  -14.3308 C   0  0  0  0  0  0  0  0  0  0  0  0
   41.1112   14.4069  -13.5389 C   0  0  0  0  0  0  0  0  0  0  0  0
   40.0576   15.1568  -14.3093 C   0  0  0  0  0  0  0  0  0  0  0  0
   39.5211   14.1878  -15.3203 C   0  0  0  0  0  0  0  0  0  0  0  0
   38.3099   13.4547  -14.9294 C   0  0  0  0  0  0  0  0  0  0  0  0
   38.0612   13.2683  -13.4795 C   0  0  0  0  0  0  0  0  0  0  0  0
   36.6647   12.7403  -13.2722 C   0  0  0  0  0  0  0  0  0  0  0  0
   36.0726   12.0907  -14.4661 C   0  0  0  0  0  0  0  0  0  0  0  0
   34.6952   11.8378  -14.4333 C   0  0  0  0  0  0  0  0  0  0  0  0
   34.1319   11.2333  -15.5352 C   0  0  0  0  0  0  0  0  0  0  0  0
   32.7669   10.9632  -15.5460 O   0  0  0  0  0  0  0  0  0  0  0  0
   34.8505   10.8724  -16.6489 C   0  0  0  0  0  0  0  0  0  0  0  0
   36.2033   11.1203  -16.6824 C   0  0  0  0  0  0  0  0  0  0  0  0
   36.7947   11.7256  -15.5910 C   0  0  0  0  0  0  0  0  0  0  0  0
   38.2346   12.0379  -15.5256 C   0  0  0  0  0  0  0  0  0  0  0  0
   38.9791   12.0013  -16.8011 C   0  0  0  0  0  0  0  0  0  0  0  0
   40.4628   12.1301  -16.4180 C   0  0  0  0  0  0  0  0  0  0  0  0
   40.7301   13.3593  -15.6409 C   0  0  0  0  0  0  0  0  0  0  0  0
   41.6524   14.2434  -16.4918 C   0  0  0  0  0  0  0  0  0  0  0  0
   32.1649   11.6891  -15.9151 H   0  0  0  0  0  0  0  0  0  0  0  0
   43.7650   13.1154  -13.3983 C   0  0  0  0  0  0  0  0  0  0  0  0
   43.3767   13.4413  -12.2496 O   0  0  0  0  0  0  0  0  0  0  0  0
   42.8569   12.9544  -14.4673 N   0  0  0  0  0  0  0  0  0  0  0  0
   43.2224   12.6845  -15.3987 H   0  0  0  0  0  0  0  0  0  0  0  0
   45.1258   12.9189  -13.5779 O   0  0  0  0  0  0  0  0  0  0  0  0
   46.9146   14.2822  -12.8864 C   0  0  0  0  0  0  0  0  0  0  0  0
   46.0112   13.8944  -14.0621 C   0  0  0  0  0  0  0  0  0  0  0  0
   45.3083   15.1627  -14.4993 C   0  0  0  0  0  0  0  0  0  0  0  0
   46.8913   13.3993  -15.1673 C   0  0  0  0  0  0  0  0  0  0  0  0
 26 27  1  0  0  0
 27 28  1  0  0  0
 27 29  1  0  0  0
 27 25  1  0  0  0
 25 21  1  0  0  0
 21 22  2  0  0  0
 21 23  1  0  0  0
 23  1  1  0  0  0
  1  2  1  0  0  0
  2  3  1  0  0  0
  3  4  1  0  0  0
  4  5  1  0  0  0
  5  6  1  0  0  0
  6  7  1  0  0  0
  7  8  1  0  0  0
  8  9  2  0  0  0
  9 10  1  0  0  0
 10 11  1  0  0  0
 10 12  2  0  0  0
 12 13  1  0  0  0
 13 14  2  0  0  0
 14 15  1  0  0  0
 15 16  1  0  0  0
 16 17  1  0  0  0
 17 18  1  0  0  0
 18 19  1  0  0  0
 18  1  1  0  0  0
 18  4  1  0  0  0
 15  5  1  0  0  0
 14  8  1  0  0  0
 23 24  1  0  0  0
 11 20  1  0  0  0
M  END
> <minimizedAffinity>
-7.00000

> <CNNscore>
0.3191693723

> <CNNaffinity>
6.5549798012

> <CNN_VS>
2.0921487808

> <CNNaffinity_variance>
0.1587218344

$$$$
[H]O[C@@]([H])(C([H])([H])[H])[C@]([H])(c1nnc(-c2c([H])c([H])c(N(C([H])([H])[H])C([H])([H])[H])c([H])c2[H])o1)N([H])c1c([H])c([H])c([N+]#[C-])c(Cl)c1C([H])([H])[H]


 31 33  0  0  0  0  0  0  0  0999 V2000
   37.9053   11.6721  -16.8119 C   0  0  0  0  0  0  0  0  0  0  0  0
   39.3589   11.8260  -17.0345 C   0  0  0  0  0  0  0  0  0  0  0  0
   39.9705   11.5753  -18.2087 N   0  0  0  0  0  0  0  0  0  0  0  0
   41.2592   11.8200  -18.0437 N   0  0  0  0  0  0  0  0  0  0  0  0
   41.4583   12.2185  -16.7883 C   0  0  0  0  0  0  0  0  0  0  0  0
   40.2878   12.2123  -16.1998 O   0  0  0  0  0  0  0  0  0  0  0  0
   42.7430   12.6005  -16.1613 C   0  0  0  0  0  0  0  0  0  0  0  0
   42.8270   13.3608  -15.0205 C   0  0  0  0  0  0  0  0  0  0  0  0
   44.0419   13.6825  -14.4416 C   0  0  0  0  0  0  0  0  0  0  0  0
   45.2022   13.2495  -14.9904 C   0  0  0  0  0  0  0  0  0  0  0  0
   45.1354   12.4788  -16.1455 C   0  0  0  0  0  0  0  0  0  0  0  0
   43.9286   12.1553  -16.7292 C   0  0  0  0  0  0  0  0  0  0  0  0
   46.4431   13.5808  -14.3964 N   0  0  0  0  0  0  0  0  0  0  0  0
   47.6945   13.0216  -14.8228 C   0  0  0  0  0  0  0  0  0  0  0  0
   46.4379   14.5491  -13.3053 C   0  0  0  0  0  0  0  0  0  0  0  0
   37.2951   10.9737  -19.1360 C   0  0  0  0  0  0  0  0  0  0  0  0
   37.4148   10.5417  -17.6900 C   0  0  0  0  0  0  0  0  0  0  0  0
   36.1523   10.0888  -17.3063 O   0  0  0  0  0  0  0  0  0  0  0  0
   36.3031    9.2839  -16.7436 H   0  0  0  0  0  0  0  0  0  0  0  0
   37.4821   11.5668  -15.4646 N   0  0  0  0  0  0  0  0  0  0  0  0
   37.9833   10.8097  -14.8861 H   0  0  0  0  0  0  0  0  0  0  0  0
   36.4991   12.3086  -14.7827 C   0  0  0  0  0  0  0  0  0  0  0  0
   35.1560   12.0568  -14.9359 C   0  0  0  0  0  0  0  0  0  0  0  0
   34.2099   12.7891  -14.2506 C   0  0  0  0  0  0  0  0  0  0  0  0
   34.6213   13.8048  -13.3861 C   0  0  0  0  0  0  0  0  0  0  0  0
   35.9784   14.0547  -13.2364 C   0  0  0  0  0  0  0  0  0  0  0  0
   36.5141   15.3433  -12.1391 Cl  0  0  0  0  0  0  0  0  0  0  0  0
   36.9032   13.3144  -13.9265 C   0  0  0  0  0  0  0  0  0  0  0  0
   38.3445   13.6356  -13.7140 C   0  0  0  0  0  0  0  0  0  0  0  0
   33.7410   14.5791  -12.6656 N   0  0  0  0  0  0  0  0  0  0  0  0
   32.9964   15.2427  -12.0664 C   0  0  0  0  0  0  0  0  0  0  0  0
 16 17  1  0  0  0
 17 18  1  0  0  0
 17  1  1  0  0  0
  1 20  1  0  0  0
 20 22  1  0  0  0
 22 23  2  0  0  0
 23 24  1  0  0  0
 24 25  2  0  0  0
 25 30  1  0  0  0
 30 31  3  0  0  0
 25 26  1  0  0  0
 26 27  1  0  0  0
 26 28  2  0  0  0
 28 29  1  0  0  0
  1  2  1  0  0  0
  2  3  2  0  0  0
  3  4  1  0  0  0
  4  5  2  0  0  0
  5  6  1  0  0  0
  5  7  1  0  0  0
  7  8  2  0  0  0
  8  9  1  0  0  0
  9 10  2  0  0  0
 10 11  1  0  0  0
 11 12  2  0  0  0
 10 13  1  0  0  0
 13 14  1  0  0  0
 13 15  1  0  0  0
 28 22  1  0  0  0
  6  2  1  0  0  0
 12  7  1  0  0  0
 18 19  1  0  0  0
 20 21  1  0  0  0
M  CHG 1  30   1
M  CHG 1  31  -1
M  END
> <minimizedAffinity>
-7.90354

> <CNNscore>
0.7067404985

> <CNNaffinity>
7.3039770126

> <CNN_VS>
5.1620163918

> <CNNaffinity_variance>
0.0778569654

$$$$
[H]O[C@@]([H])(C([H])([H])[H])[C@]([H])(c1nnc(-c2c([H])c([H])c(N(C([H])([H])[H])C([H])([H])[H])c([H])c2[H])o1)N([H])c1c([H])c([H])c([N+]#[C-])c(Cl)c1C([H])([H])[H]


 31 33  0  0  0  0  0  0  0  0999 V2000
   39.8687   12.7170  -16.9559 C   0  0  0  0  0  0  0  0  0  0  0  0
   41.0522   12.9013  -16.0889 C   0  0  0  0  0  0  0  0  0  0  0  0
   42.2985   12.5155  -16.4258 N   0  0  0  0  0  0  0  0  0  0  0  0
   43.0970   12.8368  -15.4223 N   0  0  0  0  0  0  0  0  0  0  0  0
   42.3686   13.4155  -14.4687 C   0  0  0  0  0  0  0  0  0  0  0  0
   41.1321   13.4407  -14.9008 O   0  0  0  0  0  0  0  0  0  0  0  0
   42.8444   13.9370  -13.1684 C   0  0  0  0  0  0  0  0  0  0  0  0
   43.8541   13.3498  -12.4459 C   0  0  0  0  0  0  0  0  0  0  0  0
   44.2960   13.8736  -11.2438 C   0  0  0  0  0  0  0  0  0  0  0  0
   43.7382   14.9991  -10.7367 C   0  0  0  0  0  0  0  0  0  0  0  0
   42.7147   15.6064  -11.4552 C   0  0  0  0  0  0  0  0  0  0  0  0
   42.2677   15.0896  -12.6530 C   0  0  0  0  0  0  0  0  0  0  0  0
   44.1917   15.5319   -9.5067 N   0  0  0  0  0  0  0  0  0  0  0  0
   45.4971   15.2716   -8.9694 C   0  0  0  0  0  0  0  0  0  0  0  0
   43.2821   16.3971   -8.7636 C   0  0  0  0  0  0  0  0  0  0  0  0
   39.5164   11.0686  -18.8053 C   0  0  0  0  0  0  0  0  0  0  0  0
   40.3490   12.2301  -18.3056 C   0  0  0  0  0  0  0  0  0  0  0  0
   41.6691   11.7812  -18.2624 O   0  0  0  0  0  0  0  0  0  0  0  0
   42.2311   12.5335  -18.5871 H   0  0  0  0  0  0  0  0  0  0  0  0
   38.8094   11.9450  -16.4198 N   0  0  0  0  0  0  0  0  0  0  0  0
   38.8819   10.8853  -16.5954 H   0  0  0  0  0  0  0  0  0  0  0  0
   37.6789   12.3705  -15.6970 C   0  0  0  0  0  0  0  0  0  0  0  0
   37.7684   13.2777  -14.6674 C   0  0  0  0  0  0  0  0  0  0  0  0
   36.6469   13.6885  -13.9787 C   0  0  0  0  0  0  0  0  0  0  0  0
   35.3979   13.1749  -14.3313 C   0  0  0  0  0  0  0  0  0  0  0  0
   35.3142   12.2588  -15.3708 C   0  0  0  0  0  0  0  0  0  0  0  0
   33.7310   11.5990  -15.8292 Cl  0  0  0  0  0  0  0  0  0  0  0  0
   36.4415   11.8639  -16.0435 C   0  0  0  0  0  0  0  0  0  0  0  0
   36.2764   10.8793  -17.1521 C   0  0  0  0  0  0  0  0  0  0  0  0
   34.2318   13.5346  -13.6952 N   0  0  0  0  0  0  0  0  0  0  0  0
   33.2440   13.8260  -13.1538 C   0  0  0  0  0  0  0  0  0  0  0  0
 16 17  1  0  0  0
 17 18  1  0  0  0
 17  1  1  0  0  0
  1 20  1  0  0  0
 20 22  1  0  0  0
 22 23  2  0  0  0
 23 24  1  0  0  0
 24 25  2  0  0  0
 25 30  1  0  0  0
 30 31  3  0  0  0
 25 26  1  0  0  0
 26 27  1  0  0  0
 26 28  2  0  0  0
 28 29  1  0  0  0
  1  2  1  0  0  0
  2  3  2  0  0  0
  3  4  1  0  0  0
  4  5  2  0  0  0
  5  6  1  0  0  0
  5  7  1  0  0  0
  7  8  2  0  0  0
  8  9  1  0  0  0
  9 10  2  0  0  0
 10 11  1  0  0  0
 11 12  2  0  0  0
 10 13  1  0  0  0
 13 14  1  0  0  0
 13 15  1  0  0  0
 28 22  1  0  0  0
  6  2  1  0  0  0
 12  7  1  0  0  0
 18 19  1  0  0  0
 20 21  1  0  0  0
M  CHG 1  30   1
M  CHG 1  31  -1
M  END
> <minimizedAffinity>
-8.19693

> <CNNscore>
0.6142762303

> <CNNaffinity>
7.2193374634

> <CNN_VS>
4.4346675873

> <CNNaffinity_variance>
0.0312071946

$$$$
[H]O[C@@]([H])(C([H])([H])[H])[C@]([H])(c1nnc(-c2c([H])c([H])c(N(C([H])([H])[H])C([H])([H])[H])c([H])c2[H])o1)N([H])c1c([H])c([H])c([N+]#[C-])c(Cl)c1C([H])([H])[H]


 31 33  0  0  0  0  0  0  0  0999 V2000
   40.0360   12.6377  -16.8362 C   0  0  0  0  0  0  0  0  0  0  0  0
   41.4287   12.7266  -16.3476 C   0  0  0  0  0  0  0  0  0  0  0  0
   42.4541   12.0235  -16.8670 N   0  0  0  0  0  0  0  0  0  0  0  0
   43.5420   12.3530  -16.1918 N   0  0  0  0  0  0  0  0  0  0  0  0
   43.2101   13.2484  -15.2629 C   0  0  0  0  0  0  0  0  0  0  0  0
   41.9219   13.4556  -15.3810 O   0  0  0  0  0  0  0  0  0  0  0  0
   44.1070   13.8966  -14.2807 C   0  0  0  0  0  0  0  0  0  0  0  0
   44.0460   13.6530  -12.9304 C   0  0  0  0  0  0  0  0  0  0  0  0
   44.9141   14.2549  -12.0367 C   0  0  0  0  0  0  0  0  0  0  0  0
   45.8653   15.1147  -12.4738 C   0  0  0  0  0  0  0  0  0  0  0  0
   45.9410   15.3728  -13.8378 C   0  0  0  0  0  0  0  0  0  0  0  0
   45.0785   14.7781  -14.7344 C   0  0  0  0  0  0  0  0  0  0  0  0
   46.7512   15.7292  -11.5573 N   0  0  0  0  0  0  0  0  0  0  0  0
   47.5301   14.9942  -10.6015 C   0  0  0  0  0  0  0  0  0  0  0  0
   46.8790   17.1817  -11.6048 C   0  0  0  0  0  0  0  0  0  0  0  0
   39.2436   10.9422  -18.4972 C   0  0  0  0  0  0  0  0  0  0  0  0
   40.0748   12.1888  -18.2806 C   0  0  0  0  0  0  0  0  0  0  0  0
   41.3691   11.8794  -18.6995 O   0  0  0  0  0  0  0  0  0  0  0  0
   41.7080   12.6824  -19.1766 H   0  0  0  0  0  0  0  0  0  0  0  0
   39.1343   11.8940  -16.0364 N   0  0  0  0  0  0  0  0  0  0  0  0
   39.4647   10.9029  -15.7763 H   0  0  0  0  0  0  0  0  0  0  0  0
   37.8710   12.2685  -15.5413 C   0  0  0  0  0  0  0  0  0  0  0  0
   36.7020   11.7812  -16.0770 C   0  0  0  0  0  0  0  0  0  0  0  0
   35.4750   12.1535  -15.5703 C   0  0  0  0  0  0  0  0  0  0  0  0
   35.4168   13.0412  -14.4947 C   0  0  0  0  0  0  0  0  0  0  0  0
   36.6002   13.5303  -13.9589 C   0  0  0  0  0  0  0  0  0  0  0  0
   36.5392   14.6593  -12.5902 Cl  0  0  0  0  0  0  0  0  0  0  0  0
   37.8101   13.1470  -14.4771 C   0  0  0  0  0  0  0  0  0  0  0  0
   39.0411   13.7092  -13.8492 C   0  0  0  0  0  0  0  0  0  0  0  0
   34.2335   13.4605  -13.9311 N   0  0  0  0  0  0  0  0  0  0  0  0
   33.2397   13.8189  -13.4436 C   0  0  0  0  0  0  0  0  0  0  0  0
 16 17  1  0  0  0
 17 18  1  0  0  0
 17  1  1  0  0  0
  1 20  1  0  0  0
 20 22  1  0  0  0
 22 23  2  0  0  0
 23 24  1  0  0  0
 24 25  2  0  0  0
 25 30  1  0  0  0
 30 31  3  0  0  0
 25 26  1  0  0  0
 26 27  1  0  0  0
 26 28  2  0  0  0
 28 29  1  0  0  0
  1  2  1  0  0  0
  2  3  2  0  0  0
  3  4  1  0  0  0
  4  5  2  0  0  0
  5  6  1  0  0  0
  5  7  1  0  0  0
  7  8  2  0  0  0
  8  9  1  0  0  0
  9 10  2  0  0  0
 10 11  1  0  0  0
 11 12  2  0  0  0
 10 13  1  0  0  0
 13 14  1  0  0  0
 13 15  1  0  0  0
 28 22  1  0  0  0
  6  2  1  0  0  0
 12  7  1  0  0  0
 18 19  1  0  0  0
 20 21  1  0  0  0
M  CHG 1  30   1
M  CHG 1  31  -1
M  END
> <minimizedAffinity>
-7.47534

> <CNNscore>
0.4964150190

> <CNNaffinity>
6.9379568100

> <CNN_VS>
3.4441058636

> <CNNaffinity_variance>
0.1020952463

$$$$
[H]O[C@@]([H])(C([H])([H])[H])[C@]([H])(c1nnc(-c2c([H])c([H])c(N(C([H])([H])[H])C([H])([H])[H])c([H])c2[H])o1)N([H])c1c([H])c([H])c([N+]#[C-])c(Cl)c1C([H])([H])[H]


 31 33  0  0  0  0  0  0  0  0999 V2000
   38.6042   11.9657  -16.6631 C   0  0  0  0  0  0  0  0  0  0  0  0
   39.9006   12.6496  -16.4684 C   0  0  0  0  0  0  0  0  0  0  0  0
   40.2810   13.7481  -17.1496 N   0  0  0  0  0  0  0  0  0  0  0  0
   41.4851   14.0836  -16.7188 N   0  0  0  0  0  0  0  0  0  0  0  0
   41.8585   13.2132  -15.7819 C   0  0  0  0  0  0  0  0  0  0  0  0
   40.8776   12.3547  -15.6514 O   0  0  0  0  0  0  0  0  0  0  0  0
   43.1287   13.2018  -15.0231 C   0  0  0  0  0  0  0  0  0  0  0  0
   44.3530   12.9891  -15.6080 C   0  0  0  0  0  0  0  0  0  0  0  0
   45.5280   13.0084  -14.8774 C   0  0  0  0  0  0  0  0  0  0  0  0
   45.5054   13.2426  -13.5433 C   0  0  0  0  0  0  0  0  0  0  0  0
   44.2743   13.4599  -12.9351 C   0  0  0  0  0  0  0  0  0  0  0  0
   43.0990   13.4407  -13.6560 C   0  0  0  0  0  0  0  0  0  0  0  0
   46.7086   13.2610  -12.7987 N   0  0  0  0  0  0  0  0  0  0  0  0
   47.9559   12.7634  -13.3056 C   0  0  0  0  0  0  0  0  0  0  0  0
   46.6683   13.8277  -11.4551 C   0  0  0  0  0  0  0  0  0  0  0  0
   39.7098   11.1983  -18.7727 C   0  0  0  0  0  0  0  0  0  0  0  0
   38.8251   10.8053  -17.6087 C   0  0  0  0  0  0  0  0  0  0  0  0
   37.6298   10.3417  -18.1589 O   0  0  0  0  0  0  0  0  0  0  0  0
   37.3596    9.5539  -17.6170 H   0  0  0  0  0  0  0  0  0  0  0  0
   37.8961   11.6120  -15.4888 N   0  0  0  0  0  0  0  0  0  0  0  0
   37.8243   10.5546  -15.2995 H   0  0  0  0  0  0  0  0  0  0  0  0
   37.2729   12.4476  -14.5428 C   0  0  0  0  0  0  0  0  0  0  0  0
   37.9852   13.1086  -13.5698 C   0  0  0  0  0  0  0  0  0  0  0  0
   37.3560   13.9304  -12.6589 C   0  0  0  0  0  0  0  0  0  0  0  0
   35.9715   14.0947  -12.7239 C   0  0  0  0  0  0  0  0  0  0  0  0
   35.2580   13.4242  -13.7078 C   0  0  0  0  0  0  0  0  0  0  0  0
   33.4966   13.6259  -13.8013 Cl  0  0  0  0  0  0  0  0  0  0  0  0
   35.9029   12.6122  -14.6046 C   0  0  0  0  0  0  0  0  0  0  0  0
   35.0734   11.9257  -15.6372 C   0  0  0  0  0  0  0  0  0  0  0  0
   35.2694   14.8972  -11.8539 N   0  0  0  0  0  0  0  0  0  0  0  0
   34.6653   15.5675  -11.1193 C   0  0  0  0  0  0  0  0  0  0  0  0
 16 17  1  0  0  0
 17 18  1  0  0  0
 17  1  1  0  0  0
  1 20  1  0  0  0
 20 22  1  0  0  0
 22 23  2  0  0  0
 23 24  1  0  0  0
 24 25  2  0  0  0
 25 30  1  0  0  0
 30 31  3  0  0  0
 25 26  1  0  0  0
 26 27  1  0  0  0
 26 28  2  0  0  0
 28 29  1  0  0  0
  1  2  1  0  0  0
  2  3  2  0  0  0
  3  4  1  0  0  0
  4  5  2  0  0  0
  5  6  1  0  0  0
  5  7  1  0  0  0
  7  8  2  0  0  0
  8  9  1  0  0  0
  9 10  2  0  0  0
 10 11  1  0  0  0
 11 12  2  0  0  0
 10 13  1  0  0  0
 13 14  1  0  0  0
 13 15  1  0  0  0
 28 22  1  0  0  0
  6  2  1  0  0  0
 12  7  1  0  0  0
 18 19  1  0  0  0
 20 21  1  0  0  0
M  CHG 1  30   1
M  CHG 1  31  -1
M  END
> <minimizedAffinity>
-7.34808

> <CNNscore>
0.3987956047

> <CNNaffinity>
6.9083261490

> <CNN_VS>
2.7550101280

> <CNNaffinity_variance>
0.0726902708

$$$$
[H]O[C@@]([H])(C([H])([H])[H])[C@]([H])(c1nnc(-c2c([H])c([H])c(N(C([H])([H])[H])C([H])([H])[H])c([H])c2[H])o1)N([H])c1c([H])c([H])c([N+]#[C-])c(Cl)c1C([H])([H])[H]


 31 33  0  0  0  0  0  0  0  0999 V2000
   34.5971   14.7430  -12.2765 C   0  0  0  0  0  0  0  0  0  0  0  0
   35.6046   15.4666  -11.4716 C   0  0  0  0  0  0  0  0  0  0  0  0
   36.1249   16.6610  -11.8153 N   0  0  0  0  0  0  0  0  0  0  0  0
   36.9841   17.0047  -10.8711 N   0  0  0  0  0  0  0  0  0  0  0  0
   37.0060   16.0451   -9.9473 C   0  0  0  0  0  0  0  0  0  0  0  0
   36.1594   15.1249  -10.3384 O   0  0  0  0  0  0  0  0  0  0  0  0
   37.8192   16.0075   -8.7118 C   0  0  0  0  0  0  0  0  0  0  0  0
   38.3453   17.1311   -8.1226 C   0  0  0  0  0  0  0  0  0  0  0  0
   39.0819   17.0692   -6.9528 C   0  0  0  0  0  0  0  0  0  0  0  0
   39.3084   15.8804   -6.3440 C   0  0  0  0  0  0  0  0  0  0  0  0
   38.7831   14.7329   -6.9272 C   0  0  0  0  0  0  0  0  0  0  0  0
   38.0495   14.7863   -8.0936 C   0  0  0  0  0  0  0  0  0  0  0  0
   40.0627   15.8202   -5.1483 N   0  0  0  0  0  0  0  0  0  0  0  0
   41.4892   15.6627   -5.1241 C   0  0  0  0  0  0  0  0  0  0  0  0
   39.3439   15.9373   -3.8842 C   0  0  0  0  0  0  0  0  0  0  0  0
   33.1241   15.5871  -10.4382 C   0  0  0  0  0  0  0  0  0  0  0  0
   33.2323   15.2896  -11.9187 C   0  0  0  0  0  0  0  0  0  0  0  0
   32.2108   14.3874  -12.2169 O   0  0  0  0  0  0  0  0  0  0  0  0
   31.8408   14.6648  -13.0963 H   0  0  0  0  0  0  0  0  0  0  0  0
   34.8332   14.6789  -13.6714 N   0  0  0  0  0  0  0  0  0  0  0  0
   34.1982   15.3078  -14.2717 H   0  0  0  0  0  0  0  0  0  0  0  0
   35.7755   13.9073  -14.3773 C   0  0  0  0  0  0  0  0  0  0  0  0
   37.1219   14.1842  -14.3403 C   0  0  0  0  0  0  0  0  0  0  0  0
   38.0291   13.4094  -15.0315 C   0  0  0  0  0  0  0  0  0  0  0  0
   37.5740   12.3249  -15.7831 C   0  0  0  0  0  0  0  0  0  0  0  0
   36.2137   12.0511  -15.8172 C   0  0  0  0  0  0  0  0  0  0  0  0
   35.6227   10.6738  -16.7688 Cl  0  0  0  0  0  0  0  0  0  0  0  0
   35.3282   12.8335  -15.1221 C   0  0  0  0  0  0  0  0  0  0  0  0
   33.8813   12.4786  -15.2011 C   0  0  0  0  0  0  0  0  0  0  0  0
   38.4140   11.5031  -16.4992 N   0  0  0  0  0  0  0  0  0  0  0  0
   39.1243   10.7995  -17.0945 C   0  0  0  0  0  0  0  0  0  0  0  0
 16 17  1  0  0  0
 17 18  1  0  0  0
 17  1  1  0  0  0
  1 20  1  0  0  0
 20 22  1  0  0  0
 22 23  2  0  0  0
 23 24  1  0  0  0
 24 25  2  0  0  0
 25 30  1  0  0  0
 30 31  3  0  0  0
 25 26  1  0  0  0
 26 27  1  0  0  0
 26 28  2  0  0  0
 28 29  1  0  0  0
  1  2  1  0  0  0
  2  3  2  0  0  0
  3  4  1  0  0  0
  4  5  2  0  0  0
  5  6  1  0  0  0
  5  7  1  0  0  0
  7  8  2  0  0  0
  8  9  1  0  0  0
  9 10  2  0  0  0
 10 11  1  0  0  0
 11 12  2  0  0  0
 10 13  1  0  0  0
 13 14  1  0  0  0
 13 15  1  0  0  0
 28 22  1  0  0  0
  6  2  1  0  0  0
 12  7  1  0  0  0
 18 19  1  0  0  0
 20 21  1  0  0  0
M  CHG 1  30   1
M  CHG 1  31  -1
M  END
> <minimizedAffinity>
-7.06697

> <CNNscore>
0.3347317874

> <CNNaffinity>
6.2786488533

> <CNN_VS>
2.1016633511

> <CNNaffinity_variance>
0.1065793484

$$$$
[H]O[C@@]([H])(C([H])([H])[H])[C@]([H])(c1nnc(-c2c([H])c([H])c(N(C([H])([H])[H])C([H])([H])[H])c([H])c2[H])o1)N([H])c1c([H])c([H])c([N+]#[C-])c(Cl)c1C([H])([H])[H]


 31 33  0  0  0  0  0  0  0  0999 V2000
   36.2033   12.8425  -13.3618 C   0  0  0  0  0  0  0  0  0  0  0  0
   36.1237   13.9349  -12.3685 C   0  0  0  0  0  0  0  0  0  0  0  0
   36.1651   15.2438  -12.6853 N   0  0  0  0  0  0  0  0  0  0  0  0
   36.0669   15.9271  -11.5578 N   0  0  0  0  0  0  0  0  0  0  0  0
   35.9648   15.0656  -10.5468 C   0  0  0  0  0  0  0  0  0  0  0  0
   36.0024   13.8646  -11.0688 O   0  0  0  0  0  0  0  0  0  0  0  0
   35.8319   15.3828   -9.1077 C   0  0  0  0  0  0  0  0  0  0  0  0
   36.3189   14.5736   -8.1105 C   0  0  0  0  0  0  0  0  0  0  0  0
   36.2022   14.9074   -6.7728 C   0  0  0  0  0  0  0  0  0  0  0  0
   35.5961   16.0605   -6.4012 C   0  0  0  0  0  0  0  0  0  0  0  0
   35.0973   16.8913   -7.3979 C   0  0  0  0  0  0  0  0  0  0  0  0
   35.2082   16.5649   -8.7331 C   0  0  0  0  0  0  0  0  0  0  0  0
   35.4776   16.3987   -5.0323 N   0  0  0  0  0  0  0  0  0  0  0  0
   36.4617   16.0501   -4.0471 C   0  0  0  0  0  0  0  0  0  0  0  0
   34.2979   17.1495   -4.6168 C   0  0  0  0  0  0  0  0  0  0  0  0
   34.4326   12.2080  -15.0121 C   0  0  0  0  0  0  0  0  0  0  0  0
   34.8121   12.2776  -13.5482 C   0  0  0  0  0  0  0  0  0  0  0  0
   33.8400   13.0596  -12.9239 O   0  0  0  0  0  0  0  0  0  0  0  0
   33.6526   12.6272  -12.0491 H   0  0  0  0  0  0  0  0  0  0  0  0
   36.8591   13.1454  -14.5798 N   0  0  0  0  0  0  0  0  0  0  0  0
   36.2103   13.4374  -15.3878 H   0  0  0  0  0  0  0  0  0  0  0  0
   38.2342   13.1134  -14.8791 C   0  0  0  0  0  0  0  0  0  0  0  0
   39.1628   13.7898  -14.1234 C   0  0  0  0  0  0  0  0  0  0  0  0
   40.5064   13.7369  -14.4283 C   0  0  0  0  0  0  0  0  0  0  0  0
   40.9330   12.9843  -15.5236 C   0  0  0  0  0  0  0  0  0  0  0  0
   39.9908   12.3044  -16.2831 C   0  0  0  0  0  0  0  0  0  0  0  0
   40.5211   11.3430  -17.6782 Cl  0  0  0  0  0  0  0  0  0  0  0  0
   38.6594   12.3695  -15.9625 C   0  0  0  0  0  0  0  0  0  0  0  0
   37.7034   11.6107  -16.8203 C   0  0  0  0  0  0  0  0  0  0  0  0
   42.2544   12.8793  -15.8930 N   0  0  0  0  0  0  0  0  0  0  0  0
   43.3732   12.8037  -16.2035 C   0  0  0  0  0  0  0  0  0  0  0  0
 16 17  1  0  0  0
 17 18  1  0  0  0
 17  1  1  0  0  0
  1 20  1  0  0  0
 20 22  1  0  0  0
 22 23  2  0  0  0
 23 24  1  0  0  0
 24 25  2  0  0  0
 25 30  1  0  0  0
 30 31  3  0  0  0
 25 26  1  0  0  0
 26 27  1  0  0  0
 26 28  2  0  0  0
 28 29  1  0  0  0
  1  2  1  0  0  0
  2  3  2  0  0  0
  3  4  1  0  0  0
  4  5  2  0  0  0
  5  6  1  0  0  0
  5  7  1  0  0  0
  7  8  2  0  0  0
  8  9  1  0  0  0
  9 10  2  0  0  0
 10 11  1  0  0  0
 11 12  2  0  0  0
 10 13  1  0  0  0
 13 14  1  0  0  0
 13 15  1  0  0  0
 28 22  1  0  0  0
  6  2  1  0  0  0
 12  7  1  0  0  0
 18 19  1  0  0  0
 20 21  1  0  0  0
M  CHG 1  30   1
M  CHG 1  31  -1
M  END
> <minimizedAffinity>
-7.53844

> <CNNscore>
0.2505752742

> <CNNaffinity>
6.0287232399

> <CNN_VS>
1.5106489658

> <CNNaffinity_variance>
0.1784850955

$$$$
[H]O[C@@]([H])(C([H])([H])[H])[C@]([H])(c1nnc(-c2c([H])c([H])c(N(C([H])([H])[H])C([H])([H])[H])c([H])c2[H])o1)N([H])c1c([H])c([H])c([N+]#[C-])c(Cl)c1C([H])([H])[H]


 31 33  0  0  0  0  0  0  0  0999 V2000
   35.7334   13.5059  -12.9790 C   0  0  0  0  0  0  0  0  0  0  0  0
   35.8893   14.3823  -11.7983 C   0  0  0  0  0  0  0  0  0  0  0  0
   35.9449   15.7270  -11.8622 N   0  0  0  0  0  0  0  0  0  0  0  0
   36.0841   16.1764  -10.6267 N   0  0  0  0  0  0  0  0  0  0  0  0
   36.1154   15.1346   -9.7970 C   0  0  0  0  0  0  0  0  0  0  0  0
   35.9953   14.0595  -10.5360 O   0  0  0  0  0  0  0  0  0  0  0  0
   36.2556   15.1644   -8.3244 C   0  0  0  0  0  0  0  0  0  0  0  0
   37.2322   15.8797   -7.6756 C   0  0  0  0  0  0  0  0  0  0  0  0
   37.3247   15.9094   -6.2953 C   0  0  0  0  0  0  0  0  0  0  0  0
   36.4405   15.2243   -5.5311 C   0  0  0  0  0  0  0  0  0  0  0  0
   35.4455   14.4948   -6.1717 C   0  0  0  0  0  0  0  0  0  0  0  0
   35.3476   14.4590   -7.5467 C   0  0  0  0  0  0  0  0  0  0  0  0
   36.5382   15.2561   -4.1198 N   0  0  0  0  0  0  0  0  0  0  0  0
   37.7567   14.9916   -3.4086 C   0  0  0  0  0  0  0  0  0  0  0  0
   35.3363   15.5872   -3.3622 C   0  0  0  0  0  0  0  0  0  0  0  0
   33.8216   13.5541  -14.5928 C   0  0  0  0  0  0  0  0  0  0  0  0
   34.2560   13.2450  -13.1758 C   0  0  0  0  0  0  0  0  0  0  0  0
   33.4673   14.0347  -12.3388 O   0  0  0  0  0  0  0  0  0  0  0  0
   33.2323   13.4665  -11.5582 H   0  0  0  0  0  0  0  0  0  0  0  0
   36.3980   13.9163  -14.1602 N   0  0  0  0  0  0  0  0  0  0  0  0
   35.7909   14.4669  -14.8583 H   0  0  0  0  0  0  0  0  0  0  0  0
   37.7343   13.7010  -14.5469 C   0  0  0  0  0  0  0  0  0  0  0  0
   38.7790   14.3963  -13.9848 C   0  0  0  0  0  0  0  0  0  0  0  0
   40.0817   14.1628  -14.3713 C   0  0  0  0  0  0  0  0  0  0  0  0
   40.3462   13.2043  -15.3509 C   0  0  0  0  0  0  0  0  0  0  0  0
   39.2873   12.5065  -15.9152 C   0  0  0  0  0  0  0  0  0  0  0  0
   39.6110   11.2843  -17.1615 Cl  0  0  0  0  0  0  0  0  0  0  0  0
   37.9991   12.7533  -15.5162 C   0  0  0  0  0  0  0  0  0  0  0  0
   36.9112   11.9634  -16.1628 C   0  0  0  0  0  0  0  0  0  0  0  0
   41.6169   12.9114  -15.7903 N   0  0  0  0  0  0  0  0  0  0  0  0
   42.6923   12.6542  -16.1526 C   0  0  0  0  0  0  0  0  0  0  0  0
 16 17  1  0  0  0
 17 18  1  0  0  0
 17  1  1  0  0  0
  1 20  1  0  0  0
 20 22  1  0  0  0
 22 23  2  0  0  0
 23 24  1  0  0  0
 24 25  2  0  0  0
 25 30  1  0  0  0
 30 31  3  0  0  0
 25 26  1  0  0  0
 26 27  1  0  0  0
 26 28  2  0  0  0
 28 29  1  0  0  0
  1  2  1  0  0  0
  2  3  2  0  0  0
  3  4  1  0  0  0
  4  5  2  0  0  0
  5  6  1  0  0  0
  5  7  1  0  0  0
  7  8  2  0  0  0
  8  9  1  0  0  0
  9 10  2  0  0  0
 10 11  1  0  0  0
 11 12  2  0  0  0
 10 13  1  0  0  0
 13 14  1  0  0  0
 13 15  1  0  0  0
 28 22  1  0  0  0
  6  2  1  0  0  0
 12  7  1  0  0  0
 18 19  1  0  0  0
 20 21  1  0  0  0
M  CHG 1  30   1
M  CHG 1  31  -1
M  END
> <minimizedAffinity>
-7.66540

> <CNNscore>
0.2268866599

> <CNNaffinity>
5.8980689049

> <CNN_VS>
1.3381931782

> <CNNaffinity_variance>
0.2023573816

$$$$
[H]O[C@@]([H])(C([H])([H])[H])[C@]([H])(c1nnc(-c2c([H])c([H])c(N(C([H])([H])[H])C([H])([H])[H])c([H])c2[H])o1)N([H])c1c([H])c([H])c([N+]#[C-])c(Cl)c1C([H])([H])[H]


 31 33  0  0  0  0  0  0  0  0999 V2000
   40.1715   13.9279  -15.1835 C   0  0  0  0  0  0  0  0  0  0  0  0
   41.2958   14.0578  -14.2318 C   0  0  0  0  0  0  0  0  0  0  0  0
   41.5410   15.1650  -13.5044 N   0  0  0  0  0  0  0  0  0  0  0  0
   42.6131   14.9256  -12.7686 N   0  0  0  0  0  0  0  0  0  0  0  0
   43.0373   13.6893  -13.0262 C   0  0  0  0  0  0  0  0  0  0  0  0
   42.2190   13.1872  -13.9176 O   0  0  0  0  0  0  0  0  0  0  0  0
   44.2022   12.9982  -12.4307 C   0  0  0  0  0  0  0  0  0  0  0  0
   44.2045   12.4902  -11.1546 C   0  0  0  0  0  0  0  0  0  0  0  0
   45.3001   11.8263  -10.6317 C   0  0  0  0  0  0  0  0  0  0  0  0
   46.4197   11.6538  -11.3746 C   0  0  0  0  0  0  0  0  0  0  0  0
   46.4344   12.1619  -12.6685 C   0  0  0  0  0  0  0  0  0  0  0  0
   45.3472   12.8261  -13.1962 C   0  0  0  0  0  0  0  0  0  0  0  0
   47.5388   10.9750  -10.8368 N   0  0  0  0  0  0  0  0  0  0  0  0
   48.8919   11.2579  -11.2234 C   0  0  0  0  0  0  0  0  0  0  0  0
   47.2921    9.9472   -9.8313 C   0  0  0  0  0  0  0  0  0  0  0  0
   40.3340   12.2220  -17.0069 C   0  0  0  0  0  0  0  0  0  0  0  0
   40.7464   13.6035  -16.5450 C   0  0  0  0  0  0  0  0  0  0  0  0
   42.1413   13.6205  -16.5434 O   0  0  0  0  0  0  0  0  0  0  0  0
   42.4106   14.5108  -16.8930 H   0  0  0  0  0  0  0  0  0  0  0  0
   39.1145   13.0688  -14.7960 N   0  0  0  0  0  0  0  0  0  0  0  0
   39.3108   12.0177  -14.9211 H   0  0  0  0  0  0  0  0  0  0  0  0
   37.8482   13.3983  -14.2769 C   0  0  0  0  0  0  0  0  0  0  0  0
   37.6881   14.3233  -13.2722 C   0  0  0  0  0  0  0  0  0  0  0  0
   36.4374   14.6386  -12.7849 C   0  0  0  0  0  0  0  0  0  0  0  0
   35.3129   14.0079  -13.3197 C   0  0  0  0  0  0  0  0  0  0  0  0
   35.4811   13.0744  -14.3332 C   0  0  0  0  0  0  0  0  0  0  0  0
   34.0585   12.2661  -15.0221 Cl  0  0  0  0  0  0  0  0  0  0  0  0
   36.7335   12.7757  -14.8041 C   0  0  0  0  0  0  0  0  0  0  0  0
   36.8391   11.7656  -15.8969 C   0  0  0  0  0  0  0  0  0  0  0  0
   34.0317   14.2675  -12.8901 N   0  0  0  0  0  0  0  0  0  0  0  0
   32.9438   14.4765  -12.5340 C   0  0  0  0  0  0  0  0  0  0  0  0
 16 17  1  0  0  0
 17 18  1  0  0  0
 17  1  1  0  0  0
  1 20  1  0  0  0
 20 22  1  0  0  0
 22 23  2  0  0  0
 23 24  1  0  0  0
 24 25  2  0  0  0
 25 30  1  0  0  0
 30 31  3  0  0  0
 25 26  1  0  0  0
 26 27  1  0  0  0
 26 28  2  0  0  0
 28 29  1  0  0  0
  1  2  1  0  0  0
  2  3  2  0  0  0
  3  4  1  0  0  0
  4  5  2  0  0  0
  5  6  1  0  0  0
  5  7  1  0  0  0
  7  8  2  0  0  0
  8  9  1  0  0  0
  9 10  2  0  0  0
 10 11  1  0  0  0
 11 12  2  0  0  0
 10 13  1  0  0  0
 13 14  1  0  0  0
 13 15  1  0  0  0
 28 22  1  0  0  0
  6  2  1  0  0  0
 12  7  1  0  0  0
 18 19  1  0  0  0
 20 21  1  0  0  0
M  CHG 1  30   1
M  CHG 1  31  -1
M  END
> <minimizedAffinity>
-7.06779

> <CNNscore>
0.2219873965

> <CNNaffinity>
6.2768836021

> <CNN_VS>
1.3933891058

> <CNNaffinity_variance>
0.0525798984

$$$$
[H]O[C@@]([H])(C([H])([H])[H])[C@]([H])(c1nnc(-c2c([H])c([H])c(N(C([H])([H])[H])C([H])([H])[H])c([H])c2[H])o1)N([H])c1c([H])c([H])c([N+]#[C-])c(Cl)c1C([H])([H])[H]


 31 33  0  0  0  0  0  0  0  0999 V2000
   36.3318   12.0957  -16.1924 C   0  0  0  0  0  0  0  0  0  0  0  0
   37.7915   12.0930  -16.4283 C   0  0  0  0  0  0  0  0  0  0  0  0
   38.3772   11.5443  -17.5106 N   0  0  0  0  0  0  0  0  0  0  0  0
   39.6810   11.7280  -17.3907 N   0  0  0  0  0  0  0  0  0  0  0  0
   39.9148   12.3812  -16.2535 C   0  0  0  0  0  0  0  0  0  0  0  0
   38.7501   12.5890  -15.6908 O   0  0  0  0  0  0  0  0  0  0  0  0
   41.2268   12.8016  -15.7138 C   0  0  0  0  0  0  0  0  0  0  0  0
   42.4182   12.5466  -16.3479 C   0  0  0  0  0  0  0  0  0  0  0  0
   43.6293   12.9734  -15.8324 C   0  0  0  0  0  0  0  0  0  0  0  0
   43.6765   13.6672  -14.6698 C   0  0  0  0  0  0  0  0  0  0  0  0
   42.4797   13.9339  -14.0147 C   0  0  0  0  0  0  0  0  0  0  0  0
   41.2690   13.5106  -14.5213 C   0  0  0  0  0  0  0  0  0  0  0  0
   44.9167   14.1017  -14.1448 N   0  0  0  0  0  0  0  0  0  0  0  0
   45.0324   15.1130  -13.1327 C   0  0  0  0  0  0  0  0  0  0  0  0
   46.1297   13.4740  -14.6575 C   0  0  0  0  0  0  0  0  0  0  0  0
   34.1995   11.0474  -16.9773 C   0  0  0  0  0  0  0  0  0  0  0  0
   35.6959   11.1467  -17.1846 C   0  0  0  0  0  0  0  0  0  0  0  0
   36.1986    9.8506  -17.0676 O   0  0  0  0  0  0  0  0  0  0  0  0
   36.8959    9.7568  -17.7693 H   0  0  0  0  0  0  0  0  0  0  0  0
   35.9093   11.8854  -14.8572 N   0  0  0  0  0  0  0  0  0  0  0  0
   35.5672   10.8884  -14.6378 H   0  0  0  0  0  0  0  0  0  0  0  0
   35.8710   12.7962  -13.7846 C   0  0  0  0  0  0  0  0  0  0  0  0
   36.9726   13.0504  -13.0018 C   0  0  0  0  0  0  0  0  0  0  0  0
   36.9161   13.9540  -11.9620 C   0  0  0  0  0  0  0  0  0  0  0  0
   35.7200   14.6230  -11.6977 C   0  0  0  0  0  0  0  0  0  0  0  0
   34.6113   14.3615  -12.4909 C   0  0  0  0  0  0  0  0  0  0  0  0
   33.0844   15.2068  -12.1652 Cl  0  0  0  0  0  0  0  0  0  0  0  0
   34.6887   13.4597  -13.5205 C   0  0  0  0  0  0  0  0  0  0  0  0
   33.4591   13.2310  -14.3339 C   0  0  0  0  0  0  0  0  0  0  0  0
   35.5818   15.5396  -10.6807 N   0  0  0  0  0  0  0  0  0  0  0  0
   35.4782   16.3156   -9.8198 C   0  0  0  0  0  0  0  0  0  0  0  0
 16 17  1  0  0  0
 17 18  1  0  0  0
 17  1  1  0  0  0
  1 20  1  0  0  0
 20 22  1  0  0  0
 22 23  2  0  0  0
 23 24  1  0  0  0
 24 25  2  0  0  0
 25 30  1  0  0  0
 30 31  3  0  0  0
 25 26  1  0  0  0
 26 27  1  0  0  0
 26 28  2  0  0  0
 28 29  1  0  0  0
  1  2  1  0  0  0
  2  3  2  0  0  0
  3  4  1  0  0  0
  4  5  2  0  0  0
  5  6  1  0  0  0
  5  7  1  0  0  0
  7  8  2  0  0  0
  8  9  1  0  0  0
  9 10  2  0  0  0
 10 11  1  0  0  0
 11 12  2  0  0  0
 10 13  1  0  0  0
 13 14  1  0  0  0
 13 15  1  0  0  0
 28 22  1  0  0  0
  6  2  1  0  0  0
 12  7  1  0  0  0
 18 19  1  0  0  0
 20 21  1  0  0  0
M  CHG 1  30   1
M  CHG 1  31  -1
M  END
> <minimizedAffinity>
-7.91963

> <CNNscore>
0.2066044211

> <CNNaffinity>
6.8310966492

> <CNN_VS>
1.4113347530

> <CNNaffinity_variance>
0.0991890281

$$$$
[H]c1c([H])c([H])c2c(c1[H])c1c3c(c4c5c([H])c([H])c([H])c([H])c5n5c4c1n2[C@@]1(C([H])([H])[H])O[C@]5([H])C([H])([H])[C@]([H])(N([H])C([H])([H])[H])[C@]1([H])OC([H])([H])[H])C(=O)N([H])C3([H])[H]


 37 44  0  0  0  0  0  0  0  0999 V2000
   43.4941   17.7868   -6.2692 C   0  0  0  0  0  0  0  0  0  0  0  0
   44.6177   17.4683   -7.2361 C   0  0  0  0  0  0  0  0  0  0  0  0
   44.5602   16.0472   -7.7206 C   0  0  0  0  0  0  0  0  0  0  0  0
   44.1075   15.1171   -6.8838 O   0  0  0  0  0  0  0  0  0  0  0  0
   43.0261   15.3934   -6.0409 C   0  0  0  0  0  0  0  0  0  0  0  0
   43.0683   14.2308   -5.0659 C   0  0  0  0  0  0  0  0  0  0  0  0
   43.4134   16.6562   -5.3007 C   0  0  0  0  0  0  0  0  0  0  0  0
   41.7882   15.4667   -6.7817 N   0  0  0  0  0  0  0  0  0  0  0  0
   40.5581   15.2512   -6.2542 C   0  0  0  0  0  0  0  0  0  0  0  0
   40.1045   15.0158   -4.9914 C   0  0  0  0  0  0  0  0  0  0  0  0
   38.7528   14.8314   -4.6914 C   0  0  0  0  0  0  0  0  0  0  0  0
   37.8107   14.8830   -5.6819 C   0  0  0  0  0  0  0  0  0  0  0  0
   38.2549   15.1204   -6.9550 C   0  0  0  0  0  0  0  0  0  0  0  0
   39.5856   15.3036   -7.2623 C   0  0  0  0  0  0  0  0  0  0  0  0
   40.2530   15.5642   -8.4307 C   0  0  0  0  0  0  0  0  0  0  0  0
   39.8126   15.7241   -9.7280 C   0  0  0  0  0  0  0  0  0  0  0  0
   38.4477   15.6619  -10.3064 C   0  0  0  0  0  0  0  0  0  0  0  0
   38.6230   15.9026  -11.6995 N   0  0  0  0  0  0  0  0  0  0  0  0
   40.0163   16.1123  -11.9982 C   0  0  0  0  0  0  0  0  0  0  0  0
   40.4022   16.3420  -13.1512 O   0  0  0  0  0  0  0  0  0  0  0  0
   40.7336   15.9946  -10.7469 C   0  0  0  0  0  0  0  0  0  0  0  0
   42.0813   16.0955  -10.4035 C   0  0  0  0  0  0  0  0  0  0  0  0
   43.2441   16.3765  -11.1178 C   0  0  0  0  0  0  0  0  0  0  0  0
   43.4856   16.6281  -12.4257 C   0  0  0  0  0  0  0  0  0  0  0  0
   44.8072   16.8808  -12.8347 C   0  0  0  0  0  0  0  0  0  0  0  0
   45.8289   16.8722  -11.9256 C   0  0  0  0  0  0  0  0  0  0  0  0
   45.6046   16.6187  -10.5924 C   0  0  0  0  0  0  0  0  0  0  0  0
   44.2995   16.3716  -10.2032 C   0  0  0  0  0  0  0  0  0  0  0  0
   43.8074   16.0993   -8.9872 N   0  0  0  0  0  0  0  0  0  0  0  0
   42.4873   15.9282   -9.0882 C   0  0  0  0  0  0  0  0  0  0  0  0
   41.5588   15.6601   -8.1203 C   0  0  0  0  0  0  0  0  0  0  0  0
   37.8430   15.9204  -12.3867 H   0  0  0  0  0  0  0  0  0  0  0  0
   42.7703   19.4923   -4.6762 C   0  0  0  0  0  0  0  0  0  0  0  0
   43.5281   19.0924   -5.7896 N   0  0  0  0  0  0  0  0  0  0  0  0
   43.5460   19.8484   -6.5064 H   0  0  0  0  0  0  0  0  0  0  0  0
   44.6928   16.4236   -4.8225 O   0  0  0  0  0  0  0  0  0  0  0  0
   44.9801   16.7542   -3.5419 C   0  0  0  0  0  0  0  0  0  0  0  0
 33 34  1  0  0  0
 34  1  1  0  0  0
  1  2  1  0  0  0
  2  3  1  0  0  0
  3  4  1  0  0  0
  4  5  1  0  0  0
  5  6  1  0  0  0
  5  7  1  0  0  0
  7 36  1  0  0  0
 36 37  1  0  0  0
  5  8  1  0  0  0
  8  9  1  0  0  0
  9 10  2  0  0  0
 10 11  1  0  0  0
 11 12  2  0  0  0
 12 13  1  0  0  0
 13 14  2  0  0  0
 14 15  1  0  0  0
 15 16  2  0  0  0
 16 17  1  0  0  0
 17 18  1  0  0  0
 18 19  1  0  0  0
 19 20  2  0  0  0
 19 21  1  0  0  0
 21 22  2  0  0  0
 22 23  1  0  0  0
 23 24  2  0  0  0
 24 25  1  0  0  0
 25 26  2  0  0  0
 26 27  1  0  0  0
 27 28  2  0  0  0
 28 29  1  0  0  0
 29 30  1  0  0  0
 30 31  2  0  0  0
  7  1  1  0  0  0
 31  8  1  0  0  0
 29  3  1  0  0  0
 14  9  1  0  0  0
 31 15  1  0  0  0
 21 16  1  0  0  0
 30 22  1  0  0  0
 28 23  1  0  0  0
 34 35  1  0  0  0
 18 32  1  0  0  0
M  END
> <minimizedAffinity>
-7.11907

> <CNNscore>
0.1934036165

> <CNNaffinity>
5.2324748039

> <CNN_VS>
1.0119795799

> <CNNaffinity_variance>
0.1710256487

$$$$
[H]c1c([H])c([H])c2c(c1[H])c1c3c(c4c5c([H])c([H])c([H])c([H])c5n5c4c1n2[C@@]1(C([H])([H])[H])O[C@]5([H])C([H])([H])[C@]([H])(N([H])C([H])([H])[H])[C@]1([H])OC([H])([H])[H])C(=O)N([H])C3([H])[H]


 37 44  0  0  0  0  0  0  0  0999 V2000
   46.0118   10.9129   -9.3525 C   0  0  0  0  0  0  0  0  0  0  0  0
   46.1323   10.4290   -7.9207 C   0  0  0  0  0  0  0  0  0  0  0  0
   46.1354   11.5661   -6.9385 C   0  0  0  0  0  0  0  0  0  0  0  0
   46.6942   12.7148   -7.3107 O   0  0  0  0  0  0  0  0  0  0  0  0
   46.5238   13.1916   -8.6145 C   0  0  0  0  0  0  0  0  0  0  0  0
   47.5636   14.2945   -8.6960 C   0  0  0  0  0  0  0  0  0  0  0  0
   46.9590   12.0530   -9.5128 C   0  0  0  0  0  0  0  0  0  0  0  0
   45.1765   13.6666   -8.8282 N   0  0  0  0  0  0  0  0  0  0  0  0
   44.8187   14.5815   -9.7625 C   0  0  0  0  0  0  0  0  0  0  0  0
   45.4923   15.2199  -10.7597 C   0  0  0  0  0  0  0  0  0  0  0  0
   44.8851   16.1367  -11.6212 C   0  0  0  0  0  0  0  0  0  0  0  0
   43.5562   16.4332  -11.4911 C   0  0  0  0  0  0  0  0  0  0  0  0
   42.8686   15.7964  -10.4930 C   0  0  0  0  0  0  0  0  0  0  0  0
   43.4573   14.8905   -9.6376 C   0  0  0  0  0  0  0  0  0  0  0  0
   42.9822   14.1331   -8.5989 C   0  0  0  0  0  0  0  0  0  0  0  0
   41.7280   14.0249   -8.0351 C   0  0  0  0  0  0  0  0  0  0  0  0
   40.4516   14.7060   -8.3642 C   0  0  0  0  0  0  0  0  0  0  0  0
   39.5040   14.1894   -7.4344 N   0  0  0  0  0  0  0  0  0  0  0  0
   40.1320   13.2298   -6.5630 C   0  0  0  0  0  0  0  0  0  0  0  0
   39.4948   12.6494   -5.6752 O   0  0  0  0  0  0  0  0  0  0  0  0
   41.5204   13.1490   -6.9630 C   0  0  0  0  0  0  0  0  0  0  0  0
   42.6074   12.4071   -6.5019 C   0  0  0  0  0  0  0  0  0  0  0  0
   42.7705   11.4434   -5.5090 C   0  0  0  0  0  0  0  0  0  0  0  0
   41.9235   10.8963   -4.6059 C   0  0  0  0  0  0  0  0  0  0  0  0
   42.4148    9.9211   -3.7197 C   0  0  0  0  0  0  0  0  0  0  0  0
   43.7254    9.5336   -3.7711 C   0  0  0  0  0  0  0  0  0  0  0  0
   44.6021   10.0771   -4.6810 C   0  0  0  0  0  0  0  0  0  0  0  0
   44.1057   11.0358   -5.5473 C   0  0  0  0  0  0  0  0  0  0  0  0
   44.7310   11.7179   -6.5162 N   0  0  0  0  0  0  0  0  0  0  0  0
   43.8542   12.5425   -7.0934 C   0  0  0  0  0  0  0  0  0  0  0  0
   44.0198   13.4122   -8.1360 C   0  0  0  0  0  0  0  0  0  0  0  0
   38.5053   14.4770   -7.4052 H   0  0  0  0  0  0  0  0  0  0  0  0
   46.3647   10.1081  -11.6325 C   0  0  0  0  0  0  0  0  0  0  0  0
   46.0214    9.8837  -10.2887 N   0  0  0  0  0  0  0  0  0  0  0  0
   45.2452    9.1917  -10.2236 H   0  0  0  0  0  0  0  0  0  0  0  0
   48.1889   11.6468   -9.0207 O   0  0  0  0  0  0  0  0  0  0  0  0
   49.2065   11.4501   -9.8910 C   0  0  0  0  0  0  0  0  0  0  0  0
 33 34  1  0  0  0
 34  1  1  0  0  0
  1  2  1  0  0  0
  2  3  1  0  0  0
  3  4  1  0  0  0
  4  5  1  0  0  0
  5  6  1  0  0  0
  5  7  1  0  0  0
  7 36  1  0  0  0
 36 37  1  0  0  0
  5  8  1  0  0  0
  8  9  1  0  0  0
  9 10  2  0  0  0
 10 11  1  0  0  0
 11 12  2  0  0  0
 12 13  1  0  0  0
 13 14  2  0  0  0
 14 15  1  0  0  0
 15 16  2  0  0  0
 16 17  1  0  0  0
 17 18  1  0  0  0
 18 19  1  0  0  0
 19 20  2  0  0  0
 19 21  1  0  0  0
 21 22  2  0  0  0
 22 23  1  0  0  0
 23 24  2  0  0  0
 24 25  1  0  0  0
 25 26  2  0  0  0
 26 27  1  0  0  0
 27 28  2  0  0  0
 28 29  1  0  0  0
 29 30  1  0  0  0
 30 31  2  0  0  0
  7  1  1  0  0  0
 31  8  1  0  0  0
 29  3  1  0  0  0
 14  9  1  0  0  0
 31 15  1  0  0  0
 21 16  1  0  0  0
 30 22  1  0  0  0
 28 23  1  0  0  0
 34 35  1  0  0  0
 18 32  1  0  0  0
M  END
> <minimizedAffinity>
-7.04512

> <CNNscore>
0.1628058702

> <CNNaffinity>
4.8560938835

> <CNN_VS>
0.7906005979

> <CNNaffinity_variance>
0.7744780779

$$$$
[H]c1c([H])c([H])c2c(c1[H])c1c3c(c4c5c([H])c([H])c([H])c([H])c5n5c4c1n2[C@@]1(C([H])([H])[H])O[C@]5([H])C([H])([H])[C@]([H])(N([H])C([H])([H])[H])[C@]1([H])OC([H])([H])[H])C(=O)N([H])C3([H])[H]


 37 44  0  0  0  0  0  0  0  0999 V2000
   41.4655   14.8778   -8.4897 C   0  0  0  0  0  0  0  0  0  0  0  0
   42.0038   15.9305   -9.4387 C   0  0  0  0  0  0  0  0  0  0  0  0
   43.4544   16.2300   -9.1861 C   0  0  0  0  0  0  0  0  0  0  0  0
   43.9005   16.1598   -7.9345 O   0  0  0  0  0  0  0  0  0  0  0  0
   43.4521   15.1454   -7.0823 C   0  0  0  0  0  0  0  0  0  0  0  0
   43.9274   15.6281   -5.7238 C   0  0  0  0  0  0  0  0  0  0  0  0
   41.9411   15.2336   -7.1222 C   0  0  0  0  0  0  0  0  0  0  0  0
   44.0061   13.8642   -7.4537 N   0  0  0  0  0  0  0  0  0  0  0  0
   44.1595   12.8146   -6.6094 C   0  0  0  0  0  0  0  0  0  0  0  0
   43.8065   12.5914   -5.3128 C   0  0  0  0  0  0  0  0  0  0  0  0
   44.0725   11.3918   -4.6484 C   0  0  0  0  0  0  0  0  0  0  0  0
   44.7135   10.3704   -5.2941 C   0  0  0  0  0  0  0  0  0  0  0  0
   45.0719   10.5829   -6.5983 C   0  0  0  0  0  0  0  0  0  0  0  0
   44.8147   11.7621   -7.2634 C   0  0  0  0  0  0  0  0  0  0  0  0
   45.0572   12.1920   -8.5419 C   0  0  0  0  0  0  0  0  0  0  0  0
   45.6650   11.5825   -9.6198 C   0  0  0  0  0  0  0  0  0  0  0  0
   46.2753   10.2375   -9.7597 C   0  0  0  0  0  0  0  0  0  0  0  0
   46.7439   10.1798  -11.1037 N   0  0  0  0  0  0  0  0  0  0  0  0
   46.4480   11.4119  -11.7886 C   0  0  0  0  0  0  0  0  0  0  0  0
   46.7634   11.5845  -12.9726 O   0  0  0  0  0  0  0  0  0  0  0  0
   45.7742   12.2675  -10.8357 C   0  0  0  0  0  0  0  0  0  0  0  0
   45.2535   13.5589  -10.9104 C   0  0  0  0  0  0  0  0  0  0  0  0
   45.1527   14.5048  -11.9284 C   0  0  0  0  0  0  0  0  0  0  0  0
   45.5563   14.5166  -13.2205 C   0  0  0  0  0  0  0  0  0  0  0  0
   45.2938   15.6558  -14.0023 C   0  0  0  0  0  0  0  0  0  0  0  0
   44.6424   16.7315  -13.4650 C   0  0  0  0  0  0  0  0  0  0  0  0
   44.2243   16.7395  -12.1546 C   0  0  0  0  0  0  0  0  0  0  0  0
   44.4888   15.6123  -11.3962 C   0  0  0  0  0  0  0  0  0  0  0  0
   44.1979   15.3577  -10.1134 N   0  0  0  0  0  0  0  0  0  0  0  0
   44.6495   14.1397   -9.8056 C   0  0  0  0  0  0  0  0  0  0  0  0
   44.5656   13.4413   -8.6326 C   0  0  0  0  0  0  0  0  0  0  0  0
   47.2284    9.3561  -11.5133 H   0  0  0  0  0  0  0  0  0  0  0  0
   39.2582   15.4834   -9.3452 C   0  0  0  0  0  0  0  0  0  0  0  0
   40.1191   14.5885   -8.6879 N   0  0  0  0  0  0  0  0  0  0  0  0
   39.6242   14.1241   -7.8973 H   0  0  0  0  0  0  0  0  0  0  0  0
   41.6457   16.5709   -6.9121 O   0  0  0  0  0  0  0  0  0  0  0  0
   40.6168   16.8902   -6.0928 C   0  0  0  0  0  0  0  0  0  0  0  0
 33 34  1  0  0  0
 34  1  1  0  0  0
  1  2  1  0  0  0
  2  3  1  0  0  0
  3  4  1  0  0  0
  4  5  1  0  0  0
  5  6  1  0  0  0
  5  7  1  0  0  0
  7 36  1  0  0  0
 36 37  1  0  0  0
  5  8  1  0  0  0
  8  9  1  0  0  0
  9 10  2  0  0  0
 10 11  1  0  0  0
 11 12  2  0  0  0
 12 13  1  0  0  0
 13 14  2  0  0  0
 14 15  1  0  0  0
 15 16  2  0  0  0
 16 17  1  0  0  0
 17 18  1  0  0  0
 18 19  1  0  0  0
 19 20  2  0  0  0
 19 21  1  0  0  0
 21 22  2  0  0  0
 22 23  1  0  0  0
 23 24  2  0  0  0
 24 25  1  0  0  0
 25 26  2  0  0  0
 26 27  1  0  0  0
 27 28  2  0  0  0
 28 29  1  0  0  0
 29 30  1  0  0  0
 30 31  2  0  0  0
  7  1  1  0  0  0
 31  8  1  0  0  0
 29  3  1  0  0  0
 14  9  1  0  0  0
 31 15  1  0  0  0
 21 16  1  0  0  0
 30 22  1  0  0  0
 28 23  1  0  0  0
 34 35  1  0  0  0
 18 32  1  0  0  0
M  END
> <minimizedAffinity>
-6.59149

> <CNNscore>
0.1333681196

> <CNNaffinity>
5.1293764114

> <CNN_VS>
0.6840952635

> <CNNaffinity_variance>
0.3016787171

$$$$
[H]c1c([H])c([H])c2c(c1[H])c1c3c(c4c5c([H])c([H])c([H])c([H])c5n5c4c1n2[C@@]1(C([H])([H])[H])O[C@]5([H])C([H])([H])[C@]([H])(N([H])C([H])([H])[H])[C@]1([H])OC([H])([H])[H])C(=O)N([H])C3([H])[H]


 37 44  0  0  0  0  0  0  0  0999 V2000
   44.5829   16.1472   -8.7457 C   0  0  0  0  0  0  0  0  0  0  0  0
   43.0890   16.2092   -8.9966 C   0  0  0  0  0  0  0  0  0  0  0  0
   42.5717   14.9540   -9.6404 C   0  0  0  0  0  0  0  0  0  0  0  0
   43.3705   14.3076  -10.4856 O   0  0  0  0  0  0  0  0  0  0  0  0
   44.7382   14.1942  -10.2158 C   0  0  0  0  0  0  0  0  0  0  0  0
   45.2924   13.7086  -11.5429 C   0  0  0  0  0  0  0  0  0  0  0  0
   45.2154   15.6126   -9.9855 C   0  0  0  0  0  0  0  0  0  0  0  0
   44.9848   13.2754   -9.1288 N   0  0  0  0  0  0  0  0  0  0  0  0
   46.1449   12.6012   -8.9351 C   0  0  0  0  0  0  0  0  0  0  0  0
   47.3578   12.6193   -9.5548 C   0  0  0  0  0  0  0  0  0  0  0  0
   48.4286   11.8172   -9.1532 C   0  0  0  0  0  0  0  0  0  0  0  0
   48.2937   10.9624   -8.0939 C   0  0  0  0  0  0  0  0  0  0  0  0
   47.0793   10.9366   -7.4623 C   0  0  0  0  0  0  0  0  0  0  0  0
   46.0163   11.7232   -7.8499 C   0  0  0  0  0  0  0  0  0  0  0  0
   44.7405   11.8797   -7.3745 C   0  0  0  0  0  0  0  0  0  0  0  0
   44.0661   11.2820   -6.3302 C   0  0  0  0  0  0  0  0  0  0  0  0
   44.4988   10.2486   -5.3576 C   0  0  0  0  0  0  0  0  0  0  0  0
   43.3671   10.0286   -4.5208 N   0  0  0  0  0  0  0  0  0  0  0  0
   42.2739   10.8736   -4.9275 C   0  0  0  0  0  0  0  0  0  0  0  0
   41.1865   10.8518   -4.3375 O   0  0  0  0  0  0  0  0  0  0  0  0
   42.7413   11.6444   -6.0596 C   0  0  0  0  0  0  0  0  0  0  0  0
   42.1475   12.6126   -6.8686 C   0  0  0  0  0  0  0  0  0  0  0  0
   40.8985   13.2299   -6.8820 C   0  0  0  0  0  0  0  0  0  0  0  0
   39.7899   13.0862   -6.1186 C   0  0  0  0  0  0  0  0  0  0  0  0
   38.6653   13.8826   -6.3997 C   0  0  0  0  0  0  0  0  0  0  0  0
   38.6933   14.7856   -7.4264 C   0  0  0  0  0  0  0  0  0  0  0  0
   39.8096   14.9468   -8.2137 C   0  0  0  0  0  0  0  0  0  0  0  0
   40.9093   14.1569   -7.9265 C   0  0  0  0  0  0  0  0  0  0  0  0
   42.1070   14.1091   -8.5251 N   0  0  0  0  0  0  0  0  0  0  0  0
   42.8566   13.1915   -7.9101 C   0  0  0  0  0  0  0  0  0  0  0  0
   44.1480   12.8085   -8.1472 C   0  0  0  0  0  0  0  0  0  0  0  0
   43.3523    9.3499   -3.7333 H   0  0  0  0  0  0  0  0  0  0  0  0
   44.6115   17.7927   -6.9397 C   0  0  0  0  0  0  0  0  0  0  0  0
   45.0963   17.3019   -8.1636 N   0  0  0  0  0  0  0  0  0  0  0  0
   45.3116   18.0899   -8.8104 H   0  0  0  0  0  0  0  0  0  0  0  0
   44.7229   16.3437  -11.0544 O   0  0  0  0  0  0  0  0  0  0  0  0
   45.5085   17.2953  -11.6104 C   0  0  0  0  0  0  0  0  0  0  0  0
 33 34  1  0  0  0
 34  1  1  0  0  0
  1  2  1  0  0  0
  2  3  1  0  0  0
  3  4  1  0  0  0
  4  5  1  0  0  0
  5  6  1  0  0  0
  5  7  1  0  0  0
  7 36  1  0  0  0
 36 37  1  0  0  0
  5  8  1  0  0  0
  8  9  1  0  0  0
  9 10  2  0  0  0
 10 11  1  0  0  0
 11 12  2  0  0  0
 12 13  1  0  0  0
 13 14  2  0  0  0
 14 15  1  0  0  0
 15 16  2  0  0  0
 16 17  1  0  0  0
 17 18  1  0  0  0
 18 19  1  0  0  0
 19 20  2  0  0  0
 19 21  1  0  0  0
 21 22  2  0  0  0
 22 23  1  0  0  0
 23 24  2  0  0  0
 24 25  1  0  0  0
 25 26  2  0  0  0
 26 27  1  0  0  0
 27 28  2  0  0  0
 28 29  1  0  0  0
 29 30  1  0  0  0
 30 31  2  0  0  0
  7  1  1  0  0  0
 31  8  1  0  0  0
 29  3  1  0  0  0
 14  9  1  0  0  0
 31 15  1  0  0  0
 21 16  1  0  0  0
 30 22  1  0  0  0
 28 23  1  0  0  0
 34 35  1  0  0  0
 18 32  1  0  0  0
M  END
> <minimizedAffinity>
-6.60317

> <CNNscore>
0.1137244031

> <CNNaffinity>
4.9520006180

> <CNN_VS>
0.5631633401

> <CNNaffinity_variance>
0.3326393664

$$$$
[H]c1c([H])c([H])c2c(c1[H])c1c3c(c4c5c([H])c([H])c([H])c([H])c5n5c4c1n2[C@@]1(C([H])([H])[H])O[C@]5([H])C([H])([H])[C@]([H])(N([H])C([H])([H])[H])[C@]1([H])OC([H])([H])[H])C(=O)N([H])C3([H])[H]


 37 44  0  0  0  0  0  0  0  0999 V2000
   45.2325   16.7400  -10.9918 C   0  0  0  0  0  0  0  0  0  0  0  0
   43.9235   16.5778  -10.2442 C   0  0  0  0  0  0  0  0  0  0  0  0
   43.2148   15.3059  -10.6154 C   0  0  0  0  0  0  0  0  0  0  0  0
   43.3377   14.8607  -11.8632 O   0  0  0  0  0  0  0  0  0  0  0  0
   44.5661   14.9507  -12.5259 C   0  0  0  0  0  0  0  0  0  0  0  0
   44.1814   14.6594  -13.9651 C   0  0  0  0  0  0  0  0  0  0  0  0
   44.9674   16.4069  -12.4206 C   0  0  0  0  0  0  0  0  0  0  0  0
   45.5208   14.0069  -11.9927 N   0  0  0  0  0  0  0  0  0  0  0  0
   46.5857   13.5167  -12.6737 C   0  0  0  0  0  0  0  0  0  0  0  0
   47.1176   13.7760  -13.9007 C   0  0  0  0  0  0  0  0  0  0  0  0
   48.2568   13.1304  -14.3872 C   0  0  0  0  0  0  0  0  0  0  0  0
   48.8967   12.1899  -13.6276 C   0  0  0  0  0  0  0  0  0  0  0  0
   48.3719   11.9220  -12.3918 C   0  0  0  0  0  0  0  0  0  0  0  0
   47.2488   12.5526  -11.9020 C   0  0  0  0  0  0  0  0  0  0  0  0
   46.5630   12.4655  -10.7186 C   0  0  0  0  0  0  0  0  0  0  0  0
   46.7600   11.6919   -9.5937 C   0  0  0  0  0  0  0  0  0  0  0  0
   47.7932   10.6737   -9.2823 C   0  0  0  0  0  0  0  0  0  0  0  0
   47.4781   10.2130   -7.9716 N   0  0  0  0  0  0  0  0  0  0  0  0
   46.3150   10.8976   -7.4683 C   0  0  0  0  0  0  0  0  0  0  0  0
   45.8607   10.6571   -6.3428 O   0  0  0  0  0  0  0  0  0  0  0  0
   45.8898   11.8145   -8.5040 C   0  0  0  0  0  0  0  0  0  0  0  0
   44.8428   12.7304   -8.6002 C   0  0  0  0  0  0  0  0  0  0  0  0
   43.8294   13.1369   -7.7347 C   0  0  0  0  0  0  0  0  0  0  0  0
   43.4790   12.7604   -6.4826 C   0  0  0  0  0  0  0  0  0  0  0  0
   42.3760   13.3829   -5.8712 C   0  0  0  0  0  0  0  0  0  0  0  0
   41.6713   14.3511   -6.5315 C   0  0  0  0  0  0  0  0  0  0  0  0
   42.0110   14.7479   -7.8041 C   0  0  0  0  0  0  0  0  0  0  0  0
   43.0984   14.1274   -8.3942 C   0  0  0  0  0  0  0  0  0  0  0  0
   43.6371   14.3177   -9.6061 N   0  0  0  0  0  0  0  0  0  0  0  0
   44.6756   13.4910   -9.7475 C   0  0  0  0  0  0  0  0  0  0  0  0
   45.5433   13.3402  -10.7940 C   0  0  0  0  0  0  0  0  0  0  0  0
   48.0226    9.4851   -7.4671 H   0  0  0  0  0  0  0  0  0  0  0  0
   47.1724   18.2085  -11.2167 C   0  0  0  0  0  0  0  0  0  0  0  0
   45.9066   17.9169  -10.6814 N   0  0  0  0  0  0  0  0  0  0  0  0
   45.8499   18.2353   -9.6909 H   0  0  0  0  0  0  0  0  0  0  0  0
   43.8506   17.1249  -12.8167 O   0  0  0  0  0  0  0  0  0  0  0  0
   44.0273   18.2990  -13.4663 C   0  0  0  0  0  0  0  0  0  0  0  0
 33 34  1  0  0  0
 34  1  1  0  0  0
  1  2  1  0  0  0
  2  3  1  0  0  0
  3  4  1  0  0  0
  4  5  1  0  0  0
  5  6  1  0  0  0
  5  7  1  0  0  0
  7 36  1  0  0  0
 36 37  1  0  0  0
  5  8  1  0  0  0
  8  9  1  0  0  0
  9 10  2  0  0  0
 10 11  1  0  0  0
 11 12  2  0  0  0
 12 13  1  0  0  0
 13 14  2  0  0  0
 14 15  1  0  0  0
 15 16  2  0  0  0
 16 17  1  0  0  0
 17 18  1  0  0  0
 18 19  1  0  0  0
 19 20  2  0  0  0
 19 21  1  0  0  0
 21 22  2  0  0  0
 22 23  1  0  0  0
 23 24  2  0  0  0
 24 25  1  0  0  0
 25 26  2  0  0  0
 26 27  1  0  0  0
 27 28  2  0  0  0
 28 29  1  0  0  0
 29 30  1  0  0  0
 30 31  2  0  0  0
  7  1  1  0  0  0
 31  8  1  0  0  0
 29  3  1  0  0  0
 14  9  1  0  0  0
 31 15  1  0  0  0
 21 16  1  0  0  0
 30 22  1  0  0  0
 28 23  1  0  0  0
 34 35  1  0  0  0
 18 32  1  0  0  0
M  END
> <minimizedAffinity>
-5.52822

> <CNNscore>
0.0990530327

> <CNNaffinity>
5.0873475075

> <CNN_VS>
0.5039172173

> <CNNaffinity_variance>
0.2298327386

$$$$
[H]c1c([H])c([H])c2c(c1[H])c1c3c(c4c5c([H])c([H])c([H])c([H])c5n5c4c1n2[C@@]1(C([H])([H])[H])O[C@]5([H])C([H])([H])[C@]([H])(N([H])C([H])([H])[H])[C@]1([H])OC([H])([H])[H])C(=O)N([H])C3([H])[H]


 37 44  0  0  0  0  0  0  0  0999 V2000
   43.3686   13.9026  -11.1406 C   0  0  0  0  0  0  0  0  0  0  0  0
   42.4264   14.9897  -10.6617 C   0  0  0  0  0  0  0  0  0  0  0  0
   42.1001   15.9738  -11.7493 C   0  0  0  0  0  0  0  0  0  0  0  0
   43.0394   16.2457  -12.6516 O   0  0  0  0  0  0  0  0  0  0  0  0
   43.8623   15.2263  -13.1415 C   0  0  0  0  0  0  0  0  0  0  0  0
   44.9573   16.0039  -13.8489 C   0  0  0  0  0  0  0  0  0  0  0  0
   44.4554   14.5707  -11.9122 C   0  0  0  0  0  0  0  0  0  0  0  0
   43.1354   14.3424  -14.0229 N   0  0  0  0  0  0  0  0  0  0  0  0
   43.7004   13.5818  -14.9925 C   0  0  0  0  0  0  0  0  0  0  0  0
   44.9875   13.3393  -15.3670 C   0  0  0  0  0  0  0  0  0  0  0  0
   45.3247   12.4853  -16.4197 C   0  0  0  0  0  0  0  0  0  0  0  0
   44.3478   11.8440  -17.1306 C   0  0  0  0  0  0  0  0  0  0  0  0
   43.0504   12.0790  -16.7622 C   0  0  0  0  0  0  0  0  0  0  0  0
   42.7063   12.9193  -15.7257 C   0  0  0  0  0  0  0  0  0  0  0  0
   41.5073   13.2903  -15.1751 C   0  0  0  0  0  0  0  0  0  0  0  0
   40.2066   12.9510  -15.4843 C   0  0  0  0  0  0  0  0  0  0  0  0
   39.6576   12.0606  -16.5364 C   0  0  0  0  0  0  0  0  0  0  0  0
   38.2443   12.1097  -16.3648 N   0  0  0  0  0  0  0  0  0  0  0  0
   37.9049   12.9756  -15.2649 C   0  0  0  0  0  0  0  0  0  0  0  0
   36.7285   13.1665  -14.9323 O   0  0  0  0  0  0  0  0  0  0  0  0
   39.1515   13.4857  -14.7356 C   0  0  0  0  0  0  0  0  0  0  0  0
   39.4630   14.3524  -13.6887 C   0  0  0  0  0  0  0  0  0  0  0  0
   38.7061   15.0318  -12.7364 C   0  0  0  0  0  0  0  0  0  0  0  0
   37.3753   15.1148  -12.5031 C   0  0  0  0  0  0  0  0  0  0  0  0
   36.9228   15.9069  -11.4327 C   0  0  0  0  0  0  0  0  0  0  0  0
   37.8130   16.5804  -10.6426 C   0  0  0  0  0  0  0  0  0  0  0  0
   39.1689   16.5092  -10.8628 C   0  0  0  0  0  0  0  0  0  0  0  0
   39.6009   15.7263  -11.9194 C   0  0  0  0  0  0  0  0  0  0  0  0
   40.8461   15.4852  -12.3512 N   0  0  0  0  0  0  0  0  0  0  0  0
   40.7828   14.6711  -13.4073 C   0  0  0  0  0  0  0  0  0  0  0  0
   41.7871   14.1328  -14.1639 C   0  0  0  0  0  0  0  0  0  0  0  0
   37.5701   11.5873  -16.9595 H   0  0  0  0  0  0  0  0  0  0  0  0
   43.4561   13.2350   -8.7917 C   0  0  0  0  0  0  0  0  0  0  0  0
   43.7028   12.9828  -10.1517 N   0  0  0  0  0  0  0  0  0  0  0  0
   44.6114   12.4865  -10.2693 H   0  0  0  0  0  0  0  0  0  0  0  0
   44.9380   15.6128  -11.1372 O   0  0  0  0  0  0  0  0  0  0  0  0
   46.1380   15.4703  -10.5276 C   0  0  0  0  0  0  0  0  0  0  0  0
 33 34  1  0  0  0
 34  1  1  0  0  0
  1  2  1  0  0  0
  2  3  1  0  0  0
  3  4  1  0  0  0
  4  5  1  0  0  0
  5  6  1  0  0  0
  5  7  1  0  0  0
  7 36  1  0  0  0
 36 37  1  0  0  0
  5  8  1  0  0  0
  8  9  1  0  0  0
  9 10  2  0  0  0
 10 11  1  0  0  0
 11 12  2  0  0  0
 12 13  1  0  0  0
 13 14  2  0  0  0
 14 15  1  0  0  0
 15 16  2  0  0  0
 16 17  1  0  0  0
 17 18  1  0  0  0
 18 19  1  0  0  0
 19 20  2  0  0  0
 19 21  1  0  0  0
 21 22  2  0  0  0
 22 23  1  0  0  0
 23 24  2  0  0  0
 24 25  1  0  0  0
 25 26  2  0  0  0
 26 27  1  0  0  0
 27 28  2  0  0  0
 28 29  1  0  0  0
 29 30  1  0  0  0
 30 31  2  0  0  0
  7  1  1  0  0  0
 31  8  1  0  0  0
 29  3  1  0  0  0
 14  9  1  0  0  0
 31 15  1  0  0  0
 21 16  1  0  0  0
 30 22  1  0  0  0
 28 23  1  0  0  0
 34 35  1  0  0  0
 18 32  1  0  0  0
M  END
> <minimizedAffinity>
-9.99489

> <CNNscore>
0.0914915875

> <CNNaffinity>
5.6384363174

> <CNN_VS>
0.5158694983

> <CNNaffinity_variance>
0.7749496698

$$$$
[H]c1c([H])c([H])c2c(c1[H])c1c3c(c4c5c([H])c([H])c([H])c([H])c5n5c4c1n2[C@@]1(C([H])([H])[H])O[C@]5([H])C([H])([H])[C@]([H])(N([H])C([H])([H])[H])[C@]1([H])OC([H])([H])[H])C(=O)N([H])C3([H])[H]


 37 44  0  0  0  0  0  0  0  0999 V2000
   43.2723   14.2736  -10.4297 C   0  0  0  0  0  0  0  0  0  0  0  0
   41.9657   15.0421  -10.4035 C   0  0  0  0  0  0  0  0  0  0  0  0
   41.8692   16.0308  -11.5309 C   0  0  0  0  0  0  0  0  0  0  0  0
   42.9880   16.6180  -11.9476 O   0  0  0  0  0  0  0  0  0  0  0  0
   44.1773   15.8871  -12.0349 C   0  0  0  0  0  0  0  0  0  0  0  0
   45.2176   16.9784  -12.2113 C   0  0  0  0  0  0  0  0  0  0  0  0
   44.3609   15.2643  -10.6671 C   0  0  0  0  0  0  0  0  0  0  0  0
   44.1413   14.9553  -13.1381 N   0  0  0  0  0  0  0  0  0  0  0  0
   45.2352   14.4639  -13.7705 C   0  0  0  0  0  0  0  0  0  0  0  0
   46.5758   14.5817  -13.5591 C   0  0  0  0  0  0  0  0  0  0  0  0
   47.5301   13.9543  -14.3634 C   0  0  0  0  0  0  0  0  0  0  0  0
   47.1417   13.1774  -15.4201 C   0  0  0  0  0  0  0  0  0  0  0  0
   45.7965   13.0506  -15.6414 C   0  0  0  0  0  0  0  0  0  0  0  0
   44.8465   13.6649  -14.8547 C   0  0  0  0  0  0  0  0  0  0  0  0
   43.4762   13.6731  -14.8698 C   0  0  0  0  0  0  0  0  0  0  0  0
   42.5598   13.0656  -15.7028 C   0  0  0  0  0  0  0  0  0  0  0  0
   42.7511   12.1890  -16.8844 C   0  0  0  0  0  0  0  0  0  0  0  0
   41.4354   11.8764  -17.3323 N   0  0  0  0  0  0  0  0  0  0  0  0
   40.4566   12.5096  -16.4863 C   0  0  0  0  0  0  0  0  0  0  0  0
   39.2435   12.3734  -16.6881 O   0  0  0  0  0  0  0  0  0  0  0  0
   41.1897   13.2448  -15.4782 C   0  0  0  0  0  0  0  0  0  0  0  0
   40.7999   14.0417  -14.4024 C   0  0  0  0  0  0  0  0  0  0  0  0
   39.5675   14.4104  -13.8671 C   0  0  0  0  0  0  0  0  0  0  0  0
   38.2893   14.1437  -14.2242 C   0  0  0  0  0  0  0  0  0  0  0  0
   37.2436   14.6816  -13.4527 C   0  0  0  0  0  0  0  0  0  0  0  0
   37.5153   15.4599  -12.3615 C   0  0  0  0  0  0  0  0  0  0  0  0
   38.8068   15.7427  -11.9820 C   0  0  0  0  0  0  0  0  0  0  0  0
   39.8265   15.2072  -12.7497 C   0  0  0  0  0  0  0  0  0  0  0  0
   41.1538   15.3224  -12.6080 N   0  0  0  0  0  0  0  0  0  0  0  0
   41.7498   14.6372  -13.5864 C   0  0  0  0  0  0  0  0  0  0  0  0
   43.0798   14.4430  -13.8398 C   0  0  0  0  0  0  0  0  0  0  0  0
   41.2314   11.2747  -18.1553 H   0  0  0  0  0  0  0  0  0  0  0  0
   42.5956   13.4306   -8.2383 C   0  0  0  0  0  0  0  0  0  0  0  0
   43.3994   13.3595   -9.3885 N   0  0  0  0  0  0  0  0  0  0  0  0
   44.3703   13.0784   -9.1353 H   0  0  0  0  0  0  0  0  0  0  0  0
   44.1859   16.3013   -9.7651 O   0  0  0  0  0  0  0  0  0  0  0  0
   45.0182   16.3873   -8.7013 C   0  0  0  0  0  0  0  0  0  0  0  0
 33 34  1  0  0  0
 34  1  1  0  0  0
  1  2  1  0  0  0
  2  3  1  0  0  0
  3  4  1  0  0  0
  4  5  1  0  0  0
  5  6  1  0  0  0
  5  7  1  0  0  0
  7 36  1  0  0  0
 36 37  1  0  0  0
  5  8  1  0  0  0
  8  9  1  0  0  0
  9 10  2  0  0  0
 10 11  1  0  0  0
 11 12  2  0  0  0
 12 13  1  0  0  0
 13 14  2  0  0  0
 14 15  1  0  0  0
 15 16  2  0  0  0
 16 17  1  0  0  0
 17 18  1  0  0  0
 18 19  1  0  0  0
 19 20  2  0  0  0
 19 21  1  0  0  0
 21 22  2  0  0  0
 22 23  1  0  0  0
 23 24  2  0  0  0
 24 25  1  0  0  0
 25 26  2  0  0  0
 26 27  1  0  0  0
 27 28  2  0  0  0
 28 29  1  0  0  0
 29 30  1  0  0  0
 30 31  2  0  0  0
  7  1  1  0  0  0
 31  8  1  0  0  0
 29  3  1  0  0  0
 14  9  1  0  0  0
 31 15  1  0  0  0
 21 16  1  0  0  0
 30 22  1  0  0  0
 28 23  1  0  0  0
 34 35  1  0  0  0
 18 32  1  0  0  0
M  END
> <minimizedAffinity>
-8.51999

> <CNNscore>
0.0907895267

> <CNNaffinity>
5.7374181747

> <CNN_VS>
0.5208975077

> <CNNaffinity_variance>
0.6914194822

$$$$
[H]c1c([H])c([H])c2c(c1[H])c1c3c(c4c5c([H])c([H])c([H])c([H])c5n5c4c1n2[C@@]1(C([H])([H])[H])O[C@]5([H])C([H])([H])[C@]([H])(N([H])C([H])([H])[H])[C@]1([H])OC([H])([H])[H])C(=O)N([H])C3([H])[H]


 37 44  0  0  0  0  0  0  0  0999 V2000
   37.6193   17.5875   -9.4922 C   0  0  0  0  0  0  0  0  0  0  0  0
   36.6775   16.9386  -10.4874 C   0  0  0  0  0  0  0  0  0  0  0  0
   36.3693   15.5129  -10.1267 C   0  0  0  0  0  0  0  0  0  0  0  0
   37.3206   14.7964   -9.5334 O   0  0  0  0  0  0  0  0  0  0  0  0
   38.1437   15.3816   -8.5658 C   0  0  0  0  0  0  0  0  0  0  0  0
   39.2512   14.3542   -8.4163 C   0  0  0  0  0  0  0  0  0  0  0  0
   38.7187   16.6156   -9.2286 C   0  0  0  0  0  0  0  0  0  0  0  0
   37.4225   15.6197   -7.3371 N   0  0  0  0  0  0  0  0  0  0  0  0
   37.9949   15.7207   -6.1123 C   0  0  0  0  0  0  0  0  0  0  0  0
   39.2850   15.7287   -5.6750 C   0  0  0  0  0  0  0  0  0  0  0  0
   39.6300   15.8587   -4.3276 C   0  0  0  0  0  0  0  0  0  0  0  0
   38.6581   15.9869   -3.3737 C   0  0  0  0  0  0  0  0  0  0  0  0
   37.3577   15.9816   -3.8017 C   0  0  0  0  0  0  0  0  0  0  0  0
   37.0059   15.8539   -5.1279 C   0  0  0  0  0  0  0  0  0  0  0  0
   35.8025   15.8377   -5.7836 C   0  0  0  0  0  0  0  0  0  0  0  0
   34.5037   15.9341   -5.3292 C   0  0  0  0  0  0  0  0  0  0  0  0
   33.9625   16.0849   -3.9560 C   0  0  0  0  0  0  0  0  0  0  0  0
   32.5475   16.1237   -4.1164 N   0  0  0  0  0  0  0  0  0  0  0  0
   32.1998   16.0100   -5.5095 C   0  0  0  0  0  0  0  0  0  0  0  0
   31.0206   16.0228   -5.8841 O   0  0  0  0  0  0  0  0  0  0  0  0
   33.4428   15.8931   -6.2415 C   0  0  0  0  0  0  0  0  0  0  0  0
   33.7465   15.7565   -7.5955 C   0  0  0  0  0  0  0  0  0  0  0  0
   32.9822   15.7115   -8.7595 C   0  0  0  0  0  0  0  0  0  0  0  0
   31.6491   15.7571   -8.9905 C   0  0  0  0  0  0  0  0  0  0  0  0
   31.1883   15.6873  -10.3174 C   0  0  0  0  0  0  0  0  0  0  0  0
   32.0727   15.5753  -11.3545 C   0  0  0  0  0  0  0  0  0  0  0  0
   33.4307   15.5272  -11.1411 C   0  0  0  0  0  0  0  0  0  0  0  0
   33.8710   15.5968   -9.8307 C   0  0  0  0  0  0  0  0  0  0  0  0
   35.1198   15.5715   -9.3462 N   0  0  0  0  0  0  0  0  0  0  0  0
   35.0647   15.6620   -8.0155 C   0  0  0  0  0  0  0  0  0  0  0  0
   36.0749   15.7010   -7.0942 C   0  0  0  0  0  0  0  0  0  0  0  0
   31.8776   16.2209   -3.3272 H   0  0  0  0  0  0  0  0  0  0  0  0
   37.7755   19.9475   -8.8785 C   0  0  0  0  0  0  0  0  0  0  0  0
   37.9370   18.9051   -9.8066 N   0  0  0  0  0  0  0  0  0  0  0  0
   37.6784   19.2280  -10.7629 H   0  0  0  0  0  0  0  0  0  0  0  0
   39.1978   16.1841  -10.4549 O   0  0  0  0  0  0  0  0  0  0  0  0
   40.4315   16.5781  -10.8481 C   0  0  0  0  0  0  0  0  0  0  0  0
 33 34  1  0  0  0
 34  1  1  0  0  0
  1  2  1  0  0  0
  2  3  1  0  0  0
  3  4  1  0  0  0
  4  5  1  0  0  0
  5  6  1  0  0  0
  5  7  1  0  0  0
  7 36  1  0  0  0
 36 37  1  0  0  0
  5  8  1  0  0  0
  8  9  1  0  0  0
  9 10  2  0  0  0
 10 11  1  0  0  0
 11 12  2  0  0  0
 12 13  1  0  0  0
 13 14  2  0  0  0
 14 15  1  0  0  0
 15 16  2  0  0  0
 16 17  1  0  0  0
 17 18  1  0  0  0
 18 19  1  0  0  0
 19 20  2  0  0  0
 19 21  1  0  0  0
 21 22  2  0  0  0
 22 23  1  0  0  0
 23 24  2  0  0  0
 24 25  1  0  0  0
 25 26  2  0  0  0
 26 27  1  0  0  0
 27 28  2  0  0  0
 28 29  1  0  0  0
 29 30  1  0  0  0
 30 31  2  0  0  0
  7  1  1  0  0  0
 31  8  1  0  0  0
 29  3  1  0  0  0
 14  9  1  0  0  0
 31 15  1  0  0  0
 21 16  1  0  0  0
 30 22  1  0  0  0
 28 23  1  0  0  0
 34 35  1  0  0  0
 18 32  1  0  0  0
M  END
> <minimizedAffinity>
-7.69336

> <CNNscore>
0.0876185372

> <CNNaffinity>
5.2190451622

> <CNN_VS>
0.4572851062

> <CNNaffinity_variance>
0.6528892517

$$$$
[H]c1c([H])c([H])c2c(c1[H])c1c3c(c4c5c([H])c([H])c([H])c([H])c5n5c4c1n2[C@@]1(C([H])([H])[H])O[C@]5([H])C([H])([H])[C@]([H])(N([H])C([H])([H])[H])[C@]1([H])OC([H])([H])[H])C(=O)N([H])C3([H])[H]


 37 44  0  0  0  0  0  0  0  0999 V2000
   47.3589   13.6183   -9.0790 C   0  0  0  0  0  0  0  0  0  0  0  0
   47.3560   12.9396  -10.4347 C   0  0  0  0  0  0  0  0  0  0  0  0
   46.1739   12.0283  -10.6077 C   0  0  0  0  0  0  0  0  0  0  0  0
   45.7099   11.3925   -9.5350 O   0  0  0  0  0  0  0  0  0  0  0  0
   45.6509   12.0452   -8.2994 C   0  0  0  0  0  0  0  0  0  0  0  0
   45.3982   10.8985   -7.3374 C   0  0  0  0  0  0  0  0  0  0  0  0
   47.0505   12.5721   -8.0625 C   0  0  0  0  0  0  0  0  0  0  0  0
   44.6047   13.0411   -8.2808 N   0  0  0  0  0  0  0  0  0  0  0  0
   43.9888   13.4941   -7.1613 C   0  0  0  0  0  0  0  0  0  0  0  0
   44.1765   13.2736   -5.8302 C   0  0  0  0  0  0  0  0  0  0  0  0
   43.3987   13.8817   -4.8420 C   0  0  0  0  0  0  0  0  0  0  0  0
   42.3941   14.7443   -5.1852 C   0  0  0  0  0  0  0  0  0  0  0  0
   42.1971   14.9746   -6.5204 C   0  0  0  0  0  0  0  0  0  0  0  0
   42.9582   14.3803   -7.5035 C   0  0  0  0  0  0  0  0  0  0  0  0
   42.9594   14.4657   -8.8713 C   0  0  0  0  0  0  0  0  0  0  0  0
   42.1748   15.1821   -9.7510 C   0  0  0  0  0  0  0  0  0  0  0  0
   41.0442   16.1121   -9.5101 C   0  0  0  0  0  0  0  0  0  0  0  0
   40.6316   16.5390  -10.8051 N   0  0  0  0  0  0  0  0  0  0  0  0
   41.4510   15.9243  -11.8177 C   0  0  0  0  0  0  0  0  0  0  0  0
   41.2724   16.1539  -13.0204 O   0  0  0  0  0  0  0  0  0  0  0  0
   42.4052   15.0828  -11.1282 C   0  0  0  0  0  0  0  0  0  0  0  0
   43.4372   14.2517  -11.5625 C   0  0  0  0  0  0  0  0  0  0  0  0
   43.9651   13.9361  -12.8128 C   0  0  0  0  0  0  0  0  0  0  0  0
   43.6399   14.3092  -14.0727 C   0  0  0  0  0  0  0  0  0  0  0  0
   44.3913   13.7985  -15.1462 C   0  0  0  0  0  0  0  0  0  0  0  0
   45.4316   12.9403  -14.9192 C   0  0  0  0  0  0  0  0  0  0  0  0
   45.7781   12.5489  -13.6469 C   0  0  0  0  0  0  0  0  0  0  0  0
   45.0306   13.0588  -12.5994 C   0  0  0  0  0  0  0  0  0  0  0  0
   45.1491   12.8460  -11.2820 N   0  0  0  0  0  0  0  0  0  0  0  0
   44.2052   13.5461  -10.6487 C   0  0  0  0  0  0  0  0  0  0  0  0
   43.9473   13.6647   -9.3108 C   0  0  0  0  0  0  0  0  0  0  0  0
   39.8478   17.2008  -10.9744 H   0  0  0  0  0  0  0  0  0  0  0  0
   48.7162   15.0455   -7.6329 C   0  0  0  0  0  0  0  0  0  0  0  0
   48.4502   14.4583   -8.8812 N   0  0  0  0  0  0  0  0  0  0  0  0
   48.6636   15.1285   -9.6499 H   0  0  0  0  0  0  0  0  0  0  0  0
   47.8923   11.4977   -8.3003 O   0  0  0  0  0  0  0  0  0  0  0  0
   48.9105   11.2643   -7.4396 C   0  0  0  0  0  0  0  0  0  0  0  0
 33 34  1  0  0  0
 34  1  1  0  0  0
  1  2  1  0  0  0
  2  3  1  0  0  0
  3  4  1  0  0  0
  4  5  1  0  0  0
  5  6  1  0  0  0
  5  7  1  0  0  0
  7 36  1  0  0  0
 36 37  1  0  0  0
  5  8  1  0  0  0
  8  9  1  0  0  0
  9 10  2  0  0  0
 10 11  1  0  0  0
 11 12  2  0  0  0
 12 13  1  0  0  0
 13 14  2  0  0  0
 14 15  1  0  0  0
 15 16  2  0  0  0
 16 17  1  0  0  0
 17 18  1  0  0  0
 18 19  1  0  0  0
 19 20  2  0  0  0
 19 21  1  0  0  0
 21 22  2  0  0  0
 22 23  1  0  0  0
 23 24  2  0  0  0
 24 25  1  0  0  0
 25 26  2  0  0  0
 26 27  1  0  0  0
 27 28  2  0  0  0
 28 29  1  0  0  0
 29 30  1  0  0  0
 30 31  2  0  0  0
  7  1  1  0  0  0
 31  8  1  0  0  0
 29  3  1  0  0  0
 14  9  1  0  0  0
 31 15  1  0  0  0
 21 16  1  0  0  0
 30 22  1  0  0  0
 28 23  1  0  0  0
 34 35  1  0  0  0
 18 32  1  0  0  0
M  END
> <minimizedAffinity>
-5.93777

> <CNNscore>
0.0866238177

> <CNNaffinity>
5.0360312462

> <CNN_VS>
0.4362402558

> <CNNaffinity_variance>
0.3260239065

$$$$
[H]OC(=O)[C@@]([H])(N([H])C(=O)[C@@]([H])(N([H])C(=O)[C@@]([H])(N([H])C(=O)[C@@]([H])(N([H])C(=O)[C@@]1([H])N(C(=O)[C@@]([H])(N([H])C(=O)OC([H])([H])c2c([H])c([H])c([H])c([H])c2[H])[C@@]([H])(C([H])([H])[H])C([H])([H])C([H])([H])[H])C([H])([H])C([H])([H])C1([H])[H])C([H])([H])C([H])(C([H])([H])[H])C([H])([H])[H])C([H])([H])O[H])C([H])(C([H])([H])[H])C([H])([H])[H])C([H])([H])O[H]


 61 62  0  0  0  0  0  0  0  0999 V2000
   37.9099   15.7740  -10.4220 C   0  0  0  0  0  0  0  0  0  0  0  0
   36.4465   14.3502  -11.9315 C   0  0  0  0  0  0  0  0  0  0  0  0
   36.3506   13.5160  -10.9898 O   0  0  0  0  0  0  0  0  0  0  0  0
   37.2341   15.5057  -11.6656 N   0  0  0  0  0  0  0  0  0  0  0  0
   37.3155   16.1983  -12.4295 H   0  0  0  0  0  0  0  0  0  0  0  0
   37.9529   13.4607  -14.5001 C   0  0  0  0  0  0  0  0  0  0  0  0
   38.7056   13.7154  -13.4890 O   0  0  0  0  0  0  0  0  0  0  0  0
   36.5919   13.6984  -14.3231 N   0  0  0  0  0  0  0  0  0  0  0  0
   35.4945   13.5788  -15.3159 C   0  0  0  0  0  0  0  0  0  0  0  0
   34.6462   12.5742  -14.5746 C   0  0  0  0  0  0  0  0  0  0  0  0
   34.8334   12.8995  -13.1078 C   0  0  0  0  0  0  0  0  0  0  0  0
   35.7883   14.1217  -13.1952 C   0  0  0  0  0  0  0  0  0  0  0  0
   38.6642   12.9588  -15.6871 C   0  0  0  0  0  0  0  0  0  0  0  0
   40.1228   13.0844  -15.5031 N   0  0  0  0  0  0  0  0  0  0  0  0
   40.9523   13.7540  -16.4515 C   0  0  0  0  0  0  0  0  0  0  0  0
   40.3602   14.2358  -17.4691 O   0  0  0  0  0  0  0  0  0  0  0  0
   40.6061   12.7030  -14.6691 H   0  0  0  0  0  0  0  0  0  0  0  0
   42.3033   13.8926  -16.3133 O   0  0  0  0  0  0  0  0  0  0  0  0
   43.0716   12.7907  -15.8801 C   0  0  0  0  0  0  0  0  0  0  0  0
   43.7863   13.1280  -14.6363 C   0  0  0  0  0  0  0  0  0  0  0  0
   43.0786   13.4969  -13.4940 C   0  0  0  0  0  0  0  0  0  0  0  0
   43.6902   13.8174  -12.3118 C   0  0  0  0  0  0  0  0  0  0  0  0
   45.0706   13.7710  -12.2578 C   0  0  0  0  0  0  0  0  0  0  0  0
   45.7817   13.4071  -13.3829 C   0  0  0  0  0  0  0  0  0  0  0  0
   45.1625   13.0811  -14.5841 C   0  0  0  0  0  0  0  0  0  0  0  0
   38.2870   11.6056  -16.1579 C   0  0  0  0  0  0  0  0  0  0  0  0
   37.0145   11.6101  -17.0161 C   0  0  0  0  0  0  0  0  0  0  0  0
   39.3603   10.9633  -18.3619 C   0  0  0  0  0  0  0  0  0  0  0  0
   39.3005   10.7866  -16.8665 C   0  0  0  0  0  0  0  0  0  0  0  0
   37.0239   15.7829   -9.2563 C   0  0  0  0  0  0  0  0  0  0  0  0
   37.3924   15.2889   -8.1659 O   0  0  0  0  0  0  0  0  0  0  0  0
   35.7271   16.3359   -9.2884 N   0  0  0  0  0  0  0  0  0  0  0  0
   35.3796   16.7592  -10.1750 H   0  0  0  0  0  0  0  0  0  0  0  0
   34.8870   16.3247   -8.1295 C   0  0  0  0  0  0  0  0  0  0  0  0
   33.4572   16.2929   -8.4969 C   0  0  0  0  0  0  0  0  0  0  0  0
   32.5960   16.9466   -7.8340 O   0  0  0  0  0  0  0  0  0  0  0  0
   33.0068   15.5342   -9.5991 N   0  0  0  0  0  0  0  0  0  0  0  0
   33.7040   14.9927  -10.1487 H   0  0  0  0  0  0  0  0  0  0  0  0
   31.6167   15.4868   -9.9869 C   0  0  0  0  0  0  0  0  0  0  0  0
   30.7245   14.9903   -8.9221 C   0  0  0  0  0  0  0  0  0  0  0  0
   30.7237   13.7740   -8.6166 O   0  0  0  0  0  0  0  0  0  0  0  0
   29.8616   15.8782   -8.2344 N   0  0  0  0  0  0  0  0  0  0  0  0
   29.8701   16.8832   -8.4978 H   0  0  0  0  0  0  0  0  0  0  0  0
   28.9652   15.4410   -7.1797 C   0  0  0  0  0  0  0  0  0  0  0  0
   27.6003   15.4731   -7.7281 C   0  0  0  0  0  0  0  0  0  0  0  0
   26.6747   14.5226   -7.3303 O   0  0  0  0  0  0  0  0  0  0  0  0
   27.2024   16.3298   -8.5597 O   0  0  0  0  0  0  0  0  0  0  0  0
   26.7705   13.5398   -7.4717 H   0  0  0  0  0  0  0  0  0  0  0  0
   29.0772   16.3405   -5.9609 C   0  0  0  0  0  0  0  0  0  0  0  0
   27.8466   16.5753   -5.3660 O   0  0  0  0  0  0  0  0  0  0  0  0
   27.3122   17.1121   -5.9903 H   0  0  0  0  0  0  0  0  0  0  0  0
   31.4334   14.6426  -11.2516 C   0  0  0  0  0  0  0  0  0  0  0  0
   29.9988   14.8130  -11.7260 C   0  0  0  0  0  0  0  0  0  0  0  0
   32.4175   15.0368  -12.3160 C   0  0  0  0  0  0  0  0  0  0  0  0
   35.1352   17.4764   -7.2031 C   0  0  0  0  0  0  0  0  0  0  0  0
   35.0778   18.7024   -7.8678 O   0  0  0  0  0  0  0  0  0  0  0  0
   35.7503   18.7298   -8.5890 H   0  0  0  0  0  0  0  0  0  0  0  0
   38.8798   16.9057  -10.4687 C   0  0  0  0  0  0  0  0  0  0  0  0
   40.3108   16.6205  -10.6117 C   0  0  0  0  0  0  0  0  0  0  0  0
   40.7722   15.9982  -11.8783 C   0  0  0  0  0  0  0  0  0  0  0  0
   40.6881   15.6760   -9.4584 C   0  0  0  0  0  0  0  0  0  0  0  0
 28 29  1  0  0  0
 29 26  1  0  0  0
 26 27  1  0  0  0
 26 13  1  0  0  0
 13 14  1  0  0  0
 14 15  1  0  0  0
 15 16  2  0  0  0
 15 18  1  0  0  0
 18 19  1  0  0  0
 19 20  1  0  0  0
 20 21  2  0  0  0
 21 22  1  0  0  0
 22 23  2  0  0  0
 23 24  1  0  0  0
 24 25  2  0  0  0
 13  6  1  0  0  0
  6  7  2  0  0  0
  6  8  1  0  0  0
  8  9  1  0  0  0
  9 10  1  0  0  0
 10 11  1  0  0  0
 11 12  1  0  0  0
 12  2  1  0  0  0
  2  3  2  0  0  0
  2  4  1  0  0  0
  4  1  1  0  0  0
  1 58  1  0  0  0
 58 59  1  0  0  0
 59 60  1  0  0  0
 59 61  1  0  0  0
  1 30  1  0  0  0
 30 31  2  0  0  0
 30 32  1  0  0  0
 32 34  1  0  0  0
 34 55  1  0  0  0
 55 56  1  0  0  0
 34 35  1  0  0  0
 35 36  2  0  0  0
 35 37  1  0  0  0
 37 39  1  0  0  0
 39 52  1  0  0  0
 52 53  1  0  0  0
 52 54  1  0  0  0
 39 40  1  0  0  0
 40 41  2  0  0  0
 40 42  1  0  0  0
 42 44  1  0  0  0
 44 49  1  0  0  0
 49 50  1  0  0  0
 44 45  1  0  0  0
 45 46  1  0  0  0
 45 47  2  0  0  0
 25 20  1  0  0  0
 12  8  1  0  0  0
 14 17  1  0  0  0
  4  5  1  0  0  0
 32 33  1  0  0  0
 56 57  1  0  0  0
 37 38  1  0  0  0
 42 43  1  0  0  0
 50 51  1  0  0  0
 46 48  1  0  0  0
M  END
> <minimizedAffinity>
-8.00945

> <CNNscore>
0.4535123706

> <CNNaffinity>
7.4632401466

> <CNN_VS>
3.3846716881

> <CNNaffinity_variance>
0.2009104043

$$$$
[H]OC(=O)[C@@]([H])(N([H])C(=O)[C@@]([H])(N([H])C(=O)[C@@]([H])(N([H])C(=O)[C@@]([H])(N([H])C(=O)[C@@]1([H])N(C(=O)[C@@]([H])(N([H])C(=O)OC([H])([H])c2c([H])c([H])c([H])c([H])c2[H])[C@@]([H])(C([H])([H])[H])C([H])([H])C([H])([H])[H])C([H])([H])C([H])([H])C1([H])[H])C([H])([H])C([H])(C([H])([H])[H])C([H])([H])[H])C([H])([H])O[H])C([H])(C([H])([H])[H])C([H])([H])[H])C([H])([H])O[H]


 61 62  0  0  0  0  0  0  0  0999 V2000
   36.9502   16.2712   -9.4487 C   0  0  0  0  0  0  0  0  0  0  0  0
   36.0267   14.8830  -11.3638 C   0  0  0  0  0  0  0  0  0  0  0  0
   35.8210   13.9501  -10.5396 O   0  0  0  0  0  0  0  0  0  0  0  0
   36.5999   16.0724  -10.8318 N   0  0  0  0  0  0  0  0  0  0  0  0
   36.7685   16.8453  -11.4983 H   0  0  0  0  0  0  0  0  0  0  0  0
   38.1033   14.0784  -13.5314 C   0  0  0  0  0  0  0  0  0  0  0  0
   38.5900   14.2697  -12.3565 O   0  0  0  0  0  0  0  0  0  0  0  0
   36.7428   14.3382  -13.6781 N   0  0  0  0  0  0  0  0  0  0  0  0
   35.9187   14.2888  -14.9121 C   0  0  0  0  0  0  0  0  0  0  0  0
   34.9049   13.2705  -14.4497 C   0  0  0  0  0  0  0  0  0  0  0  0
   34.7330   13.5242  -12.9669 C   0  0  0  0  0  0  0  0  0  0  0  0
   35.6934   14.7274  -12.7592 C   0  0  0  0  0  0  0  0  0  0  0  0
   39.0767   13.6155  -14.5339 C   0  0  0  0  0  0  0  0  0  0  0  0
   40.4532   13.7899  -14.0320 N   0  0  0  0  0  0  0  0  0  0  0  0
   41.5889   13.7240  -14.8933 C   0  0  0  0  0  0  0  0  0  0  0  0
   41.3455   13.5032  -16.1222 O   0  0  0  0  0  0  0  0  0  0  0  0
   40.6536   13.9815  -13.0331 H   0  0  0  0  0  0  0  0  0  0  0  0
   42.8755   13.8836  -14.4658 O   0  0  0  0  0  0  0  0  0  0  0  0
   43.2704   13.3203  -13.2333 C   0  0  0  0  0  0  0  0  0  0  0  0
   43.4830   14.3830  -12.2347 C   0  0  0  0  0  0  0  0  0  0  0  0
   43.4786   14.0832  -10.8739 C   0  0  0  0  0  0  0  0  0  0  0  0
   43.6734   15.0292   -9.9036 C   0  0  0  0  0  0  0  0  0  0  0  0
   43.8826   16.3368  -10.3000 C   0  0  0  0  0  0  0  0  0  0  0  0
   43.8890   16.6452  -11.6449 C   0  0  0  0  0  0  0  0  0  0  0  0
   43.6915   15.6860  -12.6315 C   0  0  0  0  0  0  0  0  0  0  0  0
   38.8624   12.2555  -15.0813 C   0  0  0  0  0  0  0  0  0  0  0  0
   38.0105   11.3728  -14.1589 C   0  0  0  0  0  0  0  0  0  0  0  0
   39.0351   11.1248  -17.3427 C   0  0  0  0  0  0  0  0  0  0  0  0
   38.3241   12.1147  -16.4562 C   0  0  0  0  0  0  0  0  0  0  0  0
   35.7954   16.3894   -8.5563 C   0  0  0  0  0  0  0  0  0  0  0  0
   34.7132   16.8683   -8.9667 O   0  0  0  0  0  0  0  0  0  0  0  0
   35.8293   15.9809   -7.2071 N   0  0  0  0  0  0  0  0  0  0  0  0
   36.7092   15.5753   -6.8234 H   0  0  0  0  0  0  0  0  0  0  0  0
   34.6812   16.1140   -6.3627 C   0  0  0  0  0  0  0  0  0  0  0  0
   34.8323   17.2369   -5.4156 C   0  0  0  0  0  0  0  0  0  0  0  0
   34.1630   17.2802   -4.3392 O   0  0  0  0  0  0  0  0  0  0  0  0
   35.7283   18.2953   -5.6803 N   0  0  0  0  0  0  0  0  0  0  0  0
   36.2809   18.2710   -6.5609 H   0  0  0  0  0  0  0  0  0  0  0  0
   35.9026   19.4042   -4.7721 C   0  0  0  0  0  0  0  0  0  0  0  0
   35.6008   20.7151   -5.3780 C   0  0  0  0  0  0  0  0  0  0  0  0
   36.5020   21.5799   -5.4904 O   0  0  0  0  0  0  0  0  0  0  0  0
   34.2947   21.0111   -5.8386 N   0  0  0  0  0  0  0  0  0  0  0  0
   33.5563   20.2871   -5.7382 H   0  0  0  0  0  0  0  0  0  0  0  0
   33.9458   22.2844   -6.4419 C   0  0  0  0  0  0  0  0  0  0  0  0
   32.6272   22.6689   -5.9142 C   0  0  0  0  0  0  0  0  0  0  0  0
   31.7180   21.6897   -5.5499 O   0  0  0  0  0  0  0  0  0  0  0  0
   32.2556   23.8621   -5.7668 O   0  0  0  0  0  0  0  0  0  0  0  0
   31.3355   21.0082   -6.1698 H   0  0  0  0  0  0  0  0  0  0  0  0
   33.9098   22.1787   -7.9567 C   0  0  0  0  0  0  0  0  0  0  0  0
   32.9850   23.0440   -8.5222 O   0  0  0  0  0  0  0  0  0  0  0  0
   32.0908   22.7385   -8.2564 H   0  0  0  0  0  0  0  0  0  0  0  0
   37.3205   19.4154   -4.1931 C   0  0  0  0  0  0  0  0  0  0  0  0
   37.2496   18.8912   -2.7675 C   0  0  0  0  0  0  0  0  0  0  0  0
   38.2585   18.5990   -5.0358 C   0  0  0  0  0  0  0  0  0  0  0  0
   34.3534   14.8648   -5.6022 C   0  0  0  0  0  0  0  0  0  0  0  0
   35.2761   14.6160   -4.5849 O   0  0  0  0  0  0  0  0  0  0  0  0
   36.1825   14.5239   -4.9632 H   0  0  0  0  0  0  0  0  0  0  0  0
   38.0183   17.2848   -9.2134 C   0  0  0  0  0  0  0  0  0  0  0  0
   39.4135   16.8470   -9.1060 C   0  0  0  0  0  0  0  0  0  0  0  0
   40.1643   16.6035  -10.3635 C   0  0  0  0  0  0  0  0  0  0  0  0
   39.4020   15.5358   -8.3030 C   0  0  0  0  0  0  0  0  0  0  0  0
 28 29  1  0  0  0
 29 26  1  0  0  0
 26 27  1  0  0  0
 26 13  1  0  0  0
 13 14  1  0  0  0
 14 15  1  0  0  0
 15 16  2  0  0  0
 15 18  1  0  0  0
 18 19  1  0  0  0
 19 20  1  0  0  0
 20 21  2  0  0  0
 21 22  1  0  0  0
 22 23  2  0  0  0
 23 24  1  0  0  0
 24 25  2  0  0  0
 13  6  1  0  0  0
  6  7  2  0  0  0
  6  8  1  0  0  0
  8  9  1  0  0  0
  9 10  1  0  0  0
 10 11  1  0  0  0
 11 12  1  0  0  0
 12  2  1  0  0  0
  2  3  2  0  0  0
  2  4  1  0  0  0
  4  1  1  0  0  0
  1 58  1  0  0  0
 58 59  1  0  0  0
 59 60  1  0  0  0
 59 61  1  0  0  0
  1 30  1  0  0  0
 30 31  2  0  0  0
 30 32  1  0  0  0
 32 34  1  0  0  0
 34 55  1  0  0  0
 55 56  1  0  0  0
 34 35  1  0  0  0
 35 36  2  0  0  0
 35 37  1  0  0  0
 37 39  1  0  0  0
 39 52  1  0  0  0
 52 53  1  0  0  0
 52 54  1  0  0  0
 39 40  1  0  0  0
 40 41  2  0  0  0
 40 42  1  0  0  0
 42 44  1  0  0  0
 44 49  1  0  0  0
 49 50  1  0  0  0
 44 45  1  0  0  0
 45 46  1  0  0  0
 45 47  2  0  0  0
 25 20  1  0  0  0
 12  8  1  0  0  0
 14 17  1  0  0  0
  4  5  1  0  0  0
 32 33  1  0  0  0
 56 57  1  0  0  0
 37 38  1  0  0  0
 42 43  1  0  0  0
 50 51  1  0  0  0
 46 48  1  0  0  0
M  END
> <minimizedAffinity>
-6.62483

> <CNNscore>
0.2013765723

> <CNNaffinity>
6.7056512833

> <CNN_VS>
1.3503611088

> <CNNaffinity_variance>
0.3693612218

$$$$
[H]OC(=O)[C@@]([H])(N([H])C(=O)[C@@]([H])(N([H])C(=O)[C@@]([H])(N([H])C(=O)[C@@]([H])(N([H])C(=O)[C@@]1([H])N(C(=O)[C@@]([H])(N([H])C(=O)OC([H])([H])c2c([H])c([H])c([H])c([H])c2[H])[C@@]([H])(C([H])([H])[H])C([H])([H])C([H])([H])[H])C([H])([H])C([H])([H])C1([H])[H])C([H])([H])C([H])(C([H])([H])[H])C([H])([H])[H])C([H])([H])O[H])C([H])(C([H])([H])[H])C([H])([H])[H])C([H])([H])O[H]


 61 62  0  0  0  0  0  0  0  0999 V2000
   38.4025   15.2551  -12.6818 C   0  0  0  0  0  0  0  0  0  0  0  0
   40.8905   15.7556  -12.6002 C   0  0  0  0  0  0  0  0  0  0  0  0
   40.6193   16.9597  -12.8617 O   0  0  0  0  0  0  0  0  0  0  0  0
   39.7795   14.8710  -12.5038 N   0  0  0  0  0  0  0  0  0  0  0  0
   39.9904   13.8822  -12.2852 H   0  0  0  0  0  0  0  0  0  0  0  0
   42.1872   15.3533   -9.8046 C   0  0  0  0  0  0  0  0  0  0  0  0
   40.9952   15.8355   -9.7868 O   0  0  0  0  0  0  0  0  0  0  0  0
   42.7492   15.1615  -11.0645 N   0  0  0  0  0  0  0  0  0  0  0  0
   44.1187   14.7017  -11.4070 C   0  0  0  0  0  0  0  0  0  0  0  0
   43.7381   13.4904  -12.2233 C   0  0  0  0  0  0  0  0  0  0  0  0
   42.4489   13.8692  -12.9213 C   0  0  0  0  0  0  0  0  0  0  0  0
   42.2557   15.3254  -12.4161 C   0  0  0  0  0  0  0  0  0  0  0  0
   42.7636   15.0856   -8.4769 C   0  0  0  0  0  0  0  0  0  0  0  0
   42.7313   13.6397   -8.1850 N   0  0  0  0  0  0  0  0  0  0  0  0
   42.1504   13.1196   -6.9900 C   0  0  0  0  0  0  0  0  0  0  0  0
   41.6627   13.9775   -6.1872 O   0  0  0  0  0  0  0  0  0  0  0  0
   43.1176   12.9377   -8.8428 H   0  0  0  0  0  0  0  0  0  0  0  0
   42.0994   11.7893   -6.6879 O   0  0  0  0  0  0  0  0  0  0  0  0
   43.2648   11.1383   -6.2295 C   0  0  0  0  0  0  0  0  0  0  0  0
   43.1129   10.7642   -4.8122 C   0  0  0  0  0  0  0  0  0  0  0  0
   42.0056   10.0303   -4.3912 C   0  0  0  0  0  0  0  0  0  0  0  0
   41.8151    9.6533   -3.0890 C   0  0  0  0  0  0  0  0  0  0  0  0
   42.7675   10.0213   -2.1572 C   0  0  0  0  0  0  0  0  0  0  0  0
   43.8681   10.7481   -2.5628 C   0  0  0  0  0  0  0  0  0  0  0  0
   44.0633   11.1317   -3.8846 C   0  0  0  0  0  0  0  0  0  0  0  0
   44.0994   15.6679   -8.2090 C   0  0  0  0  0  0  0  0  0  0  0  0
   44.0257   16.9818   -7.4191 C   0  0  0  0  0  0  0  0  0  0  0  0
   46.4111   15.5195   -7.1814 C   0  0  0  0  0  0  0  0  0  0  0  0
   45.1341   14.8195   -7.5688 C   0  0  0  0  0  0  0  0  0  0  0  0
   37.7408   15.6770  -11.4456 C   0  0  0  0  0  0  0  0  0  0  0  0
   37.0510   16.7218  -11.4109 O   0  0  0  0  0  0  0  0  0  0  0  0
   37.8379   14.9488  -10.2419 N   0  0  0  0  0  0  0  0  0  0  0  0
   38.4007   14.0719  -10.2252 H   0  0  0  0  0  0  0  0  0  0  0  0
   37.1792   15.3930   -9.0512 C   0  0  0  0  0  0  0  0  0  0  0  0
   38.0581   15.2766   -7.8702 C   0  0  0  0  0  0  0  0  0  0  0  0
   38.8770   14.3149   -7.7556 O   0  0  0  0  0  0  0  0  0  0  0  0
   38.0133   16.2342   -6.8339 N   0  0  0  0  0  0  0  0  0  0  0  0
   37.3442   17.0260   -6.9165 H   0  0  0  0  0  0  0  0  0  0  0  0
   38.8630   16.1513   -5.6694 C   0  0  0  0  0  0  0  0  0  0  0  0
   38.1851   15.5933   -4.4838 C   0  0  0  0  0  0  0  0  0  0  0  0
   38.8350   15.3631   -3.4362 O   0  0  0  0  0  0  0  0  0  0  0  0
   36.7973   15.3125   -4.5144 N   0  0  0  0  0  0  0  0  0  0  0  0
   36.2702   15.5059   -5.3887 H   0  0  0  0  0  0  0  0  0  0  0  0
   36.0831   14.7636   -3.3762 C   0  0  0  0  0  0  0  0  0  0  0  0
   35.9118   13.3234   -3.6236 C   0  0  0  0  0  0  0  0  0  0  0  0
   35.9673   12.4306   -2.5662 O   0  0  0  0  0  0  0  0  0  0  0  0
   35.7128   12.8302   -4.7641 O   0  0  0  0  0  0  0  0  0  0  0  0
   36.7605   12.2939   -1.9769 H   0  0  0  0  0  0  0  0  0  0  0  0
   34.7365   15.4434   -3.1977 C   0  0  0  0  0  0  0  0  0  0  0  0
   33.7030   14.5309   -3.0467 O   0  0  0  0  0  0  0  0  0  0  0  0
   33.6004   14.0541   -3.8986 H   0  0  0  0  0  0  0  0  0  0  0  0
   39.4556   17.5222   -5.3297 C   0  0  0  0  0  0  0  0  0  0  0  0
   40.9453   17.4775   -5.6308 C   0  0  0  0  0  0  0  0  0  0  0  0
   38.7696   18.6164   -6.0971 C   0  0  0  0  0  0  0  0  0  0  0  0
   35.8899   14.6778   -8.7819 C   0  0  0  0  0  0  0  0  0  0  0  0
   35.8469   14.1479   -7.4914 O   0  0  0  0  0  0  0  0  0  0  0  0
   36.5906   13.5134   -7.3595 H   0  0  0  0  0  0  0  0  0  0  0  0
   37.5981   14.3258  -13.5261 C   0  0  0  0  0  0  0  0  0  0  0  0
   37.5461   12.9022  -13.1792 C   0  0  0  0  0  0  0  0  0  0  0  0
   37.9189   11.9177  -14.2261 C   0  0  0  0  0  0  0  0  0  0  0  0
   36.0995   12.6072  -12.7493 C   0  0  0  0  0  0  0  0  0  0  0  0
 28 29  1  0  0  0
 29 26  1  0  0  0
 26 27  1  0  0  0
 26 13  1  0  0  0
 13 14  1  0  0  0
 14 15  1  0  0  0
 15 16  2  0  0  0
 15 18  1  0  0  0
 18 19  1  0  0  0
 19 20  1  0  0  0
 20 21  2  0  0  0
 21 22  1  0  0  0
 22 23  2  0  0  0
 23 24  1  0  0  0
 24 25  2  0  0  0
 13  6  1  0  0  0
  6  7  2  0  0  0
  6  8  1  0  0  0
  8  9  1  0  0  0
  9 10  1  0  0  0
 10 11  1  0  0  0
 11 12  1  0  0  0
 12  2  1  0  0  0
  2  3  2  0  0  0
  2  4  1  0  0  0
  4  1  1  0  0  0
  1 58  1  0  0  0
 58 59  1  0  0  0
 59 60  1  0  0  0
 59 61  1  0  0  0
  1 30  1  0  0  0
 30 31  2  0  0  0
 30 32  1  0  0  0
 32 34  1  0  0  0
 34 55  1  0  0  0
 55 56  1  0  0  0
 34 35  1  0  0  0
 35 36  2  0  0  0
 35 37  1  0  0  0
 37 39  1  0  0  0
 39 52  1  0  0  0
 52 53  1  0  0  0
 52 54  1  0  0  0
 39 40  1  0  0  0
 40 41  2  0  0  0
 40 42  1  0  0  0
 42 44  1  0  0  0
 44 49  1  0  0  0
 49 50  1  0  0  0
 44 45  1  0  0  0
 45 46  1  0  0  0
 45 47  2  0  0  0
 25 20  1  0  0  0
 12  8  1  0  0  0
 14 17  1  0  0  0
  4  5  1  0  0  0
 32 33  1  0  0  0
 56 57  1  0  0  0
 37 38  1  0  0  0
 42 43  1  0  0  0
 50 51  1  0  0  0
 46 48  1  0  0  0
M  END
> <minimizedAffinity>
-7.32372

> <CNNscore>
0.1710567325

> <CNNaffinity>
6.4664916992

> <CNN_VS>
1.1061369181

> <CNNaffinity_variance>
0.4245676398

$$$$
[H]OC(=O)[C@@]([H])(N([H])C(=O)[C@@]([H])(N([H])C(=O)[C@@]([H])(N([H])C(=O)[C@@]([H])(N([H])C(=O)[C@@]1([H])N(C(=O)[C@@]([H])(N([H])C(=O)OC([H])([H])c2c([H])c([H])c([H])c([H])c2[H])[C@@]([H])(C([H])([H])[H])C([H])([H])C([H])([H])[H])C([H])([H])C([H])([H])C1([H])[H])C([H])([H])C([H])(C([H])([H])[H])C([H])([H])[H])C([H])([H])O[H])C([H])(C([H])([H])[H])C([H])([H])[H])C([H])([H])O[H]


 61 62  0  0  0  0  0  0  0  0999 V2000
   36.5476   16.6683   -9.2213 C   0  0  0  0  0  0  0  0  0  0  0  0
   35.7856   15.2460  -11.1819 C   0  0  0  0  0  0  0  0  0  0  0  0
   35.6797   14.2722  -10.3867 O   0  0  0  0  0  0  0  0  0  0  0  0
   36.2250   16.4740  -10.6119 N   0  0  0  0  0  0  0  0  0  0  0  0
   36.3110   17.2801  -11.2543 H   0  0  0  0  0  0  0  0  0  0  0  0
   37.8509   14.2696  -13.2889 C   0  0  0  0  0  0  0  0  0  0  0  0
   38.3218   14.4407  -12.1046 O   0  0  0  0  0  0  0  0  0  0  0  0
   36.5161   14.6230  -13.4719 N   0  0  0  0  0  0  0  0  0  0  0  0
   35.7202   14.6164  -14.7251 C   0  0  0  0  0  0  0  0  0  0  0  0
   34.6260   13.6782  -14.2768 C   0  0  0  0  0  0  0  0  0  0  0  0
   34.4373   13.9619  -12.8015 C   0  0  0  0  0  0  0  0  0  0  0  0
   35.4754   15.0968  -12.5833 C   0  0  0  0  0  0  0  0  0  0  0  0
   38.8126   13.7265  -14.2621 C   0  0  0  0  0  0  0  0  0  0  0  0
   40.1883   13.8346  -13.7399 N   0  0  0  0  0  0  0  0  0  0  0  0
   41.3263   13.8652  -14.6001 C   0  0  0  0  0  0  0  0  0  0  0  0
   41.0855   13.7910  -15.8471 O   0  0  0  0  0  0  0  0  0  0  0  0
   40.3865   13.9069  -12.7249 H   0  0  0  0  0  0  0  0  0  0  0  0
   42.6122   13.9677  -14.1537 O   0  0  0  0  0  0  0  0  0  0  0  0
   43.6608   13.4373  -14.9356 C   0  0  0  0  0  0  0  0  0  0  0  0
   44.8500   13.2024  -14.0974 C   0  0  0  0  0  0  0  0  0  0  0  0
   46.1071   13.0585  -14.6811 C   0  0  0  0  0  0  0  0  0  0  0  0
   47.2450   12.8418  -13.9515 C   0  0  0  0  0  0  0  0  0  0  0  0
   47.1331   12.7632  -12.5760 C   0  0  0  0  0  0  0  0  0  0  0  0
   45.8932   12.9043  -11.9871 C   0  0  0  0  0  0  0  0  0  0  0  0
   44.7366   13.1245  -12.7263 C   0  0  0  0  0  0  0  0  0  0  0  0
   38.5295   12.3676  -14.7800 C   0  0  0  0  0  0  0  0  0  0  0  0
   37.5968   11.5658  -13.8618 C   0  0  0  0  0  0  0  0  0  0  0  0
   36.7342   11.4578  -16.3200 C   0  0  0  0  0  0  0  0  0  0  0  0
   38.0242   12.2216  -16.1669 C   0  0  0  0  0  0  0  0  0  0  0  0
   35.4057   17.0744   -8.3996 C   0  0  0  0  0  0  0  0  0  0  0  0
   35.3834   18.1947   -7.8400 O   0  0  0  0  0  0  0  0  0  0  0  0
   34.2837   16.2461   -8.1908 N   0  0  0  0  0  0  0  0  0  0  0  0
   34.2590   15.3055   -8.6387 H   0  0  0  0  0  0  0  0  0  0  0  0
   33.1859   16.6752   -7.3786 C   0  0  0  0  0  0  0  0  0  0  0  0
   33.3289   16.2100   -5.9844 C   0  0  0  0  0  0  0  0  0  0  0  0
   32.6089   15.2697   -5.5307 O   0  0  0  0  0  0  0  0  0  0  0  0
   34.2734   16.7982   -5.1154 N   0  0  0  0  0  0  0  0  0  0  0  0
   34.8678   17.5713   -5.4763 H   0  0  0  0  0  0  0  0  0  0  0  0
   34.4410   16.3625   -3.7490 C   0  0  0  0  0  0  0  0  0  0  0  0
   34.3877   17.4636   -2.7687 C   0  0  0  0  0  0  0  0  0  0  0  0
   34.4427   17.2171   -1.5403 O   0  0  0  0  0  0  0  0  0  0  0  0
   34.2746   18.8073   -3.2016 N   0  0  0  0  0  0  0  0  0  0  0  0
   34.2281   18.9986   -4.2218 H   0  0  0  0  0  0  0  0  0  0  0  0
   34.2185   19.9264   -2.2788 C   0  0  0  0  0  0  0  0  0  0  0  0
   33.0763   20.7631   -2.6789 C   0  0  0  0  0  0  0  0  0  0  0  0
   32.5683   20.6679   -3.9638 O   0  0  0  0  0  0  0  0  0  0  0  0
   32.5112   21.5854   -1.9119 O   0  0  0  0  0  0  0  0  0  0  0  0
   33.0810   20.8688   -4.7956 H   0  0  0  0  0  0  0  0  0  0  0  0
   35.5095   20.7260   -2.3118 C   0  0  0  0  0  0  0  0  0  0  0  0
   35.4046   21.8614   -3.1013 O   0  0  0  0  0  0  0  0  0  0  0  0
   35.3008   21.5678   -4.0321 H   0  0  0  0  0  0  0  0  0  0  0  0
   35.7496   15.5841   -3.5830 C   0  0  0  0  0  0  0  0  0  0  0  0
   35.4330   14.1019   -3.7049 C   0  0  0  0  0  0  0  0  0  0  0  0
   36.7714   16.0158   -4.5960 C   0  0  0  0  0  0  0  0  0  0  0  0
   31.8505   16.2486   -7.9089 C   0  0  0  0  0  0  0  0  0  0  0  0
   31.8898   14.9613   -8.4470 O   0  0  0  0  0  0  0  0  0  0  0  0
   32.5466   14.9200   -9.1819 H   0  0  0  0  0  0  0  0  0  0  0  0
   37.7952   17.4457   -8.9714 C   0  0  0  0  0  0  0  0  0  0  0  0
   39.0005   16.7444   -8.5182 C   0  0  0  0  0  0  0  0  0  0  0  0
   39.0582   15.2722   -8.7015 C   0  0  0  0  0  0  0  0  0  0  0  0
   39.1405   17.0376   -7.0153 C   0  0  0  0  0  0  0  0  0  0  0  0
 28 29  1  0  0  0
 29 26  1  0  0  0
 26 27  1  0  0  0
 26 13  1  0  0  0
 13 14  1  0  0  0
 14 15  1  0  0  0
 15 16  2  0  0  0
 15 18  1  0  0  0
 18 19  1  0  0  0
 19 20  1  0  0  0
 20 21  2  0  0  0
 21 22  1  0  0  0
 22 23  2  0  0  0
 23 24  1  0  0  0
 24 25  2  0  0  0
 13  6  1  0  0  0
  6  7  2  0  0  0
  6  8  1  0  0  0
  8  9  1  0  0  0
  9 10  1  0  0  0
 10 11  1  0  0  0
 11 12  1  0  0  0
 12  2  1  0  0  0
  2  3  2  0  0  0
  2  4  1  0  0  0
  4  1  1  0  0  0
  1 58  1  0  0  0
 58 59  1  0  0  0
 59 60  1  0  0  0
 59 61  1  0  0  0
  1 30  1  0  0  0
 30 31  2  0  0  0
 30 32  1  0  0  0
 32 34  1  0  0  0
 34 55  1  0  0  0
 55 56  1  0  0  0
 34 35  1  0  0  0
 35 36  2  0  0  0
 35 37  1  0  0  0
 37 39  1  0  0  0
 39 52  1  0  0  0
 52 53  1  0  0  0
 52 54  1  0  0  0
 39 40  1  0  0  0
 40 41  2  0  0  0
 40 42  1  0  0  0
 42 44  1  0  0  0
 44 49  1  0  0  0
 49 50  1  0  0  0
 44 45  1  0  0  0
 45 46  1  0  0  0
 45 47  2  0  0  0
 25 20  1  0  0  0
 12  8  1  0  0  0
 14 17  1  0  0  0
  4  5  1  0  0  0
 32 33  1  0  0  0
 56 57  1  0  0  0
 37 38  1  0  0  0
 42 43  1  0  0  0
 50 51  1  0  0  0
 46 48  1  0  0  0
M  END
> <minimizedAffinity>
-6.80740

> <CNNscore>
0.1634691060

> <CNNaffinity>
6.4973363876

> <CNN_VS>
1.0621137619

> <CNNaffinity_variance>
0.3477321565

$$$$
[H]OC(=O)[C@@]([H])(N([H])C(=O)[C@@]([H])(N([H])C(=O)[C@@]([H])(N([H])C(=O)[C@@]([H])(N([H])C(=O)[C@@]1([H])N(C(=O)[C@@]([H])(N([H])C(=O)OC([H])([H])c2c([H])c([H])c([H])c([H])c2[H])[C@@]([H])(C([H])([H])[H])C([H])([H])C([H])([H])[H])C([H])([H])C([H])([H])C1([H])[H])C([H])([H])C([H])(C([H])([H])[H])C([H])([H])[H])C([H])([H])O[H])C([H])(C([H])([H])[H])C([H])([H])[H])C([H])([H])O[H]


 61 62  0  0  0  0  0  0  0  0999 V2000
   33.7705   15.2384  -12.1972 C   0  0  0  0  0  0  0  0  0  0  0  0
   36.0623   15.3272  -11.1074 C   0  0  0  0  0  0  0  0  0  0  0  0
   36.0105   14.0728  -10.9820 O   0  0  0  0  0  0  0  0  0  0  0  0
   34.9349   15.9413  -11.7223 N   0  0  0  0  0  0  0  0  0  0  0  0
   34.9691   16.9691  -11.8341 H   0  0  0  0  0  0  0  0  0  0  0  0
   36.8413   15.5632   -8.1081 C   0  0  0  0  0  0  0  0  0  0  0  0
   35.7366   14.9457   -8.3359 O   0  0  0  0  0  0  0  0  0  0  0  0
   37.4795   16.1036   -9.2220 N   0  0  0  0  0  0  0  0  0  0  0  0
   38.7120   16.9297   -9.2727 C   0  0  0  0  0  0  0  0  0  0  0  0
   39.5279   16.0385  -10.1775 C   0  0  0  0  0  0  0  0  0  0  0  0
   38.5285   15.4128  -11.1273 C   0  0  0  0  0  0  0  0  0  0  0  0
   37.2078   16.0726  -10.6441 C   0  0  0  0  0  0  0  0  0  0  0  0
   37.2477   15.5979   -6.6937 C   0  0  0  0  0  0  0  0  0  0  0  0
   36.3922   16.5313   -5.9362 N   0  0  0  0  0  0  0  0  0  0  0  0
   36.9336   17.4927   -5.0315 C   0  0  0  0  0  0  0  0  0  0  0  0
   38.2003   17.4968   -4.9134 O   0  0  0  0  0  0  0  0  0  0  0  0
   35.3607   16.5379   -6.0393 H   0  0  0  0  0  0  0  0  0  0  0  0
   36.1743   18.3737   -4.3168 O   0  0  0  0  0  0  0  0  0  0  0  0
   36.3056   18.4202   -2.9122 C   0  0  0  0  0  0  0  0  0  0  0  0
   35.1922   17.6955   -2.2743 C   0  0  0  0  0  0  0  0  0  0  0  0
   34.0851   18.3890   -1.7893 C   0  0  0  0  0  0  0  0  0  0  0  0
   33.0222   17.7673   -1.1910 C   0  0  0  0  0  0  0  0  0  0  0  0
   33.0570   16.3912   -1.0660 C   0  0  0  0  0  0  0  0  0  0  0  0
   34.1484   15.6941   -1.5427 C   0  0  0  0  0  0  0  0  0  0  0  0
   35.2285   16.3236   -2.1507 C   0  0  0  0  0  0  0  0  0  0  0  0
   37.3674   14.2887   -6.0104 C   0  0  0  0  0  0  0  0  0  0  0  0
   38.8224   13.9161   -5.6942 C   0  0  0  0  0  0  0  0  0  0  0  0
   35.2478   13.3483   -4.9883 C   0  0  0  0  0  0  0  0  0  0  0  0
   36.5680   14.0459   -4.7849 C   0  0  0  0  0  0  0  0  0  0  0  0
   32.6112   15.3453  -11.3094 C   0  0  0  0  0  0  0  0  0  0  0  0
   31.4579   15.4955  -11.7744 O   0  0  0  0  0  0  0  0  0  0  0  0
   32.7187   15.2879   -9.9045 N   0  0  0  0  0  0  0  0  0  0  0  0
   33.6594   15.1623   -9.4740 H   0  0  0  0  0  0  0  0  0  0  0  0
   31.5632   15.3986   -9.0670 C   0  0  0  0  0  0  0  0  0  0  0  0
   31.5986   16.6315   -8.2550 C   0  0  0  0  0  0  0  0  0  0  0  0
   30.6029   17.4159   -8.2117 O   0  0  0  0  0  0  0  0  0  0  0  0
   32.7425   16.9725   -7.5011 N   0  0  0  0  0  0  0  0  0  0  0  0
   33.5654   16.3374   -7.5306 H   0  0  0  0  0  0  0  0  0  0  0  0
   32.8062   18.1677   -6.6933 C   0  0  0  0  0  0  0  0  0  0  0  0
   33.9525   19.0378   -7.0179 C   0  0  0  0  0  0  0  0  0  0  0  0
   35.0154   18.5411   -7.4609 O   0  0  0  0  0  0  0  0  0  0  0  0
   33.8663   20.4395   -6.8341 N   0  0  0  0  0  0  0  0  0  0  0  0
   32.9811   20.8388   -6.4648 H   0  0  0  0  0  0  0  0  0  0  0  0
   34.9642   21.3391   -7.1380 C   0  0  0  0  0  0  0  0  0  0  0  0
   35.5049   21.8143   -5.8548 C   0  0  0  0  0  0  0  0  0  0  0  0
   36.5857   21.1667   -5.2797 O   0  0  0  0  0  0  0  0  0  0  0  0
   35.0395   22.7981   -5.2230 O   0  0  0  0  0  0  0  0  0  0  0  0
   36.5913   20.2110   -4.9941 H   0  0  0  0  0  0  0  0  0  0  0  0
   34.4938   22.5058   -7.9894 C   0  0  0  0  0  0  0  0  0  0  0  0
   33.4857   22.1414   -8.8694 O   0  0  0  0  0  0  0  0  0  0  0  0
   33.8745   21.5271   -9.5290 H   0  0  0  0  0  0  0  0  0  0  0  0
   32.8286   17.8162   -5.2027 C   0  0  0  0  0  0  0  0  0  0  0  0
   31.5559   18.3599   -4.5730 C   0  0  0  0  0  0  0  0  0  0  0  0
   32.9578   16.3340   -4.9954 C   0  0  0  0  0  0  0  0  0  0  0  0
   31.3655   14.2173   -8.1661 C   0  0  0  0  0  0  0  0  0  0  0  0
   30.7255   14.5694   -6.9767 O   0  0  0  0  0  0  0  0  0  0  0  0
   31.2552   15.2469   -6.4934 H   0  0  0  0  0  0  0  0  0  0  0  0
   34.0348   13.8612  -12.7041 C   0  0  0  0  0  0  0  0  0  0  0  0
   34.1217   13.6317  -14.1497 C   0  0  0  0  0  0  0  0  0  0  0  0
   33.7911   12.2770  -14.6593 C   0  0  0  0  0  0  0  0  0  0  0  0
   35.5698   13.9482  -14.5586 C   0  0  0  0  0  0  0  0  0  0  0  0
 28 29  1  0  0  0
 29 26  1  0  0  0
 26 27  1  0  0  0
 26 13  1  0  0  0
 13 14  1  0  0  0
 14 15  1  0  0  0
 15 16  2  0  0  0
 15 18  1  0  0  0
 18 19  1  0  0  0
 19 20  1  0  0  0
 20 21  2  0  0  0
 21 22  1  0  0  0
 22 23  2  0  0  0
 23 24  1  0  0  0
 24 25  2  0  0  0
 13  6  1  0  0  0
  6  7  2  0  0  0
  6  8  1  0  0  0
  8  9  1  0  0  0
  9 10  1  0  0  0
 10 11  1  0  0  0
 11 12  1  0  0  0
 12  2  1  0  0  0
  2  3  2  0  0  0
  2  4  1  0  0  0
  4  1  1  0  0  0
  1 58  1  0  0  0
 58 59  1  0  0  0
 59 60  1  0  0  0
 59 61  1  0  0  0
  1 30  1  0  0  0
 30 31  2  0  0  0
 30 32  1  0  0  0
 32 34  1  0  0  0
 34 55  1  0  0  0
 55 56  1  0  0  0
 34 35  1  0  0  0
 35 36  2  0  0  0
 35 37  1  0  0  0
 37 39  1  0  0  0
 39 52  1  0  0  0
 52 53  1  0  0  0
 52 54  1  0  0  0
 39 40  1  0  0  0
 40 41  2  0  0  0
 40 42  1  0  0  0
 42 44  1  0  0  0
 44 49  1  0  0  0
 49 50  1  0  0  0
 44 45  1  0  0  0
 45 46  1  0  0  0
 45 47  2  0  0  0
 25 20  1  0  0  0
 12  8  1  0  0  0
 14 17  1  0  0  0
  4  5  1  0  0  0
 32 33  1  0  0  0
 56 57  1  0  0  0
 37 38  1  0  0  0
 42 43  1  0  0  0
 50 51  1  0  0  0
 46 48  1  0  0  0
M  END
> <minimizedAffinity>
-6.84790

> <CNNscore>
0.1560153216

> <CNNaffinity>
6.5755043030

> <CNN_VS>
1.0258793831

> <CNNaffinity_variance>
0.2138228416

$$$$
[H]OC(=O)[C@@]([H])(N([H])C(=O)[C@@]([H])(N([H])C(=O)[C@@]([H])(N([H])C(=O)[C@@]([H])(N([H])C(=O)[C@@]1([H])N(C(=O)[C@@]([H])(N([H])C(=O)OC([H])([H])c2c([H])c([H])c([H])c([H])c2[H])[C@@]([H])(C([H])([H])[H])C([H])([H])C([H])([H])[H])C([H])([H])C([H])([H])C1([H])[H])C([H])([H])C([H])(C([H])([H])[H])C([H])([H])[H])C([H])([H])O[H])C([H])(C([H])([H])[H])C([H])([H])[H])C([H])([H])O[H]


 61 62  0  0  0  0  0  0  0  0999 V2000
   39.9902   14.3921  -13.8031 C   0  0  0  0  0  0  0  0  0  0  0  0
   41.1230   15.9630  -12.1609 C   0  0  0  0  0  0  0  0  0  0  0  0
   40.4753   16.9132  -12.6800 O   0  0  0  0  0  0  0  0  0  0  0  0
   40.8925   14.6725  -12.7156 N   0  0  0  0  0  0  0  0  0  0  0  0
   41.4151   13.8855  -12.2943 H   0  0  0  0  0  0  0  0  0  0  0  0
   40.4800   15.2359   -9.2086 C   0  0  0  0  0  0  0  0  0  0  0  0
   39.5137   15.0515  -10.0369 O   0  0  0  0  0  0  0  0  0  0  0  0
   41.6355   15.8073   -9.7363 N   0  0  0  0  0  0  0  0  0  0  0  0
   42.8752   16.2120   -9.0268 C   0  0  0  0  0  0  0  0  0  0  0  0
   43.8507   15.3580   -9.7998 C   0  0  0  0  0  0  0  0  0  0  0  0
   43.3035   15.3055  -11.2106 C   0  0  0  0  0  0  0  0  0  0  0  0
   42.0394   16.1975  -11.0711 C   0  0  0  0  0  0  0  0  0  0  0  0
   40.1980   14.8104   -7.8279 C   0  0  0  0  0  0  0  0  0  0  0  0
   41.2812   13.9432   -7.3264 N   0  0  0  0  0  0  0  0  0  0  0  0
   41.0555   12.5831   -6.9587 C   0  0  0  0  0  0  0  0  0  0  0  0
   39.8623   12.1609   -7.0864 O   0  0  0  0  0  0  0  0  0  0  0  0
   42.2566   14.2813   -7.2324 H   0  0  0  0  0  0  0  0  0  0  0  0
   42.0327   11.7506   -6.4945 O   0  0  0  0  0  0  0  0  0  0  0  0
   42.7111   12.0773   -5.3006 C   0  0  0  0  0  0  0  0  0  0  0  0
   42.9260   10.8649   -4.4910 C   0  0  0  0  0  0  0  0  0  0  0  0
   44.1965   10.3020   -4.3875 C   0  0  0  0  0  0  0  0  0  0  0  0
   44.4541    9.1791   -3.6478 C   0  0  0  0  0  0  0  0  0  0  0  0
   43.4019    8.5837   -2.9777 C   0  0  0  0  0  0  0  0  0  0  0  0
   42.1394    9.1325   -3.0731 C   0  0  0  0  0  0  0  0  0  0  0  0
   41.8760   10.2726   -3.8235 C   0  0  0  0  0  0  0  0  0  0  0  0
   39.8657   15.8841   -6.8625 C   0  0  0  0  0  0  0  0  0  0  0  0
   41.1117   16.5152   -6.2261 C   0  0  0  0  0  0  0  0  0  0  0  0
   38.8207   18.1298   -6.3271 C   0  0  0  0  0  0  0  0  0  0  0  0
   38.9791   16.9898   -7.2999 C   0  0  0  0  0  0  0  0  0  0  0  0
   38.5889   14.6915  -13.5023 C   0  0  0  0  0  0  0  0  0  0  0  0
   37.8630   15.2753  -14.3395 O   0  0  0  0  0  0  0  0  0  0  0  0
   37.9822   14.3492  -12.2762 N   0  0  0  0  0  0  0  0  0  0  0  0
   38.5487   13.8609  -11.5505 H   0  0  0  0  0  0  0  0  0  0  0  0
   36.6095   14.6602  -12.0155 C   0  0  0  0  0  0  0  0  0  0  0  0
   36.4479   15.3589  -10.7247 C   0  0  0  0  0  0  0  0  0  0  0  0
   36.8166   16.5639  -10.5817 O   0  0  0  0  0  0  0  0  0  0  0  0
   35.8762   14.7056   -9.6113 N   0  0  0  0  0  0  0  0  0  0  0  0
   35.5720   13.7168   -9.7167 H   0  0  0  0  0  0  0  0  0  0  0  0
   35.6998   15.3628   -8.3378 C   0  0  0  0  0  0  0  0  0  0  0  0
   36.1684   14.5614   -7.1912 C   0  0  0  0  0  0  0  0  0  0  0  0
   36.7405   13.4620   -7.3825 O   0  0  0  0  0  0  0  0  0  0  0  0
   35.9789   15.0228   -5.8657 N   0  0  0  0  0  0  0  0  0  0  0  0
   35.5020   15.9344   -5.7201 H   0  0  0  0  0  0  0  0  0  0  0  0
   36.4210   14.2734   -4.7038 C   0  0  0  0  0  0  0  0  0  0  0  0
   35.2155   13.8575   -3.9700 C   0  0  0  0  0  0  0  0  0  0  0  0
   35.3035   13.5328   -2.6265 O   0  0  0  0  0  0  0  0  0  0  0  0
   34.0744   13.7728   -4.4939 O   0  0  0  0  0  0  0  0  0  0  0  0
   35.8562   12.7902   -2.2548 H   0  0  0  0  0  0  0  0  0  0  0  0
   37.3242   15.1177   -3.8213 C   0  0  0  0  0  0  0  0  0  0  0  0
   37.9252   14.3720   -2.8182 O   0  0  0  0  0  0  0  0  0  0  0  0
   37.2198   14.0810   -2.2008 H   0  0  0  0  0  0  0  0  0  0  0  0
   34.2352   15.7591   -8.1284 C   0  0  0  0  0  0  0  0  0  0  0  0
   34.2077   17.1577   -7.5327 C   0  0  0  0  0  0  0  0  0  0  0  0
   33.4643   15.6920   -9.4160 C   0  0  0  0  0  0  0  0  0  0  0  0
   35.7112   13.4608  -12.0457 C   0  0  0  0  0  0  0  0  0  0  0  0
   34.3820   13.8105  -12.2884 O   0  0  0  0  0  0  0  0  0  0  0  0
   34.0592   14.4262  -11.5884 H   0  0  0  0  0  0  0  0  0  0  0  0
   40.2102   13.0796  -14.4758 C   0  0  0  0  0  0  0  0  0  0  0  0
   41.1222   13.0029  -15.6213 C   0  0  0  0  0  0  0  0  0  0  0  0
   42.5658   13.2503  -15.3780 C   0  0  0  0  0  0  0  0  0  0  0  0
   40.6321   14.0418  -16.6435 C   0  0  0  0  0  0  0  0  0  0  0  0
 28 29  1  0  0  0
 29 26  1  0  0  0
 26 27  1  0  0  0
 26 13  1  0  0  0
 13 14  1  0  0  0
 14 15  1  0  0  0
 15 16  2  0  0  0
 15 18  1  0  0  0
 18 19  1  0  0  0
 19 20  1  0  0  0
 20 21  2  0  0  0
 21 22  1  0  0  0
 22 23  2  0  0  0
 23 24  1  0  0  0
 24 25  2  0  0  0
 13  6  1  0  0  0
  6  7  2  0  0  0
  6  8  1  0  0  0
  8  9  1  0  0  0
  9 10  1  0  0  0
 10 11  1  0  0  0
 11 12  1  0  0  0
 12  2  1  0  0  0
  2  3  2  0  0  0
  2  4  1  0  0  0
  4  1  1  0  0  0
  1 58  1  0  0  0
 58 59  1  0  0  0
 59 60  1  0  0  0
 59 61  1  0  0  0
  1 30  1  0  0  0
 30 31  2  0  0  0
 30 32  1  0  0  0
 32 34  1  0  0  0
 34 55  1  0  0  0
 55 56  1  0  0  0
 34 35  1  0  0  0
 35 36  2  0  0  0
 35 37  1  0  0  0
 37 39  1  0  0  0
 39 52  1  0  0  0
 52 53  1  0  0  0
 52 54  1  0  0  0
 39 40  1  0  0  0
 40 41  2  0  0  0
 40 42  1  0  0  0
 42 44  1  0  0  0
 44 49  1  0  0  0
 49 50  1  0  0  0
 44 45  1  0  0  0
 45 46  1  0  0  0
 45 47  2  0  0  0
 25 20  1  0  0  0
 12  8  1  0  0  0
 14 17  1  0  0  0
  4  5  1  0  0  0
 32 33  1  0  0  0
 56 57  1  0  0  0
 37 38  1  0  0  0
 42 43  1  0  0  0
 50 51  1  0  0  0
 46 48  1  0  0  0
M  END
> <minimizedAffinity>
-7.59374

> <CNNscore>
0.1284985691

> <CNNaffinity>
6.1640510559

> <CNN_VS>
0.7920717597

> <CNNaffinity_variance>
0.5566259027

$$$$
[H]OC(=O)[C@@]([H])(N([H])C(=O)[C@@]([H])(N([H])C(=O)[C@@]([H])(N([H])C(=O)[C@@]([H])(N([H])C(=O)[C@@]1([H])N(C(=O)[C@@]([H])(N([H])C(=O)OC([H])([H])c2c([H])c([H])c([H])c([H])c2[H])[C@@]([H])(C([H])([H])[H])C([H])([H])C([H])([H])[H])C([H])([H])C([H])([H])C1([H])[H])C([H])([H])C([H])(C([H])([H])[H])C([H])([H])[H])C([H])([H])O[H])C([H])(C([H])([H])[H])C([H])([H])[H])C([H])([H])O[H]


 61 62  0  0  0  0  0  0  0  0999 V2000
   39.2445   16.0567   -9.4294 C   0  0  0  0  0  0  0  0  0  0  0  0
   37.3559   15.1284  -10.8503 C   0  0  0  0  0  0  0  0  0  0  0  0
   37.1795   14.2413   -9.9706 O   0  0  0  0  0  0  0  0  0  0  0  0
   38.3999   16.0620  -10.5965 N   0  0  0  0  0  0  0  0  0  0  0  0
   38.5501   16.7964  -11.3093 H   0  0  0  0  0  0  0  0  0  0  0  0
   38.3395   14.1678  -13.6374 C   0  0  0  0  0  0  0  0  0  0  0  0
   39.2315   14.1532  -12.7113 O   0  0  0  0  0  0  0  0  0  0  0  0
   37.0969   14.6856  -13.2798 N   0  0  0  0  0  0  0  0  0  0  0  0
   35.9047   14.9065  -14.1367 C   0  0  0  0  0  0  0  0  0  0  0  0
   34.9280   14.0520  -13.3658 C   0  0  0  0  0  0  0  0  0  0  0  0
   35.3369   14.1897  -11.9145 C   0  0  0  0  0  0  0  0  0  0  0  0
   36.5351   15.1709  -12.0364 C   0  0  0  0  0  0  0  0  0  0  0  0
   38.7876   13.6323  -14.9333 C   0  0  0  0  0  0  0  0  0  0  0  0
   40.2605   13.6568  -15.0175 N   0  0  0  0  0  0  0  0  0  0  0  0
   40.9503   13.5946  -16.2650 C   0  0  0  0  0  0  0  0  0  0  0  0
   40.2199   13.5140  -17.3034 O   0  0  0  0  0  0  0  0  0  0  0  0
   40.8578   13.7341  -14.1737 H   0  0  0  0  0  0  0  0  0  0  0  0
   42.3102   13.6181  -16.3819 O   0  0  0  0  0  0  0  0  0  0  0  0
   43.0862   12.7177  -15.6207 C   0  0  0  0  0  0  0  0  0  0  0  0
   43.8311   13.4457  -14.5781 C   0  0  0  0  0  0  0  0  0  0  0  0
   44.8016   14.3822  -14.9285 C   0  0  0  0  0  0  0  0  0  0  0  0
   45.5212   15.0889  -14.0028 C   0  0  0  0  0  0  0  0  0  0  0  0
   45.2680   14.8568  -12.6639 C   0  0  0  0  0  0  0  0  0  0  0  0
   44.3091   13.9316  -12.3053 C   0  0  0  0  0  0  0  0  0  0  0  0
   43.5773   13.2132  -13.2439 C   0  0  0  0  0  0  0  0  0  0  0  0
   38.2393   12.3132  -15.3262 C   0  0  0  0  0  0  0  0  0  0  0  0
   37.7014   11.5151  -14.1306 C   0  0  0  0  0  0  0  0  0  0  0  0
   35.9139   11.5925  -16.0298 C   0  0  0  0  0  0  0  0  0  0  0  0
   37.2164   12.2546  -16.3987 C   0  0  0  0  0  0  0  0  0  0  0  0
   38.5613   16.4703   -8.2021 C   0  0  0  0  0  0  0  0  0  0  0  0
   39.1733   16.5142   -7.1102 O   0  0  0  0  0  0  0  0  0  0  0  0
   37.1998   16.8364   -8.1736 N   0  0  0  0  0  0  0  0  0  0  0  0
   36.6519   16.8159   -9.0598 H   0  0  0  0  0  0  0  0  0  0  0  0
   36.5638   17.2332   -6.9542 C   0  0  0  0  0  0  0  0  0  0  0  0
   35.5672   16.2366   -6.5136 C   0  0  0  0  0  0  0  0  0  0  0  0
   35.8894   15.0230   -6.3352 O   0  0  0  0  0  0  0  0  0  0  0  0
   34.2255   16.6065   -6.2763 N   0  0  0  0  0  0  0  0  0  0  0  0
   33.9498   17.5986   -6.4212 H   0  0  0  0  0  0  0  0  0  0  0  0
   33.2290   15.6570   -5.8400 C   0  0  0  0  0  0  0  0  0  0  0  0
   32.1390   15.4573   -6.8139 C   0  0  0  0  0  0  0  0  0  0  0  0
   32.2716   15.8498   -7.9975 O   0  0  0  0  0  0  0  0  0  0  0  0
   30.9346   14.8217   -6.4252 N   0  0  0  0  0  0  0  0  0  0  0  0
   30.8360   14.5026   -5.4413 H   0  0  0  0  0  0  0  0  0  0  0  0
   29.8326   14.6009   -7.3439 C   0  0  0  0  0  0  0  0  0  0  0  0
   28.7866   15.5809   -7.0120 C   0  0  0  0  0  0  0  0  0  0  0  0
   28.3806   15.7376   -5.6971 O   0  0  0  0  0  0  0  0  0  0  0  0
   28.2167   16.3091   -7.8655 O   0  0  0  0  0  0  0  0  0  0  0  0
   27.9675   15.0213   -5.1391 H   0  0  0  0  0  0  0  0  0  0  0  0
   29.2996   13.1834   -7.2257 C   0  0  0  0  0  0  0  0  0  0  0  0
   28.1950   13.1052   -6.3905 O   0  0  0  0  0  0  0  0  0  0  0  0
   28.4971   13.3061   -5.4785 H   0  0  0  0  0  0  0  0  0  0  0  0
   32.6441   16.0665   -4.4850 C   0  0  0  0  0  0  0  0  0  0  0  0
   33.6334   15.6600   -3.4043 C   0  0  0  0  0  0  0  0  0  0  0  0
   32.3527   17.5396   -4.4412 C   0  0  0  0  0  0  0  0  0  0  0  0
   35.9148   18.5819   -7.0327 C   0  0  0  0  0  0  0  0  0  0  0  0
   35.2708   18.7807   -8.2549 O   0  0  0  0  0  0  0  0  0  0  0  0
   35.9164   18.7000   -8.9964 H   0  0  0  0  0  0  0  0  0  0  0  0
   40.5874   16.6743   -9.6263 C   0  0  0  0  0  0  0  0  0  0  0  0
   41.6731   15.8682  -10.1930 C   0  0  0  0  0  0  0  0  0  0  0  0
   43.0216   15.9926   -9.5845 C   0  0  0  0  0  0  0  0  0  0  0  0
   41.7869   16.2638  -11.6746 C   0  0  0  0  0  0  0  0  0  0  0  0
 28 29  1  0  0  0
 29 26  1  0  0  0
 26 27  1  0  0  0
 26 13  1  0  0  0
 13 14  1  0  0  0
 14 15  1  0  0  0
 15 16  2  0  0  0
 15 18  1  0  0  0
 18 19  1  0  0  0
 19 20  1  0  0  0
 20 21  2  0  0  0
 21 22  1  0  0  0
 22 23  2  0  0  0
 23 24  1  0  0  0
 24 25  2  0  0  0
 13  6  1  0  0  0
  6  7  2  0  0  0
  6  8  1  0  0  0
  8  9  1  0  0  0
  9 10  1  0  0  0
 10 11  1  0  0  0
 11 12  1  0  0  0
 12  2  1  0  0  0
  2  3  2  0  0  0
  2  4  1  0  0  0
  4  1  1  0  0  0
  1 58  1  0  0  0
 58 59  1  0  0  0
 59 60  1  0  0  0
 59 61  1  0  0  0
  1 30  1  0  0  0
 30 31  2  0  0  0
 30 32  1  0  0  0
 32 34  1  0  0  0
 34 55  1  0  0  0
 55 56  1  0  0  0
 34 35  1  0  0  0
 35 36  2  0  0  0
 35 37  1  0  0  0
 37 39  1  0  0  0
 39 52  1  0  0  0
 52 53  1  0  0  0
 52 54  1  0  0  0
 39 40  1  0  0  0
 40 41  2  0  0  0
 40 42  1  0  0  0
 42 44  1  0  0  0
 44 49  1  0  0  0
 49 50  1  0  0  0
 44 45  1  0  0  0
 45 46  1  0  0  0
 45 47  2  0  0  0
 25 20  1  0  0  0
 12  8  1  0  0  0
 14 17  1  0  0  0
  4  5  1  0  0  0
 32 33  1  0  0  0
 56 57  1  0  0  0
 37 38  1  0  0  0
 42 43  1  0  0  0
 50 51  1  0  0  0
 46 48  1  0  0  0
M  END
> <minimizedAffinity>
-6.76509

> <CNNscore>
0.1157371178

> <CNNaffinity>
6.6680297852

> <CNN_VS>
0.7717385292

> <CNNaffinity_variance>
0.3372547328

$$$$
[H]OC(=O)[C@@]([H])(N([H])C(=O)[C@@]([H])(N([H])C(=O)[C@@]([H])(N([H])C(=O)[C@@]([H])(N([H])C(=O)[C@@]1([H])N(C(=O)[C@@]([H])(N([H])C(=O)OC([H])([H])c2c([H])c([H])c([H])c([H])c2[H])[C@@]([H])(C([H])([H])[H])C([H])([H])C([H])([H])[H])C([H])([H])C([H])([H])C1([H])[H])C([H])([H])C([H])(C([H])([H])[H])C([H])([H])[H])C([H])([H])O[H])C([H])(C([H])([H])[H])C([H])([H])[H])C([H])([H])O[H]


 61 62  0  0  0  0  0  0  0  0999 V2000
   41.5031   13.2526  -15.8493 C   0  0  0  0  0  0  0  0  0  0  0  0
   43.9757   13.6691  -15.4482 C   0  0  0  0  0  0  0  0  0  0  0  0
   44.0227   14.2455  -16.5696 O   0  0  0  0  0  0  0  0  0  0  0  0
   42.7053   13.1566  -15.0613 N   0  0  0  0  0  0  0  0  0  0  0  0
   42.6546   12.6861  -14.1415 H   0  0  0  0  0  0  0  0  0  0  0  0
   44.2474   14.9989  -12.6526 C   0  0  0  0  0  0  0  0  0  0  0  0
   43.1704   15.2914  -13.2914 O   0  0  0  0  0  0  0  0  0  0  0  0
   45.1646   14.2029  -13.3346 N   0  0  0  0  0  0  0  0  0  0  0  0
   46.5161   13.7681  -12.9004 C   0  0  0  0  0  0  0  0  0  0  0  0
   46.2980   12.2771  -12.9885 C   0  0  0  0  0  0  0  0  0  0  0  0
   45.3509   12.0810  -14.1534 C   0  0  0  0  0  0  0  0  0  0  0  0
   45.1554   13.5478  -14.6261 C   0  0  0  0  0  0  0  0  0  0  0  0
   44.3316   15.5630  -11.2955 C   0  0  0  0  0  0  0  0  0  0  0  0
   45.2038   14.7296  -10.4461 N   0  0  0  0  0  0  0  0  0  0  0  0
   44.7183   13.5752   -9.7623 C   0  0  0  0  0  0  0  0  0  0  0  0
   43.4857   13.3067   -9.9259 O   0  0  0  0  0  0  0  0  0  0  0  0
   46.2112   14.9395  -10.3203 H   0  0  0  0  0  0  0  0  0  0  0  0
   45.4956   12.7790   -8.9714 O   0  0  0  0  0  0  0  0  0  0  0  0
   45.4121   11.3765   -9.1061 C   0  0  0  0  0  0  0  0  0  0  0  0
   46.7200   10.7605   -8.8205 C   0  0  0  0  0  0  0  0  0  0  0  0
   47.1559    9.6587   -9.5538 C   0  0  0  0  0  0  0  0  0  0  0  0
   48.3617    9.0490   -9.3335 C   0  0  0  0  0  0  0  0  0  0  0  0
   49.1763    9.5547   -8.3378 C   0  0  0  0  0  0  0  0  0  0  0  0
   48.7548   10.6455   -7.6053 C   0  0  0  0  0  0  0  0  0  0  0  0
   47.5309   11.2660   -7.8276 C   0  0  0  0  0  0  0  0  0  0  0  0
   44.6850   16.9987  -11.1996 C   0  0  0  0  0  0  0  0  0  0  0  0
   45.1497   17.4019   -9.7935 C   0  0  0  0  0  0  0  0  0  0  0  0
   45.4153   18.9914  -12.5845 C   0  0  0  0  0  0  0  0  0  0  0  0
   45.6553   17.5627  -12.1693 C   0  0  0  0  0  0  0  0  0  0  0  0
   40.4448   14.0455  -15.2208 C   0  0  0  0  0  0  0  0  0  0  0  0
   39.9181   15.0077  -15.8255 O   0  0  0  0  0  0  0  0  0  0  0  0
   39.9632   13.7813  -13.9220 N   0  0  0  0  0  0  0  0  0  0  0  0
   40.3719   12.9889  -13.3825 H   0  0  0  0  0  0  0  0  0  0  0  0
   38.9285   14.5795  -13.3379 C   0  0  0  0  0  0  0  0  0  0  0  0
   39.4630   15.4866  -12.3026 C   0  0  0  0  0  0  0  0  0  0  0  0
   40.2279   16.4509  -12.6085 O   0  0  0  0  0  0  0  0  0  0  0  0
   39.1367   15.3076  -10.9408 N   0  0  0  0  0  0  0  0  0  0  0  0
   38.5118   14.5190  -10.6783 H   0  0  0  0  0  0  0  0  0  0  0  0
   39.6388   16.1804   -9.9058 C   0  0  0  0  0  0  0  0  0  0  0  0
   40.6293   15.5371   -9.0217 C   0  0  0  0  0  0  0  0  0  0  0  0
   41.8049   15.9709   -8.9714 O   0  0  0  0  0  0  0  0  0  0  0  0
   40.2656   14.4262   -8.2221 N   0  0  0  0  0  0  0  0  0  0  0  0
   39.2891   14.0749   -8.2740 H   0  0  0  0  0  0  0  0  0  0  0  0
   41.2012   13.7578   -7.3361 C   0  0  0  0  0  0  0  0  0  0  0  0
   40.6141   12.4548   -6.9866 C   0  0  0  0  0  0  0  0  0  0  0  0
   41.4221   11.3327   -6.9094 O   0  0  0  0  0  0  0  0  0  0  0  0
   39.3909   12.2828   -6.7459 O   0  0  0  0  0  0  0  0  0  0  0  0
   41.9491   10.9566   -7.6684 H   0  0  0  0  0  0  0  0  0  0  0  0
   41.4572   14.5854   -6.0884 C   0  0  0  0  0  0  0  0  0  0  0  0
   42.3642   13.9787   -5.2323 O   0  0  0  0  0  0  0  0  0  0  0  0
   41.9413   13.1668   -4.8780 H   0  0  0  0  0  0  0  0  0  0  0  0
   38.4891   16.7485   -9.0683 C   0  0  0  0  0  0  0  0  0  0  0  0
   38.2265   18.1715   -9.5355 C   0  0  0  0  0  0  0  0  0  0  0  0
   37.2590   15.8939   -9.1825 C   0  0  0  0  0  0  0  0  0  0  0  0
   37.8083   13.7704  -12.7575 C   0  0  0  0  0  0  0  0  0  0  0  0
   37.8967   12.4244  -13.1160 O   0  0  0  0  0  0  0  0  0  0  0  0
   37.8739   12.3319  -14.0979 H   0  0  0  0  0  0  0  0  0  0  0  0
   41.0401   11.9656  -16.4432 C   0  0  0  0  0  0  0  0  0  0  0  0
   39.8314   11.9506  -17.2730 C   0  0  0  0  0  0  0  0  0  0  0  0
   38.6324   11.2544  -16.7420 C   0  0  0  0  0  0  0  0  0  0  0  0
   40.2179   11.2769  -18.6001 C   0  0  0  0  0  0  0  0  0  0  0  0
 28 29  1  0  0  0
 29 26  1  0  0  0
 26 27  1  0  0  0
 26 13  1  0  0  0
 13 14  1  0  0  0
 14 15  1  0  0  0
 15 16  2  0  0  0
 15 18  1  0  0  0
 18 19  1  0  0  0
 19 20  1  0  0  0
 20 21  2  0  0  0
 21 22  1  0  0  0
 22 23  2  0  0  0
 23 24  1  0  0  0
 24 25  2  0  0  0
 13  6  1  0  0  0
  6  7  2  0  0  0
  6  8  1  0  0  0
  8  9  1  0  0  0
  9 10  1  0  0  0
 10 11  1  0  0  0
 11 12  1  0  0  0
 12  2  1  0  0  0
  2  3  2  0  0  0
  2  4  1  0  0  0
  4  1  1  0  0  0
  1 58  1  0  0  0
 58 59  1  0  0  0
 59 60  1  0  0  0
 59 61  1  0  0  0
  1 30  1  0  0  0
 30 31  2  0  0  0
 30 32  1  0  0  0
 32 34  1  0  0  0
 34 55  1  0  0  0
 55 56  1  0  0  0
 34 35  1  0  0  0
 35 36  2  0  0  0
 35 37  1  0  0  0
 37 39  1  0  0  0
 39 52  1  0  0  0
 52 53  1  0  0  0
 52 54  1  0  0  0
 39 40  1  0  0  0
 40 41  2  0  0  0
 40 42  1  0  0  0
 42 44  1  0  0  0
 44 49  1  0  0  0
 49 50  1  0  0  0
 44 45  1  0  0  0
 45 46  1  0  0  0
 45 47  2  0  0  0
 25 20  1  0  0  0
 12  8  1  0  0  0
 14 17  1  0  0  0
  4  5  1  0  0  0
 32 33  1  0  0  0
 56 57  1  0  0  0
 37 38  1  0  0  0
 42 43  1  0  0  0
 50 51  1  0  0  0
 46 48  1  0  0  0
M  END
> <minimizedAffinity>
-7.01277

> <CNNscore>
0.1048703194

> <CNNaffinity>
6.5840988159

> <CNN_VS>
0.6904765368

> <CNNaffinity_variance>
0.3527530432

$$$$
[H]OC(=O)[C@@]([H])(N([H])C(=O)[C@@]([H])(N([H])C(=O)[C@@]([H])(N([H])C(=O)[C@@]([H])(N([H])C(=O)[C@@]1([H])N(C(=O)[C@@]([H])(N([H])C(=O)OC([H])([H])c2c([H])c([H])c([H])c([H])c2[H])[C@@]([H])(C([H])([H])[H])C([H])([H])C([H])([H])[H])C([H])([H])C([H])([H])C1([H])[H])C([H])([H])C([H])(C([H])([H])[H])C([H])([H])[H])C([H])([H])O[H])C([H])(C([H])([H])[H])C([H])([H])[H])C([H])([H])O[H]


 61 62  0  0  0  0  0  0  0  0999 V2000
   44.8672   13.8070  -13.7317 C   0  0  0  0  0  0  0  0  0  0  0  0
   46.9725   12.7898  -12.7414 C   0  0  0  0  0  0  0  0  0  0  0  0
   46.6819   11.7105  -13.3265 O   0  0  0  0  0  0  0  0  0  0  0  0
   46.0645   13.8692  -12.9330 N   0  0  0  0  0  0  0  0  0  0  0  0
   46.2958   14.7602  -12.4613 H   0  0  0  0  0  0  0  0  0  0  0  0
   47.0594   11.9988   -9.7373 C   0  0  0  0  0  0  0  0  0  0  0  0
   45.8968   11.9348  -10.2830 O   0  0  0  0  0  0  0  0  0  0  0  0
   48.0854   12.4884  -10.5422 N   0  0  0  0  0  0  0  0  0  0  0  0
   49.5005   12.7527  -10.1796 C   0  0  0  0  0  0  0  0  0  0  0  0
   50.1529   11.8496  -11.1980 C   0  0  0  0  0  0  0  0  0  0  0  0
   49.2526   11.9044  -12.4141 C   0  0  0  0  0  0  0  0  0  0  0  0
   48.1606   12.8972  -11.9294 C   0  0  0  0  0  0  0  0  0  0  0  0
   47.1099   11.5423   -8.3387 C   0  0  0  0  0  0  0  0  0  0  0  0
   45.7618   11.5721   -7.7397 N   0  0  0  0  0  0  0  0  0  0  0  0
   45.4460   12.4021   -6.6228 C   0  0  0  0  0  0  0  0  0  0  0  0
   46.3975   13.1150   -6.1704 O   0  0  0  0  0  0  0  0  0  0  0  0
   44.9817   11.0009   -8.1137 H   0  0  0  0  0  0  0  0  0  0  0  0
   44.2105   12.4585   -6.0449 O   0  0  0  0  0  0  0  0  0  0  0  0
   44.1028   12.4355   -4.6377 C   0  0  0  0  0  0  0  0  0  0  0  0
   43.6407   11.1111   -4.1858 C   0  0  0  0  0  0  0  0  0  0  0  0
   44.5374   10.2058   -3.6220 C   0  0  0  0  0  0  0  0  0  0  0  0
   44.1630    8.9643   -3.1828 C   0  0  0  0  0  0  0  0  0  0  0  0
   42.8354    8.6008   -3.3083 C   0  0  0  0  0  0  0  0  0  0  0  0
   41.9385    9.4894   -3.8652 C   0  0  0  0  0  0  0  0  0  0  0  0
   42.3167   10.7504   -4.3115 C   0  0  0  0  0  0  0  0  0  0  0  0
   47.7893   10.2489   -8.0920 C   0  0  0  0  0  0  0  0  0  0  0  0
   47.7482    9.3161   -9.3101 C   0  0  0  0  0  0  0  0  0  0  0  0
   49.4498   11.1699   -6.4138 C   0  0  0  0  0  0  0  0  0  0  0  0
   49.1828   10.2587   -7.5839 C   0  0  0  0  0  0  0  0  0  0  0  0
   43.6407   14.0891  -12.9832 C   0  0  0  0  0  0  0  0  0  0  0  0
   43.5596   13.8271  -11.7612 O   0  0  0  0  0  0  0  0  0  0  0  0
   42.4979   14.6608  -13.5797 N   0  0  0  0  0  0  0  0  0  0  0  0
   42.5214   14.8965  -14.5945 H   0  0  0  0  0  0  0  0  0  0  0  0
   41.3146   14.9205  -12.8172 C   0  0  0  0  0  0  0  0  0  0  0  0
   40.0937   14.6656  -13.6078 C   0  0  0  0  0  0  0  0  0  0  0  0
   39.3468   15.6187  -13.9848 O   0  0  0  0  0  0  0  0  0  0  0  0
   39.7227   13.3521  -13.9686 N   0  0  0  0  0  0  0  0  0  0  0  0
   40.3269   12.5627  -13.6632 H   0  0  0  0  0  0  0  0  0  0  0  0
   38.5384   13.0705  -14.7452 C   0  0  0  0  0  0  0  0  0  0  0  0
   37.3588   12.7415  -13.9225 C   0  0  0  0  0  0  0  0  0  0  0  0
   37.3756   11.7394  -13.1688 O   0  0  0  0  0  0  0  0  0  0  0  0
   36.1977   13.5509  -13.9737 N   0  0  0  0  0  0  0  0  0  0  0  0
   36.1954   14.3774  -14.6034 H   0  0  0  0  0  0  0  0  0  0  0  0
   35.0115   13.2714  -13.1852 C   0  0  0  0  0  0  0  0  0  0  0  0
   33.9597   12.8409  -14.1195 C   0  0  0  0  0  0  0  0  0  0  0  0
   33.0092   13.7497  -14.5542 O   0  0  0  0  0  0  0  0  0  0  0  0
   33.8593   11.6682  -14.5649 O   0  0  0  0  0  0  0  0  0  0  0  0
   32.3666   14.2297  -13.9611 H   0  0  0  0  0  0  0  0  0  0  0  0
   34.5715   14.4997  -12.4075 C   0  0  0  0  0  0  0  0  0  0  0  0
   33.2701   14.3882  -11.9410 O   0  0  0  0  0  0  0  0  0  0  0  0
   32.6735   14.3927  -12.7205 H   0  0  0  0  0  0  0  0  0  0  0  0
   38.8009   11.9431  -15.7482 C   0  0  0  0  0  0  0  0  0  0  0  0
   37.5341   11.7351  -16.5629 C   0  0  0  0  0  0  0  0  0  0  0  0
   39.9771   12.2603  -16.6272 C   0  0  0  0  0  0  0  0  0  0  0  0
   41.2608   16.3092  -12.2561 C   0  0  0  0  0  0  0  0  0  0  0  0
   41.8657   16.3886  -11.0008 O   0  0  0  0  0  0  0  0  0  0  0  0
   41.4182   15.7776  -10.3686 H   0  0  0  0  0  0  0  0  0  0  0  0
   44.7798   12.6251  -14.6367 C   0  0  0  0  0  0  0  0  0  0  0  0
   44.9085   12.8175  -16.0846 C   0  0  0  0  0  0  0  0  0  0  0  0
   44.3569   11.7669  -16.9769 C   0  0  0  0  0  0  0  0  0  0  0  0
   46.4124   12.9435  -16.3791 C   0  0  0  0  0  0  0  0  0  0  0  0
 28 29  1  0  0  0
 29 26  1  0  0  0
 26 27  1  0  0  0
 26 13  1  0  0  0
 13 14  1  0  0  0
 14 15  1  0  0  0
 15 16  2  0  0  0
 15 18  1  0  0  0
 18 19  1  0  0  0
 19 20  1  0  0  0
 20 21  2  0  0  0
 21 22  1  0  0  0
 22 23  2  0  0  0
 23 24  1  0  0  0
 24 25  2  0  0  0
 13  6  1  0  0  0
  6  7  2  0  0  0
  6  8  1  0  0  0
  8  9  1  0  0  0
  9 10  1  0  0  0
 10 11  1  0  0  0
 11 12  1  0  0  0
 12  2  1  0  0  0
  2  3  2  0  0  0
  2  4  1  0  0  0
  4  1  1  0  0  0
  1 58  1  0  0  0
 58 59  1  0  0  0
 59 60  1  0  0  0
 59 61  1  0  0  0
  1 30  1  0  0  0
 30 31  2  0  0  0
 30 32  1  0  0  0
 32 34  1  0  0  0
 34 55  1  0  0  0
 55 56  1  0  0  0
 34 35  1  0  0  0
 35 36  2  0  0  0
 35 37  1  0  0  0
 37 39  1  0  0  0
 39 52  1  0  0  0
 52 53  1  0  0  0
 52 54  1  0  0  0
 39 40  1  0  0  0
 40 41  2  0  0  0
 40 42  1  0  0  0
 42 44  1  0  0  0
 44 49  1  0  0  0
 49 50  1  0  0  0
 44 45  1  0  0  0
 45 46  1  0  0  0
 45 47  2  0  0  0
 25 20  1  0  0  0
 12  8  1  0  0  0
 14 17  1  0  0  0
  4  5  1  0  0  0
 32 33  1  0  0  0
 56 57  1  0  0  0
 37 38  1  0  0  0
 42 43  1  0  0  0
 50 51  1  0  0  0
 46 48  1  0  0  0
M  END
> <minimizedAffinity>
-7.38874

> <CNNscore>
0.1028708220

> <CNNaffinity>
6.0823020935

> <CNN_VS>
0.6256914139

> <CNNaffinity_variance>
0.2997947633

$$$$
[H]c1nc(N2C([H])([H])C([H])([H])c3nc(-c4c([H])c([H])c([H])c([H])c4[H])nc(N([H])c4nc([H])c(C(F)(F)F)c([H])c4[H])c3C([H])([H])C2([H])[H])c(C(F)(F)F)c([H])c1[H]


 39 43  0  0  0  0  0  0  0  0999 V2000
   40.2738   15.8327  -12.2932 C   0  0  0  0  0  0  0  0  0  0  0  0
   41.2250   16.0472  -11.3522 N   0  0  0  0  0  0  0  0  0  0  0  0
   42.4368   15.4925  -11.4103 C   0  0  0  0  0  0  0  0  0  0  0  0
   42.7219   14.6719  -12.4925 N   0  0  0  0  0  0  0  0  0  0  0  0
   41.8384   14.4132  -13.4598 C   0  0  0  0  0  0  0  0  0  0  0  0
   42.4428   13.5810  -14.5516 C   0  0  0  0  0  0  0  0  0  0  0  0
   41.5026   12.5198  -15.0924 C   0  0  0  0  0  0  0  0  0  0  0  0
   40.3110   13.0926  -15.5921 N   0  0  0  0  0  0  0  0  0  0  0  0
   39.9961   14.5489  -15.6368 C   0  0  0  0  0  0  0  0  0  0  0  0
   39.4696   14.9260  -14.2530 C   0  0  0  0  0  0  0  0  0  0  0  0
   40.6389   14.9781  -13.3594 C   0  0  0  0  0  0  0  0  0  0  0  0
   39.2106   12.3773  -16.0920 C   0  0  0  0  0  0  0  0  0  0  0  0
   38.0960   12.2378  -15.2889 N   0  0  0  0  0  0  0  0  0  0  0  0
   36.9776   11.6478  -15.6570 C   0  0  0  0  0  0  0  0  0  0  0  0
   36.8759   11.1217  -16.9153 C   0  0  0  0  0  0  0  0  0  0  0  0
   37.9280   11.2114  -17.7897 C   0  0  0  0  0  0  0  0  0  0  0  0
   39.1102   11.8578  -17.3477 C   0  0  0  0  0  0  0  0  0  0  0  0
   40.2719   11.9199  -18.2816 C   0  0  0  0  0  0  0  0  0  0  0  0
   40.4337   13.2683  -18.6879 F   0  0  0  0  0  0  0  0  0  0  0  0
   41.4363   11.4767  -17.8003 F   0  0  0  0  0  0  0  0  0  0  0  0
   39.8928   11.3318  -19.5193 F   0  0  0  0  0  0  0  0  0  0  0  0
   43.3933   15.3412  -10.3240 C   0  0  0  0  0  0  0  0  0  0  0  0
   44.0859   14.1876  -10.1079 C   0  0  0  0  0  0  0  0  0  0  0  0
   44.7522   13.9331   -8.9200 C   0  0  0  0  0  0  0  0  0  0  0  0
   44.7111   14.8815   -7.9264 C   0  0  0  0  0  0  0  0  0  0  0  0
   44.0251   16.0523   -8.1164 C   0  0  0  0  0  0  0  0  0  0  0  0
   43.3717   16.2794   -9.3111 C   0  0  0  0  0  0  0  0  0  0  0  0
   38.9474   16.1985  -12.1822 N   0  0  0  0  0  0  0  0  0  0  0  0
   38.6844   17.2213  -12.2155 H   0  0  0  0  0  0  0  0  0  0  0  0
   35.5397   13.9319  -12.7553 C   0  0  0  0  0  0  0  0  0  0  0  0
   36.7080   13.2292  -12.4255 C   0  0  0  0  0  0  0  0  0  0  0  0
   37.8320   13.9603  -12.0623 C   0  0  0  0  0  0  0  0  0  0  0  0
   37.8352   15.3135  -12.0181 C   0  0  0  0  0  0  0  0  0  0  0  0
   36.6278   15.9479  -12.3428 N   0  0  0  0  0  0  0  0  0  0  0  0
   35.5432   15.3007  -12.6939 C   0  0  0  0  0  0  0  0  0  0  0  0
   34.3270   13.4866  -14.6910 F   0  0  0  0  0  0  0  0  0  0  0  0
   34.3523   13.2268  -13.3144 C   0  0  0  0  0  0  0  0  0  0  0  0
   33.1681   13.5423  -12.7345 F   0  0  0  0  0  0  0  0  0  0  0  0
   34.6138   11.8543  -13.1910 F   0  0  0  0  0  0  0  0  0  0  0  0
 36 37  1  0  0  0
 37 38  1  0  0  0
 37 39  1  0  0  0
 37 30  1  0  0  0
 30 31  2  0  0  0
 31 32  1  0  0  0
 32 33  2  0  0  0
 33 28  1  0  0  0
 28  1  1  0  0  0
  1  2  2  0  0  0
  2  3  1  0  0  0
  3  4  2  0  0  0
  4  5  1  0  0  0
  5  6  1  0  0  0
  6  7  1  0  0  0
  7  8  1  0  0  0
  8  9  1  0  0  0
  9 10  1  0  0  0
 10 11  1  0  0  0
  8 12  1  0  0  0
 12 13  2  0  0  0
 13 14  1  0  0  0
 14 15  2  0  0  0
 15 16  1  0  0  0
 16 17  2  0  0  0
 17 18  1  0  0  0
 18 19  1  0  0  0
 18 20  1  0  0  0
 18 21  1  0  0  0
  3 22  1  0  0  0
 22 23  2  0  0  0
 23 24  1  0  0  0
 24 25  2  0  0  0
 25 26  1  0  0  0
 26 27  2  0  0  0
 33 34  1  0  0  0
 34 35  2  0  0  0
 35 30  1  0  0  0
 11  1  1  0  0  0
 17 12  1  0  0  0
 27 22  1  0  0  0
 11  5  2  0  0  0
 28 29  1  0  0  0
M  END
> <minimizedAffinity>
-8.80178

> <CNNscore>
0.0576226376

> <CNNaffinity>
6.7533059120

> <CNN_VS>
0.3891432881

> <CNNaffinity_variance>
0.1837433875

$$$$
[H]c1nc(N2C([H])([H])C([H])([H])c3nc(-c4c([H])c([H])c([H])c([H])c4[H])nc(N([H])c4nc([H])c(C(F)(F)F)c([H])c4[H])c3C([H])([H])C2([H])[H])c(C(F)(F)F)c([H])c1[H]


 39 43  0  0  0  0  0  0  0  0999 V2000
   40.3155   13.8569  -13.9534 C   0  0  0  0  0  0  0  0  0  0  0  0
   39.5973   13.1470  -14.8570 N   0  0  0  0  0  0  0  0  0  0  0  0
   40.1607   12.4906  -15.8726 C   0  0  0  0  0  0  0  0  0  0  0  0
   41.5428   12.5391  -15.9874 N   0  0  0  0  0  0  0  0  0  0  0  0
   42.3185   13.2157  -15.1369 C   0  0  0  0  0  0  0  0  0  0  0  0
   43.7743   13.0148  -15.4377 C   0  0  0  0  0  0  0  0  0  0  0  0
   44.6024   14.2768  -15.2826 C   0  0  0  0  0  0  0  0  0  0  0  0
   44.4979   14.8050  -13.9758 N   0  0  0  0  0  0  0  0  0  0  0  0
   43.7175   14.2086  -12.8545 C   0  0  0  0  0  0  0  0  0  0  0  0
   42.2704   14.6630  -13.0377 C   0  0  0  0  0  0  0  0  0  0  0  0
   41.7169   13.8642  -14.1441 C   0  0  0  0  0  0  0  0  0  0  0  0
   45.0820   16.0028  -13.5322 C   0  0  0  0  0  0  0  0  0  0  0  0
   44.3177   17.1527  -13.5463 N   0  0  0  0  0  0  0  0  0  0  0  0
   44.7208   18.3247  -13.1006 C   0  0  0  0  0  0  0  0  0  0  0  0
   45.9800   18.4514  -12.5821 C   0  0  0  0  0  0  0  0  0  0  0  0
   46.8157   17.3664  -12.5216 C   0  0  0  0  0  0  0  0  0  0  0  0
   46.3354   16.1255  -13.0120 C   0  0  0  0  0  0  0  0  0  0  0  0
   47.2567   14.9525  -12.9869 C   0  0  0  0  0  0  0  0  0  0  0  0
   48.4992   15.3846  -12.4589 F   0  0  0  0  0  0  0  0  0  0  0  0
   46.8405   13.8941  -12.2867 F   0  0  0  0  0  0  0  0  0  0  0  0
   47.6458   14.6507  -14.3207 F   0  0  0  0  0  0  0  0  0  0  0  0
   39.5131   12.0137  -17.0854 C   0  0  0  0  0  0  0  0  0  0  0  0
   38.3019   11.3890  -17.0767 C   0  0  0  0  0  0  0  0  0  0  0  0
   37.8295   10.6702  -18.1629 C   0  0  0  0  0  0  0  0  0  0  0  0
   38.6137   10.5874  -19.2883 C   0  0  0  0  0  0  0  0  0  0  0  0
   39.8348   11.2078  -19.3271 C   0  0  0  0  0  0  0  0  0  0  0  0
   40.2792   11.9185  -18.2302 C   0  0  0  0  0  0  0  0  0  0  0  0
   39.7852   14.7231  -13.0186 N   0  0  0  0  0  0  0  0  0  0  0  0
   40.4324   15.3253  -12.4399 H   0  0  0  0  0  0  0  0  0  0  0  0
   35.6636   14.4417  -12.9098 C   0  0  0  0  0  0  0  0  0  0  0  0
   36.3365   14.2139  -11.7004 C   0  0  0  0  0  0  0  0  0  0  0  0
   37.7027   14.4609  -11.6539 C   0  0  0  0  0  0  0  0  0  0  0  0
   38.3968   14.9085  -12.7267 C   0  0  0  0  0  0  0  0  0  0  0  0
   37.6561   15.1310  -13.8962 N   0  0  0  0  0  0  0  0  0  0  0  0
   36.3674   14.9096  -13.9884 C   0  0  0  0  0  0  0  0  0  0  0  0
   33.8797   14.3493  -14.4013 F   0  0  0  0  0  0  0  0  0  0  0  0
   34.2392   14.0407  -13.0827 C   0  0  0  0  0  0  0  0  0  0  0  0
   33.3732   14.5919  -12.1970 F   0  0  0  0  0  0  0  0  0  0  0  0
   34.2099   12.6409  -12.9981 F   0  0  0  0  0  0  0  0  0  0  0  0
 36 37  1  0  0  0
 37 38  1  0  0  0
 37 39  1  0  0  0
 37 30  1  0  0  0
 30 31  2  0  0  0
 31 32  1  0  0  0
 32 33  2  0  0  0
 33 28  1  0  0  0
 28  1  1  0  0  0
  1  2  2  0  0  0
  2  3  1  0  0  0
  3  4  2  0  0  0
  4  5  1  0  0  0
  5  6  1  0  0  0
  6  7  1  0  0  0
  7  8  1  0  0  0
  8  9  1  0  0  0
  9 10  1  0  0  0
 10 11  1  0  0  0
  8 12  1  0  0  0
 12 13  2  0  0  0
 13 14  1  0  0  0
 14 15  2  0  0  0
 15 16  1  0  0  0
 16 17  2  0  0  0
 17 18  1  0  0  0
 18 19  1  0  0  0
 18 20  1  0  0  0
 18 21  1  0  0  0
  3 22  1  0  0  0
 22 23  2  0  0  0
 23 24  1  0  0  0
 24 25  2  0  0  0
 25 26  1  0  0  0
 26 27  2  0  0  0
 33 34  1  0  0  0
 34 35  2  0  0  0
 35 30  1  0  0  0
 11  1  1  0  0  0
 17 12  1  0  0  0
 27 22  1  0  0  0
 11  5  2  0  0  0
 28 29  1  0  0  0
M  END
> <minimizedAffinity>
-9.62895

> <CNNscore>
0.0492893681

> <CNNaffinity>
6.8731141090

> <CNN_VS>
0.3387714624

> <CNNaffinity_variance>
0.0829929933

$$$$
[H]c1nc(N2C([H])([H])C([H])([H])c3nc(-c4c([H])c([H])c([H])c([H])c4[H])nc(N([H])c4nc([H])c(C(F)(F)F)c([H])c4[H])c3C([H])([H])C2([H])[H])c(C(F)(F)F)c([H])c1[H]


 39 43  0  0  0  0  0  0  0  0999 V2000
   38.7110   14.0979  -13.6759 C   0  0  0  0  0  0  0  0  0  0  0  0
   37.9607   13.5089  -14.6385 N   0  0  0  0  0  0  0  0  0  0  0  0
   36.6298   13.5938  -14.6702 C   0  0  0  0  0  0  0  0  0  0  0  0
   36.0042   14.3290  -13.6733 N   0  0  0  0  0  0  0  0  0  0  0  0
   36.6740   14.9389  -12.6922 C   0  0  0  0  0  0  0  0  0  0  0  0
   35.7595   15.7410  -11.8146 C   0  0  0  0  0  0  0  0  0  0  0  0
   36.1091   15.6556  -10.3406 C   0  0  0  0  0  0  0  0  0  0  0  0
   37.4328   16.0879  -10.0984 N   0  0  0  0  0  0  0  0  0  0  0  0
   38.3821   16.6055  -11.1246 C   0  0  0  0  0  0  0  0  0  0  0  0
   39.0169   15.3850  -11.7892 C   0  0  0  0  0  0  0  0  0  0  0  0
   37.9985   14.8217  -12.6915 C   0  0  0  0  0  0  0  0  0  0  0  0
   38.0835   16.0619   -8.8541 C   0  0  0  0  0  0  0  0  0  0  0  0
   38.6680   14.8809   -8.4412 N   0  0  0  0  0  0  0  0  0  0  0  0
   39.3604   14.7371   -7.3302 C   0  0  0  0  0  0  0  0  0  0  0  0
   39.5322   15.8101   -6.4997 C   0  0  0  0  0  0  0  0  0  0  0  0
   38.9923   17.0282   -6.8226 C   0  0  0  0  0  0  0  0  0  0  0  0
   38.2569   17.1335   -8.0305 C   0  0  0  0  0  0  0  0  0  0  0  0
   37.6322   18.4465   -8.3642 C   0  0  0  0  0  0  0  0  0  0  0  0
   37.7396   19.2830   -7.2248 F   0  0  0  0  0  0  0  0  0  0  0  0
   38.1452   19.0902   -9.4159 F   0  0  0  0  0  0  0  0  0  0  0  0
   36.2213   18.2789   -8.4165 F   0  0  0  0  0  0  0  0  0  0  0  0
   35.7061   12.7386  -15.4004 C   0  0  0  0  0  0  0  0  0  0  0  0
   34.4642   12.4278  -14.9331 C   0  0  0  0  0  0  0  0  0  0  0  0
   33.7120   11.3893  -15.4578 C   0  0  0  0  0  0  0  0  0  0  0  0
   34.2410   10.6486  -16.4874 C   0  0  0  0  0  0  0  0  0  0  0  0
   35.4861   10.9399  -16.9798 C   0  0  0  0  0  0  0  0  0  0  0  0
   36.2123   11.9816  -16.4383 C   0  0  0  0  0  0  0  0  0  0  0  0
   40.0566   13.8727  -13.4662 N   0  0  0  0  0  0  0  0  0  0  0  0
   40.4169   13.7498  -12.4806 H   0  0  0  0  0  0  0  0  0  0  0  0
   43.3944   12.8637  -15.6842 C   0  0  0  0  0  0  0  0  0  0  0  0
   42.1505   12.6453  -16.2945 C   0  0  0  0  0  0  0  0  0  0  0  0
   41.0137   13.1227  -15.6547 C   0  0  0  0  0  0  0  0  0  0  0  0
   41.0681   13.7835  -14.4742 C   0  0  0  0  0  0  0  0  0  0  0  0
   42.3458   13.9812  -13.9320 N   0  0  0  0  0  0  0  0  0  0  0  0
   43.4458   13.5467  -14.4974 C   0  0  0  0  0  0  0  0  0  0  0  0
   45.5453   12.1446  -15.1627 F   0  0  0  0  0  0  0  0  0  0  0  0
   44.6340   12.2372  -16.2230 C   0  0  0  0  0  0  0  0  0  0  0  0
   45.1844   12.8702  -17.2881 F   0  0  0  0  0  0  0  0  0  0  0  0
   44.2977   10.9158  -16.5520 F   0  0  0  0  0  0  0  0  0  0  0  0
 36 37  1  0  0  0
 37 38  1  0  0  0
 37 39  1  0  0  0
 37 30  1  0  0  0
 30 31  2  0  0  0
 31 32  1  0  0  0
 32 33  2  0  0  0
 33 28  1  0  0  0
 28  1  1  0  0  0
  1  2  2  0  0  0
  2  3  1  0  0  0
  3  4  2  0  0  0
  4  5  1  0  0  0
  5  6  1  0  0  0
  6  7  1  0  0  0
  7  8  1  0  0  0
  8  9  1  0  0  0
  9 10  1  0  0  0
 10 11  1  0  0  0
  8 12  1  0  0  0
 12 13  2  0  0  0
 13 14  1  0  0  0
 14 15  2  0  0  0
 15 16  1  0  0  0
 16 17  2  0  0  0
 17 18  1  0  0  0
 18 19  1  0  0  0
 18 20  1  0  0  0
 18 21  1  0  0  0
  3 22  1  0  0  0
 22 23  2  0  0  0
 23 24  1  0  0  0
 24 25  2  0  0  0
 25 26  1  0  0  0
 26 27  2  0  0  0
 33 34  1  0  0  0
 34 35  2  0  0  0
 35 30  1  0  0  0
 11  1  1  0  0  0
 17 12  1  0  0  0
 27 22  1  0  0  0
 11  5  2  0  0  0
 28 29  1  0  0  0
M  END
> <minimizedAffinity>
-10.23241

> <CNNscore>
0.0315063335

> <CNNaffinity>
6.3878083229

> <CNN_VS>
0.2012564242

> <CNNaffinity_variance>
0.3311910033

$$$$
[H]c1nc(N2C([H])([H])C([H])([H])c3nc(-c4c([H])c([H])c([H])c([H])c4[H])nc(N([H])c4nc([H])c(C(F)(F)F)c([H])c4[H])c3C([H])([H])C2([H])[H])c(C(F)(F)F)c([H])c1[H]


 39 43  0  0  0  0  0  0  0  0999 V2000
   40.0004   14.5290  -14.1925 C   0  0  0  0  0  0  0  0  0  0  0  0
   38.6529   14.6460  -14.2759 N   0  0  0  0  0  0  0  0  0  0  0  0
   37.9213   15.2541  -13.3407 C   0  0  0  0  0  0  0  0  0  0  0  0
   38.5857   15.7929  -12.2480 N   0  0  0  0  0  0  0  0  0  0  0  0
   39.9101   15.7191  -12.0950 C   0  0  0  0  0  0  0  0  0  0  0  0
   40.3685   16.4694  -10.8797 C   0  0  0  0  0  0  0  0  0  0  0  0
   41.4698   15.7611  -10.1129 C   0  0  0  0  0  0  0  0  0  0  0  0
   42.5990   15.5271  -10.9301 N   0  0  0  0  0  0  0  0  0  0  0  0
   42.7449   15.9414  -12.3546 C   0  0  0  0  0  0  0  0  0  0  0  0
   42.0492   14.8721  -13.1953 C   0  0  0  0  0  0  0  0  0  0  0  0
   40.6016   15.0965  -13.0449 C   0  0  0  0  0  0  0  0  0  0  0  0
   43.7542   14.8285  -10.5428 C   0  0  0  0  0  0  0  0  0  0  0  0
   43.7918   13.4614  -10.7332 N   0  0  0  0  0  0  0  0  0  0  0  0
   44.8331   12.6980  -10.4732 C   0  0  0  0  0  0  0  0  0  0  0  0
   45.9752   13.2629   -9.9763 C   0  0  0  0  0  0  0  0  0  0  0  0
   46.0387   14.6142   -9.7544 C   0  0  0  0  0  0  0  0  0  0  0  0
   44.8924   15.3942  -10.0518 C   0  0  0  0  0  0  0  0  0  0  0  0
   44.9432   16.8587   -9.7718 C   0  0  0  0  0  0  0  0  0  0  0  0
   46.1399   17.1257   -9.0604 F   0  0  0  0  0  0  0  0  0  0  0  0
   44.8921   17.6621  -10.8374 F   0  0  0  0  0  0  0  0  0  0  0  0
   43.9845   17.1635   -8.7671 F   0  0  0  0  0  0  0  0  0  0  0  0
   36.4875   15.1336  -13.1223 C   0  0  0  0  0  0  0  0  0  0  0  0
   35.8591   15.6758  -12.0414 C   0  0  0  0  0  0  0  0  0  0  0  0
   34.5750   15.3120  -11.6694 C   0  0  0  0  0  0  0  0  0  0  0  0
   33.9144   14.3701  -12.4209 C   0  0  0  0  0  0  0  0  0  0  0  0
   34.5200   13.8097  -13.5149 C   0  0  0  0  0  0  0  0  0  0  0  0
   35.7998   14.1927  -13.8628 C   0  0  0  0  0  0  0  0  0  0  0  0
   40.7824   13.7351  -15.0071 N   0  0  0  0  0  0  0  0  0  0  0  0
   41.8227   13.9109  -15.0627 H   0  0  0  0  0  0  0  0  0  0  0  0
   38.5319   11.1918  -17.3620 C   0  0  0  0  0  0  0  0  0  0  0  0
   39.6894   11.7243  -17.9487 C   0  0  0  0  0  0  0  0  0  0  0  0
   40.5595   12.4473  -17.1425 C   0  0  0  0  0  0  0  0  0  0  0  0
   40.3276   12.6524  -15.8245 C   0  0  0  0  0  0  0  0  0  0  0  0
   39.1609   12.0759  -15.3026 N   0  0  0  0  0  0  0  0  0  0  0  0
   38.3094   11.3887  -16.0244 C   0  0  0  0  0  0  0  0  0  0  0  0
   36.3393   11.3719  -18.1209 F   0  0  0  0  0  0  0  0  0  0  0  0
   37.4741   10.5532  -18.1943 C   0  0  0  0  0  0  0  0  0  0  0  0
   37.1760    9.2722  -17.8652 F   0  0  0  0  0  0  0  0  0  0  0  0
   37.9154   10.6331  -19.5233 F   0  0  0  0  0  0  0  0  0  0  0  0
 36 37  1  0  0  0
 37 38  1  0  0  0
 37 39  1  0  0  0
 37 30  1  0  0  0
 30 31  2  0  0  0
 31 32  1  0  0  0
 32 33  2  0  0  0
 33 28  1  0  0  0
 28  1  1  0  0  0
  1  2  2  0  0  0
  2  3  1  0  0  0
  3  4  2  0  0  0
  4  5  1  0  0  0
  5  6  1  0  0  0
  6  7  1  0  0  0
  7  8  1  0  0  0
  8  9  1  0  0  0
  9 10  1  0  0  0
 10 11  1  0  0  0
  8 12  1  0  0  0
 12 13  2  0  0  0
 13 14  1  0  0  0
 14 15  2  0  0  0
 15 16  1  0  0  0
 16 17  2  0  0  0
 17 18  1  0  0  0
 18 19  1  0  0  0
 18 20  1  0  0  0
 18 21  1  0  0  0
  3 22  1  0  0  0
 22 23  2  0  0  0
 23 24  1  0  0  0
 24 25  2  0  0  0
 25 26  1  0  0  0
 26 27  2  0  0  0
 33 34  1  0  0  0
 34 35  2  0  0  0
 35 30  1  0  0  0
 11  1  1  0  0  0
 17 12  1  0  0  0
 27 22  1  0  0  0
 11  5  2  0  0  0
 28 29  1  0  0  0
M  END
> <minimizedAffinity>
-9.13575

> <CNNscore>
0.0312380791

> <CNNaffinity>
6.5397958755

> <CNN_VS>
0.2042906582

> <CNNaffinity_variance>
0.1295628846

$$$$
[H]c1nc(N2C([H])([H])C([H])([H])c3nc(-c4c([H])c([H])c([H])c([H])c4[H])nc(N([H])c4nc([H])c(C(F)(F)F)c([H])c4[H])c3C([H])([H])C2([H])[H])c(C(F)(F)F)c([H])c1[H]


 39 43  0  0  0  0  0  0  0  0999 V2000
   37.5074   16.4955  -10.8877 C   0  0  0  0  0  0  0  0  0  0  0  0
   37.0100   16.0140  -12.0526 N   0  0  0  0  0  0  0  0  0  0  0  0
   35.8932   15.2872  -12.1157 C   0  0  0  0  0  0  0  0  0  0  0  0
   35.2194   15.0315  -10.9298 N   0  0  0  0  0  0  0  0  0  0  0  0
   35.6455   15.4720   -9.7434 C   0  0  0  0  0  0  0  0  0  0  0  0
   34.6760   15.1366   -8.6490 C   0  0  0  0  0  0  0  0  0  0  0  0
   35.3480   14.7065   -7.3583 C   0  0  0  0  0  0  0  0  0  0  0  0
   36.2213   15.7064   -6.8733 N   0  0  0  0  0  0  0  0  0  0  0  0
   36.4511   17.0404   -7.4977 C   0  0  0  0  0  0  0  0  0  0  0  0
   37.4794   16.8328   -8.6084 C   0  0  0  0  0  0  0  0  0  0  0  0
   36.7678   16.1847   -9.7229 C   0  0  0  0  0  0  0  0  0  0  0  0
   37.0466   15.5889   -5.7431 C   0  0  0  0  0  0  0  0  0  0  0  0
   36.9012   16.5082   -4.7231 N   0  0  0  0  0  0  0  0  0  0  0  0
   37.5648   16.4754   -3.5859 C   0  0  0  0  0  0  0  0  0  0  0  0
   38.4726   15.4768   -3.3642 C   0  0  0  0  0  0  0  0  0  0  0  0
   38.6876   14.5136   -4.3157 C   0  0  0  0  0  0  0  0  0  0  0  0
   37.9473   14.5904   -5.5227 C   0  0  0  0  0  0  0  0  0  0  0  0
   38.2094   13.5686   -6.5776 C   0  0  0  0  0  0  0  0  0  0  0  0
   39.4000   12.8809   -6.2328 F   0  0  0  0  0  0  0  0  0  0  0  0
   37.2411   12.6708   -6.7786 F   0  0  0  0  0  0  0  0  0  0  0  0
   38.6401   14.2333   -7.7582 F   0  0  0  0  0  0  0  0  0  0  0  0
   35.4595   14.4248  -13.2048 C   0  0  0  0  0  0  0  0  0  0  0  0
   34.2890   13.7276  -13.1706 C   0  0  0  0  0  0  0  0  0  0  0  0
   34.0192   12.6866  -14.0442 C   0  0  0  0  0  0  0  0  0  0  0  0
   34.9690   12.3485  -14.9780 C   0  0  0  0  0  0  0  0  0  0  0  0
   36.1541   13.0337  -15.0380 C   0  0  0  0  0  0  0  0  0  0  0  0
   36.3949   14.0677  -14.1556 C   0  0  0  0  0  0  0  0  0  0  0  0
   38.7556   17.0633  -10.7293 N   0  0  0  0  0  0  0  0  0  0  0  0
   38.8344   18.0755  -10.4369 H   0  0  0  0  0  0  0  0  0  0  0  0
   42.6913   16.1874  -11.6359 C   0  0  0  0  0  0  0  0  0  0  0  0
   42.2970   15.9818  -10.3056 C   0  0  0  0  0  0  0  0  0  0  0  0
   40.9484   16.1036   -9.9955 C   0  0  0  0  0  0  0  0  0  0  0  0
   40.0142   16.4116  -10.9257 C   0  0  0  0  0  0  0  0  0  0  0  0
   40.4781   16.5852  -12.2373 N   0  0  0  0  0  0  0  0  0  0  0  0
   41.7401   16.4834  -12.5767 C   0  0  0  0  0  0  0  0  0  0  0  0
   44.5704   14.9173  -12.1568 F   0  0  0  0  0  0  0  0  0  0  0  0
   44.1325   16.2400  -12.0096 C   0  0  0  0  0  0  0  0  0  0  0  0
   44.9264   16.9262  -11.1510 F   0  0  0  0  0  0  0  0  0  0  0  0
   44.1873   16.8039  -13.2928 F   0  0  0  0  0  0  0  0  0  0  0  0
 36 37  1  0  0  0
 37 38  1  0  0  0
 37 39  1  0  0  0
 37 30  1  0  0  0
 30 31  2  0  0  0
 31 32  1  0  0  0
 32 33  2  0  0  0
 33 28  1  0  0  0
 28  1  1  0  0  0
  1  2  2  0  0  0
  2  3  1  0  0  0
  3  4  2  0  0  0
  4  5  1  0  0  0
  5  6  1  0  0  0
  6  7  1  0  0  0
  7  8  1  0  0  0
  8  9  1  0  0  0
  9 10  1  0  0  0
 10 11  1  0  0  0
  8 12  1  0  0  0
 12 13  2  0  0  0
 13 14  1  0  0  0
 14 15  2  0  0  0
 15 16  1  0  0  0
 16 17  2  0  0  0
 17 18  1  0  0  0
 18 19  1  0  0  0
 18 20  1  0  0  0
 18 21  1  0  0  0
  3 22  1  0  0  0
 22 23  2  0  0  0
 23 24  1  0  0  0
 24 25  2  0  0  0
 25 26  1  0  0  0
 26 27  2  0  0  0
 33 34  1  0  0  0
 34 35  2  0  0  0
 35 30  1  0  0  0
 11  1  1  0  0  0
 17 12  1  0  0  0
 27 22  1  0  0  0
 11  5  2  0  0  0
 28 29  1  0  0  0
M  END
> <minimizedAffinity>
-8.69574

> <CNNscore>
0.0304771960

> <CNNaffinity>
6.1452951431

> <CNN_VS>
0.1872913688

> <CNNaffinity_variance>
0.2251443863

$$$$
[H]c1nc(N2C([H])([H])C([H])([H])c3nc(-c4c([H])c([H])c([H])c([H])c4[H])nc(N([H])c4nc([H])c(C(F)(F)F)c([H])c4[H])c3C([H])([H])C2([H])[H])c(C(F)(F)F)c([H])c1[H]


 39 43  0  0  0  0  0  0  0  0999 V2000
   44.3645   14.0671  -13.0627 C   0  0  0  0  0  0  0  0  0  0  0  0
   43.6541   13.5562  -14.0975 N   0  0  0  0  0  0  0  0  0  0  0  0
   42.3638   13.8317  -14.2938 C   0  0  0  0  0  0  0  0  0  0  0  0
   41.7409   14.6878  -13.3967 N   0  0  0  0  0  0  0  0  0  0  0  0
   42.3732   15.2316  -12.3539 C   0  0  0  0  0  0  0  0  0  0  0  0
   41.4906   16.1911  -11.6119 C   0  0  0  0  0  0  0  0  0  0  0  0
   41.6471   16.1130  -10.1046 C   0  0  0  0  0  0  0  0  0  0  0  0
   42.9823   16.3580   -9.7111 N   0  0  0  0  0  0  0  0  0  0  0  0
   44.1124   16.6926  -10.6238 C   0  0  0  0  0  0  0  0  0  0  0  0
   44.6330   15.3683  -11.1800 C   0  0  0  0  0  0  0  0  0  0  0  0
   43.6561   14.9240  -12.1884 C   0  0  0  0  0  0  0  0  0  0  0  0
   43.4702   16.2862   -8.3961 C   0  0  0  0  0  0  0  0  0  0  0  0
   44.0297   17.4189   -7.8387 N   0  0  0  0  0  0  0  0  0  0  0  0
   44.4663   17.5054   -6.5991 C   0  0  0  0  0  0  0  0  0  0  0  0
   44.3784   16.4164   -5.7763 C   0  0  0  0  0  0  0  0  0  0  0  0
   43.8357   15.2443   -6.2357 C   0  0  0  0  0  0  0  0  0  0  0  0
   43.3776   15.2012   -7.5770 C   0  0  0  0  0  0  0  0  0  0  0  0
   42.8254   13.9151   -8.0932 C   0  0  0  0  0  0  0  0  0  0  0  0
   43.1398   12.8981   -7.1569 F   0  0  0  0  0  0  0  0  0  0  0  0
   41.5100   13.8913   -8.3232 F   0  0  0  0  0  0  0  0  0  0  0  0
   43.6163   13.4900   -9.1956 F   0  0  0  0  0  0  0  0  0  0  0  0
   41.4161   13.0917  -15.1138 C   0  0  0  0  0  0  0  0  0  0  0  0
   41.7119   12.6583  -16.3715 C   0  0  0  0  0  0  0  0  0  0  0  0
   40.7363   12.2343  -17.2593 C   0  0  0  0  0  0  0  0  0  0  0  0
   39.4239   12.2524  -16.8523 C   0  0  0  0  0  0  0  0  0  0  0  0
   39.0967   12.6802  -15.5924 C   0  0  0  0  0  0  0  0  0  0  0  0
   40.0902   13.0956  -14.7286 C   0  0  0  0  0  0  0  0  0  0  0  0
   45.6274   13.6576  -12.6850 N   0  0  0  0  0  0  0  0  0  0  0  0
   46.4499   14.3051  -12.8285 H   0  0  0  0  0  0  0  0  0  0  0  0
   47.1541   10.6715  -10.2702 C   0  0  0  0  0  0  0  0  0  0  0  0
   45.7565   10.7417  -10.3673 C   0  0  0  0  0  0  0  0  0  0  0  0
   45.2072   11.6189  -11.2939 C   0  0  0  0  0  0  0  0  0  0  0  0
   45.9694   12.3994  -12.0958 C   0  0  0  0  0  0  0  0  0  0  0  0
   47.3578   12.2631  -11.9564 N   0  0  0  0  0  0  0  0  0  0  0  0
   47.9213   11.4517  -11.0948 C   0  0  0  0  0  0  0  0  0  0  0  0
   48.9745   10.5706   -8.8241 F   0  0  0  0  0  0  0  0  0  0  0  0
   47.8094    9.8832   -9.1892 C   0  0  0  0  0  0  0  0  0  0  0  0
   48.0797    8.5915   -9.4998 F   0  0  0  0  0  0  0  0  0  0  0  0
   46.9595    9.9572   -8.0758 F   0  0  0  0  0  0  0  0  0  0  0  0
 36 37  1  0  0  0
 37 38  1  0  0  0
 37 39  1  0  0  0
 37 30  1  0  0  0
 30 31  2  0  0  0
 31 32  1  0  0  0
 32 33  2  0  0  0
 33 28  1  0  0  0
 28  1  1  0  0  0
  1  2  2  0  0  0
  2  3  1  0  0  0
  3  4  2  0  0  0
  4  5  1  0  0  0
  5  6  1  0  0  0
  6  7  1  0  0  0
  7  8  1  0  0  0
  8  9  1  0  0  0
  9 10  1  0  0  0
 10 11  1  0  0  0
  8 12  1  0  0  0
 12 13  2  0  0  0
 13 14  1  0  0  0
 14 15  2  0  0  0
 15 16  1  0  0  0
 16 17  2  0  0  0
 17 18  1  0  0  0
 18 19  1  0  0  0
 18 20  1  0  0  0
 18 21  1  0  0  0
  3 22  1  0  0  0
 22 23  2  0  0  0
 23 24  1  0  0  0
 24 25  2  0  0  0
 25 26  1  0  0  0
 26 27  2  0  0  0
 33 34  1  0  0  0
 34 35  2  0  0  0
 35 30  1  0  0  0
 11  1  1  0  0  0
 17 12  1  0  0  0
 27 22  1  0  0  0
 11  5  2  0  0  0
 28 29  1  0  0  0
M  END
> <minimizedAffinity>
-7.37275

> <CNNscore>
0.0271627400

> <CNNaffinity>
5.9978113174

> <CNN_VS>
0.1629169881

> <CNNaffinity_variance>
0.0916431993

$$$$
[H]c1nc(N2C([H])([H])C([H])([H])c3nc(-c4c([H])c([H])c([H])c([H])c4[H])nc(N([H])c4nc([H])c(C(F)(F)F)c([H])c4[H])c3C([H])([H])C2([H])[H])c(C(F)(F)F)c([H])c1[H]


 39 43  0  0  0  0  0  0  0  0999 V2000
   33.6747   14.8321  -12.3184 C   0  0  0  0  0  0  0  0  0  0  0  0
   33.5694   13.9928  -13.3771 N   0  0  0  0  0  0  0  0  0  0  0  0
   34.5609   13.1878  -13.7623 C   0  0  0  0  0  0  0  0  0  0  0  0
   35.7394   13.2164  -13.0303 N   0  0  0  0  0  0  0  0  0  0  0  0
   35.9192   14.0145  -11.9750 C   0  0  0  0  0  0  0  0  0  0  0  0
   37.2437   13.7681  -11.3154 C   0  0  0  0  0  0  0  0  0  0  0  0
   37.9317   15.0380  -10.8501 C   0  0  0  0  0  0  0  0  0  0  0  0
   37.1231   15.7605   -9.9437 N   0  0  0  0  0  0  0  0  0  0  0  0
   35.7788   15.3440   -9.4521 C   0  0  0  0  0  0  0  0  0  0  0  0
   34.7715   15.7667  -10.5202 C   0  0  0  0  0  0  0  0  0  0  0  0
   34.9099   14.8083  -11.6297 C   0  0  0  0  0  0  0  0  0  0  0  0
   37.4389   17.0114   -9.3888 C   0  0  0  0  0  0  0  0  0  0  0  0
   37.3309   18.1324  -10.1878 N   0  0  0  0  0  0  0  0  0  0  0  0
   37.5353   19.3669   -9.7767 C   0  0  0  0  0  0  0  0  0  0  0  0
   37.8829   19.5942   -8.4737 C   0  0  0  0  0  0  0  0  0  0  0  0
   38.0134   18.5461   -7.5996 C   0  0  0  0  0  0  0  0  0  0  0  0
   37.7809   17.2357   -8.0890 C   0  0  0  0  0  0  0  0  0  0  0  0
   37.9634   16.0896   -7.1516 C   0  0  0  0  0  0  0  0  0  0  0  0
   36.6878   15.7300   -6.6485 F   0  0  0  0  0  0  0  0  0  0  0  0
   38.5433   15.0002   -7.6622 F   0  0  0  0  0  0  0  0  0  0  0  0
   38.5735   16.5688   -5.9601 F   0  0  0  0  0  0  0  0  0  0  0  0
   34.7168   12.5313  -15.0517 C   0  0  0  0  0  0  0  0  0  0  0  0
   33.7803   11.6848  -15.5652 C   0  0  0  0  0  0  0  0  0  0  0  0
   34.0508   10.8320  -16.6231 C   0  0  0  0  0  0  0  0  0  0  0  0
   35.3105   10.8439  -17.1722 C   0  0  0  0  0  0  0  0  0  0  0  0
   36.2717   11.6865  -16.6787 C   0  0  0  0  0  0  0  0  0  0  0  0
   35.9732   12.5265  -15.6246 C   0  0  0  0  0  0  0  0  0  0  0  0
   32.7770   15.8320  -12.0027 N   0  0  0  0  0  0  0  0  0  0  0  0
   32.8262   16.7563  -12.5122 H   0  0  0  0  0  0  0  0  0  0  0  0
   30.2193   14.6268   -8.9887 C   0  0  0  0  0  0  0  0  0  0  0  0
   30.9778   15.7799   -8.7392 C   0  0  0  0  0  0  0  0  0  0  0  0
   31.7228   16.3131   -9.7834 C   0  0  0  0  0  0  0  0  0  0  0  0
   31.7402   15.7605  -11.0193 C   0  0  0  0  0  0  0  0  0  0  0  0
   30.9444   14.6205  -11.2006 N   0  0  0  0  0  0  0  0  0  0  0  0
   30.2276   14.0803  -10.2452 C   0  0  0  0  0  0  0  0  0  0  0  0
   30.5249   13.4775   -6.9884 F   0  0  0  0  0  0  0  0  0  0  0  0
   29.5329   13.9052   -7.8807 C   0  0  0  0  0  0  0  0  0  0  0  0
   28.7430   12.8730   -8.2666 F   0  0  0  0  0  0  0  0  0  0  0  0
   28.7856   14.8676   -7.1859 F   0  0  0  0  0  0  0  0  0  0  0  0
 36 37  1  0  0  0
 37 38  1  0  0  0
 37 39  1  0  0  0
 37 30  1  0  0  0
 30 31  2  0  0  0
 31 32  1  0  0  0
 32 33  2  0  0  0
 33 28  1  0  0  0
 28  1  1  0  0  0
  1  2  2  0  0  0
  2  3  1  0  0  0
  3  4  2  0  0  0
  4  5  1  0  0  0
  5  6  1  0  0  0
  6  7  1  0  0  0
  7  8  1  0  0  0
  8  9  1  0  0  0
  9 10  1  0  0  0
 10 11  1  0  0  0
  8 12  1  0  0  0
 12 13  2  0  0  0
 13 14  1  0  0  0
 14 15  2  0  0  0
 15 16  1  0  0  0
 16 17  2  0  0  0
 17 18  1  0  0  0
 18 19  1  0  0  0
 18 20  1  0  0  0
 18 21  1  0  0  0
  3 22  1  0  0  0
 22 23  2  0  0  0
 23 24  1  0  0  0
 24 25  2  0  0  0
 25 26  1  0  0  0
 26 27  2  0  0  0
 33 34  1  0  0  0
 34 35  2  0  0  0
 35 30  1  0  0  0
 11  1  1  0  0  0
 17 12  1  0  0  0
 27 22  1  0  0  0
 11  5  2  0  0  0
 28 29  1  0  0  0
M  END
> <minimizedAffinity>
-8.77871

> <CNNscore>
0.0257219616

> <CNNaffinity>
6.2192502022

> <CNN_VS>
0.1599713117

> <CNNaffinity_variance>
0.7189418674

$$$$
[H]c1nc(N2C([H])([H])C([H])([H])c3nc(-c4c([H])c([H])c([H])c([H])c4[H])nc(N([H])c4nc([H])c(C(F)(F)F)c([H])c4[H])c3C([H])([H])C2([H])[H])c(C(F)(F)F)c([H])c1[H]


 39 43  0  0  0  0  0  0  0  0999 V2000
   39.8175   15.9104  -10.5944 C   0  0  0  0  0  0  0  0  0  0  0  0
   40.9753   16.0638  -11.2816 N   0  0  0  0  0  0  0  0  0  0  0  0
   42.1748   15.9812  -10.7036 C   0  0  0  0  0  0  0  0  0  0  0  0
   42.2205   15.7163   -9.3422 N   0  0  0  0  0  0  0  0  0  0  0  0
   41.1244   15.5519   -8.5976 C   0  0  0  0  0  0  0  0  0  0  0  0
   41.4668   15.1792   -7.1855 C   0  0  0  0  0  0  0  0  0  0  0  0
   40.5823   15.8521   -6.1523 C   0  0  0  0  0  0  0  0  0  0  0  0
   39.2185   15.5469   -6.3634 N   0  0  0  0  0  0  0  0  0  0  0  0
   38.6801   14.6525   -7.4275 C   0  0  0  0  0  0  0  0  0  0  0  0
   38.5768   15.4956   -8.6975 C   0  0  0  0  0  0  0  0  0  0  0  0
   39.9484   15.6514   -9.2101 C   0  0  0  0  0  0  0  0  0  0  0  0
   38.1431   16.0706   -5.6273 C   0  0  0  0  0  0  0  0  0  0  0  0
   37.3341   15.1952   -4.9302 N   0  0  0  0  0  0  0  0  0  0  0  0
   36.3344   15.5576   -4.1531 C   0  0  0  0  0  0  0  0  0  0  0  0
   36.0449   16.8858   -4.0031 C   0  0  0  0  0  0  0  0  0  0  0  0
   36.7921   17.8343   -4.6523 C   0  0  0  0  0  0  0  0  0  0  0  0
   37.8594   17.3947   -5.4760 C   0  0  0  0  0  0  0  0  0  0  0  0
   38.6478   18.4215   -6.2173 C   0  0  0  0  0  0  0  0  0  0  0  0
   37.9920   19.6690   -6.0652 F   0  0  0  0  0  0  0  0  0  0  0  0
   39.9234   18.5622   -5.8471 F   0  0  0  0  0  0  0  0  0  0  0  0
   38.4666   18.2148   -7.6123 F   0  0  0  0  0  0  0  0  0  0  0  0
   43.4424   16.4731  -11.2226 C   0  0  0  0  0  0  0  0  0  0  0  0
   44.4923   16.7966  -10.4163 C   0  0  0  0  0  0  0  0  0  0  0  0
   45.5705   17.5423  -10.8649 C   0  0  0  0  0  0  0  0  0  0  0  0
   45.5776   17.9685  -12.1713 C   0  0  0  0  0  0  0  0  0  0  0  0
   44.5371   17.6558  -13.0061 C   0  0  0  0  0  0  0  0  0  0  0  0
   43.4765   16.9100  -12.5320 C   0  0  0  0  0  0  0  0  0  0  0  0
   38.5580   16.1933  -11.0835 N   0  0  0  0  0  0  0  0  0  0  0  0
   38.0439   17.0482  -10.7357 H   0  0  0  0  0  0  0  0  0  0  0  0
   37.3961   13.3915  -13.8904 C   0  0  0  0  0  0  0  0  0  0  0  0
   36.6246   13.4599  -12.7210 C   0  0  0  0  0  0  0  0  0  0  0  0
   36.8767   14.4948  -11.8292 C   0  0  0  0  0  0  0  0  0  0  0  0
   37.8327   15.4275  -12.0503 C   0  0  0  0  0  0  0  0  0  0  0  0
   38.5521   15.3070  -13.2477 N   0  0  0  0  0  0  0  0  0  0  0  0
   38.3519   14.3468  -14.1174 C   0  0  0  0  0  0  0  0  0  0  0  0
   37.7211   12.6491  -16.0718 F   0  0  0  0  0  0  0  0  0  0  0  0
   37.2988   12.2207  -14.8064 C   0  0  0  0  0  0  0  0  0  0  0  0
   36.0764   11.6375  -14.8694 F   0  0  0  0  0  0  0  0  0  0  0  0
   38.2649   11.3000  -14.3745 F   0  0  0  0  0  0  0  0  0  0  0  0
 36 37  1  0  0  0
 37 38  1  0  0  0
 37 39  1  0  0  0
 37 30  1  0  0  0
 30 31  2  0  0  0
 31 32  1  0  0  0
 32 33  2  0  0  0
 33 28  1  0  0  0
 28  1  1  0  0  0
  1  2  2  0  0  0
  2  3  1  0  0  0
  3  4  2  0  0  0
  4  5  1  0  0  0
  5  6  1  0  0  0
  6  7  1  0  0  0
  7  8  1  0  0  0
  8  9  1  0  0  0
  9 10  1  0  0  0
 10 11  1  0  0  0
  8 12  1  0  0  0
 12 13  2  0  0  0
 13 14  1  0  0  0
 14 15  2  0  0  0
 15 16  1  0  0  0
 16 17  2  0  0  0
 17 18  1  0  0  0
 18 19  1  0  0  0
 18 20  1  0  0  0
 18 21  1  0  0  0
  3 22  1  0  0  0
 22 23  2  0  0  0
 23 24  1  0  0  0
 24 25  2  0  0  0
 25 26  1  0  0  0
 26 27  2  0  0  0
 33 34  1  0  0  0
 34 35  2  0  0  0
 35 30  1  0  0  0
 11  1  1  0  0  0
 17 12  1  0  0  0
 27 22  1  0  0  0
 11  5  2  0  0  0
 28 29  1  0  0  0
M  END
> <minimizedAffinity>
-7.66989

> <CNNscore>
0.0242622681

> <CNNaffinity>
5.8803186417

> <CNN_VS>
0.1426698714

> <CNNaffinity_variance>
0.1645052284

$$$$
[H]c1nc(N2C([H])([H])C([H])([H])c3nc(-c4c([H])c([H])c([H])c([H])c4[H])nc(N([H])c4nc([H])c(C(F)(F)F)c([H])c4[H])c3C([H])([H])C2([H])[H])c(C(F)(F)F)c([H])c1[H]


 39 43  0  0  0  0  0  0  0  0999 V2000
   35.1077   15.9752  -10.2655 C   0  0  0  0  0  0  0  0  0  0  0  0
   33.7769   15.8718  -10.4992 N   0  0  0  0  0  0  0  0  0  0  0  0
   32.8600   16.0548   -9.5478 C   0  0  0  0  0  0  0  0  0  0  0  0
   33.3050   16.3740   -8.2727 N   0  0  0  0  0  0  0  0  0  0  0  0
   34.5987   16.4947   -7.9645 C   0  0  0  0  0  0  0  0  0  0  0  0
   34.7889   16.9429   -6.5457 C   0  0  0  0  0  0  0  0  0  0  0  0
   35.9449   16.2536   -5.8449 C   0  0  0  0  0  0  0  0  0  0  0  0
   37.1623   16.4605   -6.5325 N   0  0  0  0  0  0  0  0  0  0  0  0
   37.3378   17.2764   -7.7678 C   0  0  0  0  0  0  0  0  0  0  0  0
   36.9508   16.3803   -8.9432 C   0  0  0  0  0  0  0  0  0  0  0  0
   35.4807   16.2951   -8.9393 C   0  0  0  0  0  0  0  0  0  0  0  0
   38.4005   15.8962   -6.1847 C   0  0  0  0  0  0  0  0  0  0  0  0
   39.4177   16.7382   -5.7812 N   0  0  0  0  0  0  0  0  0  0  0  0
   40.6026   16.3366   -5.3695 C   0  0  0  0  0  0  0  0  0  0  0  0
   40.8833   14.9987   -5.3273 C   0  0  0  0  0  0  0  0  0  0  0  0
   39.9376   14.0812   -5.7057 C   0  0  0  0  0  0  0  0  0  0  0  0
   38.6762   14.5626   -6.1394 C   0  0  0  0  0  0  0  0  0  0  0  0
   37.6594   13.5692   -6.5921 C   0  0  0  0  0  0  0  0  0  0  0  0
   38.3212   12.3340   -6.8062 F   0  0  0  0  0  0  0  0  0  0  0  0
   36.6304   13.3644   -5.7658 F   0  0  0  0  0  0  0  0  0  0  0  0
   37.2805   13.8818   -7.9264 F   0  0  0  0  0  0  0  0  0  0  0  0
   31.4690   15.6274   -9.5661 C   0  0  0  0  0  0  0  0  0  0  0  0
   30.7806   15.3118   -8.4331 C   0  0  0  0  0  0  0  0  0  0  0  0
   29.5795   14.6217   -8.4621 C   0  0  0  0  0  0  0  0  0  0  0  0
   29.0669   14.2443   -9.6799 C   0  0  0  0  0  0  0  0  0  0  0  0
   29.7354   14.5504  -10.8362 C   0  0  0  0  0  0  0  0  0  0  0  0
   30.9297   15.2404  -10.7768 C   0  0  0  0  0  0  0  0  0  0  0  0
   36.1022   15.5920  -11.1428 N   0  0  0  0  0  0  0  0  0  0  0  0
   37.0910   15.9314  -10.9902 H   0  0  0  0  0  0  0  0  0  0  0  0
   36.7152   12.9714  -14.2790 C   0  0  0  0  0  0  0  0  0  0  0  0
   35.7662   12.5862  -13.3207 C   0  0  0  0  0  0  0  0  0  0  0  0
   35.4092   13.5078  -12.3445 C   0  0  0  0  0  0  0  0  0  0  0  0
   35.9429   14.7508  -12.2893 C   0  0  0  0  0  0  0  0  0  0  0  0
   36.8712   15.0726  -13.2896 N   0  0  0  0  0  0  0  0  0  0  0  0
   37.2408   14.2358  -14.2284 C   0  0  0  0  0  0  0  0  0  0  0  0
   37.8999   12.7159  -16.2656 F   0  0  0  0  0  0  0  0  0  0  0  0
   37.2695   11.9860  -15.2492 C   0  0  0  0  0  0  0  0  0  0  0  0
   36.3690   11.1110  -15.7607 F   0  0  0  0  0  0  0  0  0  0  0  0
   38.2954   11.3049  -14.5776 F   0  0  0  0  0  0  0  0  0  0  0  0
 36 37  1  0  0  0
 37 38  1  0  0  0
 37 39  1  0  0  0
 37 30  1  0  0  0
 30 31  2  0  0  0
 31 32  1  0  0  0
 32 33  2  0  0  0
 33 28  1  0  0  0
 28  1  1  0  0  0
  1  2  2  0  0  0
  2  3  1  0  0  0
  3  4  2  0  0  0
  4  5  1  0  0  0
  5  6  1  0  0  0
  6  7  1  0  0  0
  7  8  1  0  0  0
  8  9  1  0  0  0
  9 10  1  0  0  0
 10 11  1  0  0  0
  8 12  1  0  0  0
 12 13  2  0  0  0
 13 14  1  0  0  0
 14 15  2  0  0  0
 15 16  1  0  0  0
 16 17  2  0  0  0
 17 18  1  0  0  0
 18 19  1  0  0  0
 18 20  1  0  0  0
 18 21  1  0  0  0
  3 22  1  0  0  0
 22 23  2  0  0  0
 23 24  1  0  0  0
 24 25  2  0  0  0
 25 26  1  0  0  0
 26 27  2  0  0  0
 33 34  1  0  0  0
 34 35  2  0  0  0
 35 30  1  0  0  0
 11  1  1  0  0  0
 17 12  1  0  0  0
 27 22  1  0  0  0
 11  5  2  0  0  0
 28 29  1  0  0  0
M  END
> <minimizedAffinity>
-8.42552

> <CNNscore>
0.0240018740

> <CNNaffinity>
6.3103609085

> <CNN_VS>
0.1514604837

> <CNNaffinity_variance>
0.1405441314

$$$$
[H]c1nc(N2C([H])([H])[C@@]3([H])N(C([H])([H])[H])C([H])([H])[C@]2([H])C3([H])[H])c([H])nc1-c1sc(Cl)c([H])c1[H]


 20 23  0  0  0  0  0  0  0  0999 V2000
   43.5795   14.2038  -14.1887 C   0  0  0  0  0  0  0  0  0  0  0  0
   43.6716   13.4378  -15.3335 C   0  0  0  0  0  0  0  0  0  0  0  0
   42.5685   12.8807  -15.9002 N   0  0  0  0  0  0  0  0  0  0  0  0
   41.3512   13.0520  -15.3722 C   0  0  0  0  0  0  0  0  0  0  0  0
   41.2546   13.8134  -14.2331 C   0  0  0  0  0  0  0  0  0  0  0  0
   42.3502   14.3671  -13.6698 N   0  0  0  0  0  0  0  0  0  0  0  0
   48.4285   16.5054  -14.0573 C   0  0  0  0  0  0  0  0  0  0  0  0
   47.1642   15.8466  -14.0352 N   0  0  0  0  0  0  0  0  0  0  0  0
   46.0372   16.7455  -14.2084 C   0  0  0  0  0  0  0  0  0  0  0  0
   45.0182   16.1469  -13.2607 C   0  0  0  0  0  0  0  0  0  0  0  0
   45.9767   15.9369  -12.0699 C   0  0  0  0  0  0  0  0  0  0  0  0
   46.9229   15.0342  -12.8841 C   0  0  0  0  0  0  0  0  0  0  0  0
   45.9264   13.9655  -13.2681 C   0  0  0  0  0  0  0  0  0  0  0  0
   44.7460   14.7788  -13.6104 N   0  0  0  0  0  0  0  0  0  0  0  0
   40.1502   12.4467  -15.9873 C   0  0  0  0  0  0  0  0  0  0  0  0
   38.8977   12.3217  -15.4737 C   0  0  0  0  0  0  0  0  0  0  0  0
   37.9718   11.7283  -16.2368 C   0  0  0  0  0  0  0  0  0  0  0  0
   38.3624   11.2942  -17.4761 C   0  0  0  0  0  0  0  0  0  0  0  0
   37.4104   10.4821  -18.7215 Cl  0  0  0  0  0  0  0  0  0  0  0  0
   40.0089   11.7307  -17.5303 S   0  0  0  0  0  0  0  0  0  0  0  0
  7  8  1  0  0  0
  8  9  1  0  0  0
  9 10  1  0  0  0
 10 11  1  0  0  0
 11 12  1  0  0  0
 12 13  1  0  0  0
 13 14  1  0  0  0
 14  1  1  0  0  0
  1  2  2  0  0  0
  2  3  1  0  0  0
  3  4  2  0  0  0
  4  5  1  0  0  0
  5  6  2  0  0  0
  4 15  1  0  0  0
 15 16  2  0  0  0
 16 17  1  0  0  0
 17 18  2  0  0  0
 18 19  1  0  0  0
 18 20  1  0  0  0
 12  8  1  0  0  0
  6  1  1  0  0  0
 20 15  1  0  0  0
 14 10  1  0  0  0
M  END
> <minimizedAffinity>
-5.87666

> <CNNscore>
0.5196282864

> <CNNaffinity>
5.4561491013

> <CNN_VS>
2.8351693153

> <CNNaffinity_variance>
0.0734884813

$$$$
[H]c1nc(N2C([H])([H])[C@@]3([H])N(C([H])([H])[H])C([H])([H])[C@]2([H])C3([H])[H])c([H])nc1-c1sc(Cl)c([H])c1[H]


 20 23  0  0  0  0  0  0  0  0999 V2000
   42.8808   13.8381  -14.6223 C   0  0  0  0  0  0  0  0  0  0  0  0
   42.9053   13.0798  -15.7757 C   0  0  0  0  0  0  0  0  0  0  0  0
   41.7696   12.5314  -16.2836 N   0  0  0  0  0  0  0  0  0  0  0  0
   40.5846   12.7041  -15.6872 C   0  0  0  0  0  0  0  0  0  0  0  0
   40.5553   13.4579  -14.5393 C   0  0  0  0  0  0  0  0  0  0  0  0
   41.6832   14.0029  -14.0343 N   0  0  0  0  0  0  0  0  0  0  0  0
   47.3254   14.1520  -11.6265 C   0  0  0  0  0  0  0  0  0  0  0  0
   46.1294   14.1424  -12.4027 N   0  0  0  0  0  0  0  0  0  0  0  0
   46.2585   13.4291  -13.6607 C   0  0  0  0  0  0  0  0  0  0  0  0
   45.4301   14.2924  -14.5899 C   0  0  0  0  0  0  0  0  0  0  0  0
   45.9964   15.6520  -14.1300 C   0  0  0  0  0  0  0  0  0  0  0  0
   45.5670   15.4296  -12.6674 C   0  0  0  0  0  0  0  0  0  0  0  0
   44.0849   15.2519  -12.9009 C   0  0  0  0  0  0  0  0  0  0  0  0
   44.0805   14.4040  -14.1062 N   0  0  0  0  0  0  0  0  0  0  0  0
   39.3483   12.1083  -16.2384 C   0  0  0  0  0  0  0  0  0  0  0  0
   39.1964   11.3110  -17.3290 C   0  0  0  0  0  0  0  0  0  0  0  0
   37.9589   10.8957  -17.6250 C   0  0  0  0  0  0  0  0  0  0  0  0
   36.9435   11.3087  -16.8031 C   0  0  0  0  0  0  0  0  0  0  0  0
   35.2174   10.9520  -16.9018 Cl  0  0  0  0  0  0  0  0  0  0  0  0
   37.7547   12.2623  -15.6468 S   0  0  0  0  0  0  0  0  0  0  0  0
  7  8  1  0  0  0
  8  9  1  0  0  0
  9 10  1  0  0  0
 10 11  1  0  0  0
 11 12  1  0  0  0
 12 13  1  0  0  0
 13 14  1  0  0  0
 14  1  1  0  0  0
  1  2  2  0  0  0
  2  3  1  0  0  0
  3  4  2  0  0  0
  4  5  1  0  0  0
  5  6  2  0  0  0
  4 15  1  0  0  0
 15 16  2  0  0  0
 16 17  1  0  0  0
 17 18  2  0  0  0
 18 19  1  0  0  0
 18 20  1  0  0  0
 12  8  1  0  0  0
  6  1  1  0  0  0
 20 15  1  0  0  0
 14 10  1  0  0  0
M  END
> <minimizedAffinity>
-6.22144

> <CNNscore>
0.5177996159

> <CNNaffinity>
5.7948145866

> <CNN_VS>
3.0005526543

> <CNNaffinity_variance>
0.0950511917

$$$$
[H]c1nc(N2C([H])([H])[C@@]3([H])N(C([H])([H])[H])C([H])([H])[C@]2([H])C3([H])[H])c([H])nc1-c1sc(Cl)c([H])c1[H]


 20 23  0  0  0  0  0  0  0  0999 V2000
   41.8469   13.2347  -15.0428 C   0  0  0  0  0  0  0  0  0  0  0  0
   41.5932   12.4840  -16.1732 C   0  0  0  0  0  0  0  0  0  0  0  0
   40.3292   12.1022  -16.4975 N   0  0  0  0  0  0  0  0  0  0  0  0
   39.2821   12.4380  -15.7354 C   0  0  0  0  0  0  0  0  0  0  0  0
   39.5297   13.1849  -14.6095 C   0  0  0  0  0  0  0  0  0  0  0  0
   40.7852   13.5644  -14.2870 N   0  0  0  0  0  0  0  0  0  0  0  0
   46.0036   16.5574  -14.3291 C   0  0  0  0  0  0  0  0  0  0  0  0
   44.9478   15.6264  -14.5559 N   0  0  0  0  0  0  0  0  0  0  0  0
   44.0393   15.4923  -13.4312 C   0  0  0  0  0  0  0  0  0  0  0  0
   43.7398   14.0075  -13.4534 C   0  0  0  0  0  0  0  0  0  0  0  0
   45.1942   13.5302  -13.6471 C   0  0  0  0  0  0  0  0  0  0  0  0
   45.3662   14.3202  -14.9584 C   0  0  0  0  0  0  0  0  0  0  0  0
   44.2380   13.6898  -15.7411 C   0  0  0  0  0  0  0  0  0  0  0  0
   43.1772   13.6248  -14.7202 N   0  0  0  0  0  0  0  0  0  0  0  0
   37.9066   12.0235  -16.0866 C   0  0  0  0  0  0  0  0  0  0  0  0
   37.4713   11.3476  -17.1829 C   0  0  0  0  0  0  0  0  0  0  0  0
   36.1610   11.0891  -17.2712 C   0  0  0  0  0  0  0  0  0  0  0  0
   35.3632   11.5275  -16.2474 C   0  0  0  0  0  0  0  0  0  0  0  0
   33.6173   11.3590  -16.0471 Cl  0  0  0  0  0  0  0  0  0  0  0  0
   36.4726   12.2851  -15.1987 S   0  0  0  0  0  0  0  0  0  0  0  0
  7  8  1  0  0  0
  8  9  1  0  0  0
  9 10  1  0  0  0
 10 11  1  0  0  0
 11 12  1  0  0  0
 12 13  1  0  0  0
 13 14  1  0  0  0
 14  1  1  0  0  0
  1  2  2  0  0  0
  2  3  1  0  0  0
  3  4  2  0  0  0
  4  5  1  0  0  0
  5  6  2  0  0  0
  4 15  1  0  0  0
 15 16  2  0  0  0
 16 17  1  0  0  0
 17 18  2  0  0  0
 18 19  1  0  0  0
 18 20  1  0  0  0
 12  8  1  0  0  0
  6  1  1  0  0  0
 20 15  1  0  0  0
 14 10  1  0  0  0
M  END
> <minimizedAffinity>
-6.75203

> <CNNscore>
0.5125347376

> <CNNaffinity>
6.0360016823

> <CNN_VS>
3.0936605930

> <CNNaffinity_variance>
0.0633975714

$$$$
[H]c1nc(N2C([H])([H])[C@@]3([H])N(C([H])([H])[H])C([H])([H])[C@]2([H])C3([H])[H])c([H])nc1-c1sc(Cl)c([H])c1[H]


 20 23  0  0  0  0  0  0  0  0999 V2000
   42.9286   13.8037  -14.6651 C   0  0  0  0  0  0  0  0  0  0  0  0
   42.8694   13.0732  -15.8349 C   0  0  0  0  0  0  0  0  0  0  0  0
   41.6946   12.5601  -16.2877 N   0  0  0  0  0  0  0  0  0  0  0  0
   40.5503   12.7422  -15.6188 C   0  0  0  0  0  0  0  0  0  0  0  0
   40.6042   13.4685  -14.4542 C   0  0  0  0  0  0  0  0  0  0  0  0
   41.7711   13.9784  -14.0041 N   0  0  0  0  0  0  0  0  0  0  0  0
   47.0578   17.2242  -14.3860 C   0  0  0  0  0  0  0  0  0  0  0  0
   46.0125   16.2573  -14.4593 N   0  0  0  0  0  0  0  0  0  0  0  0
   44.8481   16.5983  -13.6617 C   0  0  0  0  0  0  0  0  0  0  0  0
   44.4347   15.2428  -13.1264 C   0  0  0  0  0  0  0  0  0  0  0  0
   45.8448   14.7702  -12.7154 C   0  0  0  0  0  0  0  0  0  0  0  0
   46.4009   14.9182  -14.1443 C   0  0  0  0  0  0  0  0  0  0  0  0
   45.4482   13.9789  -14.8464 C   0  0  0  0  0  0  0  0  0  0  0  0
   44.1682   14.3328  -14.2076 N   0  0  0  0  0  0  0  0  0  0  0  0
   39.2715   12.1848  -16.1098 C   0  0  0  0  0  0  0  0  0  0  0  0
   39.0407   11.4082  -17.2015 C   0  0  0  0  0  0  0  0  0  0  0  0
   37.7790   11.0274  -17.4352 C   0  0  0  0  0  0  0  0  0  0  0  0
   36.8204   11.4521  -16.5533 C   0  0  0  0  0  0  0  0  0  0  0  0
   35.0831   11.1386  -16.5624 Cl  0  0  0  0  0  0  0  0  0  0  0  0
   37.7167   12.3681  -15.4298 S   0  0  0  0  0  0  0  0  0  0  0  0
  7  8  1  0  0  0
  8  9  1  0  0  0
  9 10  1  0  0  0
 10 11  1  0  0  0
 11 12  1  0  0  0
 12 13  1  0  0  0
 13 14  1  0  0  0
 14  1  1  0  0  0
  1  2  2  0  0  0
  2  3  1  0  0  0
  3  4  2  0  0  0
  4  5  1  0  0  0
  5  6  2  0  0  0
  4 15  1  0  0  0
 15 16  2  0  0  0
 16 17  1  0  0  0
 17 18  2  0  0  0
 18 19  1  0  0  0
 18 20  1  0  0  0
 12  8  1  0  0  0
  6  1  1  0  0  0
 20 15  1  0  0  0
 14 10  1  0  0  0
M  END
> <minimizedAffinity>
-6.37917

> <CNNscore>
0.4813095927

> <CNNaffinity>
5.7788057327

> <CNN_VS>
2.7813947201

> <CNNaffinity_variance>
0.0854562894

$$$$
[H]c1nc(N2C([H])([H])[C@@]3([H])N(C([H])([H])[H])C([H])([H])[C@]2([H])C3([H])[H])c([H])nc1-c1sc(Cl)c([H])c1[H]


 20 23  0  0  0  0  0  0  0  0999 V2000
   41.8993   13.2667  -15.0816 C   0  0  0  0  0  0  0  0  0  0  0  0
   40.8175   13.6146  -14.2976 C   0  0  0  0  0  0  0  0  0  0  0  0
   39.5559   13.2273  -14.6243 N   0  0  0  0  0  0  0  0  0  0  0  0
   39.3122   12.4946  -15.7168 C   0  0  0  0  0  0  0  0  0  0  0  0
   40.3855   12.1460  -16.5000 C   0  0  0  0  0  0  0  0  0  0  0  0
   41.6390   12.5305  -16.1759 N   0  0  0  0  0  0  0  0  0  0  0  0
   47.0178   12.7439  -13.5467 C   0  0  0  0  0  0  0  0  0  0  0  0
   45.6512   12.9406  -13.9027 N   0  0  0  0  0  0  0  0  0  0  0  0
   45.3970   12.8119  -15.3265 C   0  0  0  0  0  0  0  0  0  0  0  0
   44.3660   13.8982  -15.5539 C   0  0  0  0  0  0  0  0  0  0  0  0
   45.0803   15.0010  -14.7450 C   0  0  0  0  0  0  0  0  0  0  0  0
   45.0762   14.1681  -13.4491 C   0  0  0  0  0  0  0  0  0  0  0  0
   43.5840   13.9664  -13.3253 C   0  0  0  0  0  0  0  0  0  0  0  0
   43.2126   13.6818  -14.7228 N   0  0  0  0  0  0  0  0  0  0  0  0
   37.9405   12.0724  -16.0737 C   0  0  0  0  0  0  0  0  0  0  0  0
   37.5203   11.3505  -17.1462 C   0  0  0  0  0  0  0  0  0  0  0  0
   36.2101   11.0954  -17.2462 C   0  0  0  0  0  0  0  0  0  0  0  0
   35.3972   11.5838  -16.2575 C   0  0  0  0  0  0  0  0  0  0  0  0
   33.6470   11.4341  -16.0810 Cl  0  0  0  0  0  0  0  0  0  0  0  0
   36.4928   12.3815  -15.2241 S   0  0  0  0  0  0  0  0  0  0  0  0
  7  8  1  0  0  0
  8  9  1  0  0  0
  9 10  1  0  0  0
 10 11  1  0  0  0
 11 12  1  0  0  0
 12 13  1  0  0  0
 13 14  1  0  0  0
 14  1  1  0  0  0
  1  2  2  0  0  0
  2  3  1  0  0  0
  3  4  2  0  0  0
  4  5  1  0  0  0
  5  6  2  0  0  0
  4 15  1  0  0  0
 15 16  2  0  0  0
 16 17  1  0  0  0
 17 18  2  0  0  0
 18 19  1  0  0  0
 18 20  1  0  0  0
 12  8  1  0  0  0
  6  1  1  0  0  0
 20 15  1  0  0  0
 14 10  1  0  0  0
M  END
> <minimizedAffinity>
-6.72218

> <CNNscore>
0.4468609989

> <CNNaffinity>
5.9636659622

> <CNN_VS>
2.6649296284

> <CNNaffinity_variance>
0.0356527045

$$$$
[H]c1nc(N2C([H])([H])[C@@]3([H])N(C([H])([H])[H])C([H])([H])[C@]2([H])C3([H])[H])c([H])nc1-c1sc(Cl)c([H])c1[H]


 20 23  0  0  0  0  0  0  0  0999 V2000
   42.5334   14.5520  -13.4764 C   0  0  0  0  0  0  0  0  0  0  0  0
   43.0080   13.6323  -14.3901 C   0  0  0  0  0  0  0  0  0  0  0  0
   42.1653   12.9678  -15.2248 N   0  0  0  0  0  0  0  0  0  0  0  0
   40.8444   13.1780  -15.1945 C   0  0  0  0  0  0  0  0  0  0  0  0
   40.3675   14.0921  -14.2870 C   0  0  0  0  0  0  0  0  0  0  0  0
   41.2043   14.7525  -13.4576 N   0  0  0  0  0  0  0  0  0  0  0  0
   46.9145   17.3124  -12.0574 C   0  0  0  0  0  0  0  0  0  0  0  0
   45.7618   16.5343  -12.3717 N   0  0  0  0  0  0  0  0  0  0  0  0
   44.6507   17.3197  -12.8784 C   0  0  0  0  0  0  0  0  0  0  0  0
   43.4664   16.6259  -12.2375 C   0  0  0  0  0  0  0  0  0  0  0  0
   44.0664   16.5107  -10.8207 C   0  0  0  0  0  0  0  0  0  0  0  0
   45.2829   15.7032  -11.3119 C   0  0  0  0  0  0  0  0  0  0  0  0
   44.5382   14.5428  -11.9295 C   0  0  0  0  0  0  0  0  0  0  0  0
   43.4316   15.2376  -12.6110 N   0  0  0  0  0  0  0  0  0  0  0  0
   39.9263   12.4560  -16.1018 C   0  0  0  0  0  0  0  0  0  0  0  0
   38.6949   11.9427  -15.8404 C   0  0  0  0  0  0  0  0  0  0  0  0
   38.0557   11.3261  -16.8418 C   0  0  0  0  0  0  0  0  0  0  0  0
   38.6957   11.2621  -18.0514 C   0  0  0  0  0  0  0  0  0  0  0  0
   38.1478   10.5324  -19.5627 Cl  0  0  0  0  0  0  0  0  0  0  0  0
   40.1672   12.0657  -17.7458 S   0  0  0  0  0  0  0  0  0  0  0  0
  7  8  1  0  0  0
  8  9  1  0  0  0
  9 10  1  0  0  0
 10 11  1  0  0  0
 11 12  1  0  0  0
 12 13  1  0  0  0
 13 14  1  0  0  0
 14  1  1  0  0  0
  1  2  2  0  0  0
  2  3  1  0  0  0
  3  4  2  0  0  0
  4  5  1  0  0  0
  5  6  2  0  0  0
  4 15  1  0  0  0
 15 16  2  0  0  0
 16 17  1  0  0  0
 17 18  2  0  0  0
 18 19  1  0  0  0
 18 20  1  0  0  0
 12  8  1  0  0  0
  6  1  1  0  0  0
 20 15  1  0  0  0
 14 10  1  0  0  0
M  END
> <minimizedAffinity>
-5.98924

> <CNNscore>
0.4191134572

> <CNNaffinity>
5.4863615036

> <CNN_VS>
2.2994079590

> <CNNaffinity_variance>
0.0686927736

$$$$
[H]c1nc(N2C([H])([H])[C@@]3([H])N(C([H])([H])[H])C([H])([H])[C@]2([H])C3([H])[H])c([H])nc1-c1sc(Cl)c([H])c1[H]


 20 23  0  0  0  0  0  0  0  0999 V2000
   40.6967   14.2171  -13.8997 C   0  0  0  0  0  0  0  0  0  0  0  0
   40.9395   13.3837  -14.9732 C   0  0  0  0  0  0  0  0  0  0  0  0
   39.9254   12.7396  -15.6097 N   0  0  0  0  0  0  0  0  0  0  0  0
   38.6534   12.8870  -15.2220 C   0  0  0  0  0  0  0  0  0  0  0  0
   38.4069   13.7151  -14.1543 C   0  0  0  0  0  0  0  0  0  0  0  0
   39.4140   14.3553  -13.5217 N   0  0  0  0  0  0  0  0  0  0  0  0
   44.0472   15.4783   -9.8984 C   0  0  0  0  0  0  0  0  0  0  0  0
   43.1500   15.2194  -10.9758 N   0  0  0  0  0  0  0  0  0  0  0  0
   43.5153   14.0607  -11.7709 C   0  0  0  0  0  0  0  0  0  0  0  0
   43.1622   14.5239  -13.1693 C   0  0  0  0  0  0  0  0  0  0  0  0
   43.7987   15.9255  -13.0642 C   0  0  0  0  0  0  0  0  0  0  0  0
   42.9264   16.3218  -11.8579 C   0  0  0  0  0  0  0  0  0  0  0  0
   41.5713   16.1376  -12.5002 C   0  0  0  0  0  0  0  0  0  0  0  0
   41.7718   14.8828  -13.2464 N   0  0  0  0  0  0  0  0  0  0  0  0
   37.5491   12.1870  -15.9133 C   0  0  0  0  0  0  0  0  0  0  0  0
   37.6057   11.3428  -16.9774 C   0  0  0  0  0  0  0  0  0  0  0  0
   36.4523   10.8318  -17.4245 C   0  0  0  0  0  0  0  0  0  0  0  0
   35.3058   11.2018  -16.7722 C   0  0  0  0  0  0  0  0  0  0  0  0
   33.6378   10.7220  -17.0951 Cl  0  0  0  0  0  0  0  0  0  0  0  0
   35.8809   12.2502  -15.5579 S   0  0  0  0  0  0  0  0  0  0  0  0
  7  8  1  0  0  0
  8  9  1  0  0  0
  9 10  1  0  0  0
 10 11  1  0  0  0
 11 12  1  0  0  0
 12 13  1  0  0  0
 13 14  1  0  0  0
 14  1  1  0  0  0
  1  2  2  0  0  0
  2  3  1  0  0  0
  3  4  2  0  0  0
  4  5  1  0  0  0
  5  6  2  0  0  0
  4 15  1  0  0  0
 15 16  2  0  0  0
 16 17  1  0  0  0
 17 18  2  0  0  0
 18 19  1  0  0  0
 18 20  1  0  0  0
 12  8  1  0  0  0
  6  1  1  0  0  0
 20 15  1  0  0  0
 14 10  1  0  0  0
M  END
> <minimizedAffinity>
-6.51967

> <CNNscore>
0.2558566034

> <CNNaffinity>
5.5423712730

> <CNN_VS>
1.4180523157

> <CNNaffinity_variance>
0.0399002619

$$$$
[H]c1nc(N2C([H])([H])[C@@]3([H])N(C([H])([H])[H])C([H])([H])[C@]2([H])C3([H])[H])c([H])nc1-c1sc(Cl)c([H])c1[H]


 20 23  0  0  0  0  0  0  0  0999 V2000
   36.8542   14.5185  -11.3803 C   0  0  0  0  0  0  0  0  0  0  0  0
   37.7431   14.7807  -12.4036 C   0  0  0  0  0  0  0  0  0  0  0  0
   37.6905   14.0954  -13.5766 N   0  0  0  0  0  0  0  0  0  0  0  0
   36.7768   13.1408  -13.7863 C   0  0  0  0  0  0  0  0  0  0  0  0
   35.8903   12.8763  -12.7710 C   0  0  0  0  0  0  0  0  0  0  0  0
   35.9422   13.5569  -11.6055 N   0  0  0  0  0  0  0  0  0  0  0  0
   35.2480   17.8745   -7.5093 C   0  0  0  0  0  0  0  0  0  0  0  0
   35.7446   17.0172   -8.5347 N   0  0  0  0  0  0  0  0  0  0  0  0
   35.2742   15.6478   -8.4259 C   0  0  0  0  0  0  0  0  0  0  0  0
   36.5048   14.8665   -8.8380 C   0  0  0  0  0  0  0  0  0  0  0  0
   37.5194   15.6625   -7.9909 C   0  0  0  0  0  0  0  0  0  0  0  0
   37.1672   16.9977   -8.6737 C   0  0  0  0  0  0  0  0  0  0  0  0
   37.4913   16.6061  -10.0965 C   0  0  0  0  0  0  0  0  0  0  0  0
   36.9253   15.2468  -10.1596 N   0  0  0  0  0  0  0  0  0  0  0  0
   36.7183   12.3944  -15.0616 C   0  0  0  0  0  0  0  0  0  0  0  0
   35.6379   11.8594  -15.6900 C   0  0  0  0  0  0  0  0  0  0  0  0
   35.8476   11.2230  -16.8487 C   0  0  0  0  0  0  0  0  0  0  0  0
   37.1368   11.1621  -17.3083 C   0  0  0  0  0  0  0  0  0  0  0  0
   37.7590   10.4105  -18.7796 Cl  0  0  0  0  0  0  0  0  0  0  0  0
   38.0090   11.9962  -16.1050 S   0  0  0  0  0  0  0  0  0  0  0  0
  7  8  1  0  0  0
  8  9  1  0  0  0
  9 10  1  0  0  0
 10 11  1  0  0  0
 11 12  1  0  0  0
 12 13  1  0  0  0
 13 14  1  0  0  0
 14  1  1  0  0  0
  1  2  2  0  0  0
  2  3  1  0  0  0
  3  4  2  0  0  0
  4  5  1  0  0  0
  5  6  2  0  0  0
  4 15  1  0  0  0
 15 16  2  0  0  0
 16 17  1  0  0  0
 17 18  2  0  0  0
 18 19  1  0  0  0
 18 20  1  0  0  0
 12  8  1  0  0  0
  6  1  1  0  0  0
 20 15  1  0  0  0
 14 10  1  0  0  0
M  END
> <minimizedAffinity>
-6.56849

> <CNNscore>
0.2370214909

> <CNNaffinity>
5.3159813881

> <CNN_VS>
1.2600017786

> <CNNaffinity_variance>
0.2125498354

$$$$
[H]c1nc(N2C([H])([H])[C@@]3([H])N(C([H])([H])[H])C([H])([H])[C@]2([H])C3([H])[H])c([H])nc1-c1sc(Cl)c([H])c1[H]


 20 23  0  0  0  0  0  0  0  0999 V2000
   37.4086   14.6453  -11.5789 C   0  0  0  0  0  0  0  0  0  0  0  0
   37.8789   14.7947  -12.8682 C   0  0  0  0  0  0  0  0  0  0  0  0
   37.3506   14.0827  -13.8989 N   0  0  0  0  0  0  0  0  0  0  0  0
   36.3552   13.2098  -13.7055 C   0  0  0  0  0  0  0  0  0  0  0  0
   35.8839   13.0578  -12.4243 C   0  0  0  0  0  0  0  0  0  0  0  0
   36.4085   13.7650  -11.4002 N   0  0  0  0  0  0  0  0  0  0  0  0
   40.9304   15.9203   -7.7320 C   0  0  0  0  0  0  0  0  0  0  0  0
   39.9378   15.5973   -8.7033 N   0  0  0  0  0  0  0  0  0  0  0  0
   40.2648   16.0532  -10.0425 C   0  0  0  0  0  0  0  0  0  0  0  0
   38.9093   16.4920  -10.5572 C   0  0  0  0  0  0  0  0  0  0  0  0
   38.4776   17.2696   -9.2964 C   0  0  0  0  0  0  0  0  0  0  0  0
   38.6140   16.0338   -8.3868 C   0  0  0  0  0  0  0  0  0  0  0  0
   37.6404   15.1279   -9.1039 C   0  0  0  0  0  0  0  0  0  0  0  0
   37.9747   15.4000  -10.5132 N   0  0  0  0  0  0  0  0  0  0  0  0
   35.7793   12.4345  -14.8255 C   0  0  0  0  0  0  0  0  0  0  0  0
   36.4076   11.8950  -15.9036 C   0  0  0  0  0  0  0  0  0  0  0  0
   35.6564   11.2299  -16.7896 C   0  0  0  0  0  0  0  0  0  0  0  0
   34.3123   11.1468  -16.5374 C   0  0  0  0  0  0  0  0  0  0  0  0
   33.0496   10.3557  -17.4843 Cl  0  0  0  0  0  0  0  0  0  0  0  0
   34.1470   12.0007  -15.0718 S   0  0  0  0  0  0  0  0  0  0  0  0
  7  8  1  0  0  0
  8  9  1  0  0  0
  9 10  1  0  0  0
 10 11  1  0  0  0
 11 12  1  0  0  0
 12 13  1  0  0  0
 13 14  1  0  0  0
 14  1  1  0  0  0
  1  2  2  0  0  0
  2  3  1  0  0  0
  3  4  2  0  0  0
  4  5  1  0  0  0
  5  6  2  0  0  0
  4 15  1  0  0  0
 15 16  2  0  0  0
 16 17  1  0  0  0
 17 18  2  0  0  0
 18 19  1  0  0  0
 18 20  1  0  0  0
 12  8  1  0  0  0
  6  1  1  0  0  0
 20 15  1  0  0  0
 14 10  1  0  0  0
M  END
> <minimizedAffinity>
-6.61758

> <CNNscore>
0.2232255638

> <CNNaffinity>
5.3283829689

> <CNN_VS>
1.1894313097

> <CNNaffinity_variance>
0.1511779577

$$$$
[H]c1nc2c([H])c([H])c([H])c(-c3c([H])nn4c([H])c(-c5c([H])c([H])c(N6C([H])([H])C([H])([H])N(C([H])([H])[H])C([H])([H])C6([H])[H])c([H])c5[H])c([H])nc34)c2c([H])c1[H]


 32 37  0  0  0  0  0  0  0  0999 V2000
   41.0623   12.3704  -16.1984 C   0  0  0  0  0  0  0  0  0  0  0  0
   40.0435   12.5005  -15.2576 C   0  0  0  0  0  0  0  0  0  0  0  0
   38.8245   12.1322  -15.6081 N   0  0  0  0  0  0  0  0  0  0  0  0
   38.4664   11.6315  -16.8177 C   0  0  0  0  0  0  0  0  0  0  0  0
   37.2841   11.1969  -17.3817 C   0  0  0  0  0  0  0  0  0  0  0  0
   37.5857   10.8042  -18.6620 C   0  0  0  0  0  0  0  0  0  0  0  0
   38.9009   11.0039  -18.8369 N   0  0  0  0  0  0  0  0  0  0  0  0
   39.4422   11.5025  -17.7316 N   0  0  0  0  0  0  0  0  0  0  0  0
   40.7216   11.8643  -17.4331 C   0  0  0  0  0  0  0  0  0  0  0  0
   36.0035   11.1292  -16.6946 C   0  0  0  0  0  0  0  0  0  0  0  0
   35.1631   10.0366  -16.9790 C   0  0  0  0  0  0  0  0  0  0  0  0
   33.9490    9.9757  -16.3921 C   0  0  0  0  0  0  0  0  0  0  0  0
   33.5356   10.9489  -15.5382 C   0  0  0  0  0  0  0  0  0  0  0  0
   34.3395   12.0209  -15.2468 C   0  0  0  0  0  0  0  0  0  0  0  0
   33.9419   12.9904  -14.3882 N   0  0  0  0  0  0  0  0  0  0  0  0
   34.7215   14.0388  -14.0845 C   0  0  0  0  0  0  0  0  0  0  0  0
   35.9748   14.1882  -14.6303 C   0  0  0  0  0  0  0  0  0  0  0  0
   36.4140   13.2207  -15.5090 C   0  0  0  0  0  0  0  0  0  0  0  0
   35.6130   12.1429  -15.8238 C   0  0  0  0  0  0  0  0  0  0  0  0
   45.0165   13.5523  -15.1183 C   0  0  0  0  0  0  0  0  0  0  0  0
   43.9230   13.8920  -14.3529 C   0  0  0  0  0  0  0  0  0  0  0  0
   42.6149   13.5102  -14.6968 C   0  0  0  0  0  0  0  0  0  0  0  0
   42.4104   12.7730  -15.8338 C   0  0  0  0  0  0  0  0  0  0  0  0
   43.5034   12.4424  -16.5854 C   0  0  0  0  0  0  0  0  0  0  0  0
   44.7979   12.8120  -16.2576 C   0  0  0  0  0  0  0  0  0  0  0  0
   49.3125   15.2924  -13.9750 C   0  0  0  0  0  0  0  0  0  0  0  0
   48.5277   14.5364  -13.0502 N   0  0  0  0  0  0  0  0  0  0  0  0
   48.2701   13.1762  -13.4639 C   0  0  0  0  0  0  0  0  0  0  0  0
   47.4806   13.0864  -14.7261 C   0  0  0  0  0  0  0  0  0  0  0  0
   46.3240   13.9650  -14.6946 N   0  0  0  0  0  0  0  0  0  0  0  0
   46.5644   15.3059  -14.1902 C   0  0  0  0  0  0  0  0  0  0  0  0
   47.2497   15.1684  -12.8414 C   0  0  0  0  0  0  0  0  0  0  0  0
 26 27  1  0  0  0
 27 28  1  0  0  0
 28 29  1  0  0  0
 29 30  1  0  0  0
 30 31  1  0  0  0
 31 32  1  0  0  0
 30 20  1  0  0  0
 20 21  2  0  0  0
 21 22  1  0  0  0
 22 23  2  0  0  0
 23 24  1  0  0  0
 24 25  2  0  0  0
 23  1  1  0  0  0
  1  2  1  0  0  0
  2  3  2  0  0  0
  3  4  1  0  0  0
  4  5  2  0  0  0
  5  6  1  0  0  0
  6  7  2  0  0  0
  7  8  1  0  0  0
  8  9  1  0  0  0
  5 10  1  0  0  0
 10 11  2  0  0  0
 11 12  1  0  0  0
 12 13  2  0  0  0
 13 14  1  0  0  0
 14 15  2  0  0  0
 15 16  1  0  0  0
 16 17  2  0  0  0
 17 18  1  0  0  0
 18 19  2  0  0  0
 32 27  1  0  0  0
 25 20  1  0  0  0
  9  1  2  0  0  0
 19 10  1  0  0  0
  8  4  1  0  0  0
 19 14  1  0  0  0
M  END
> <minimizedAffinity>
-9.88043

> <CNNscore>
0.8748121262

> <CNNaffinity>
7.6797432899

> <CNN_VS>
6.7183327675

> <CNNaffinity_variance>
0.2194537371

$$$$
[H]c1nc2c([H])c([H])c([H])c(-c3c([H])nn4c([H])c(-c5c([H])c([H])c(N6C([H])([H])C([H])([H])N(C([H])([H])[H])C([H])([H])C6([H])[H])c([H])c5[H])c([H])nc34)c2c([H])c1[H]


 32 37  0  0  0  0  0  0  0  0999 V2000
   40.9662   12.7728  -15.6086 C   0  0  0  0  0  0  0  0  0  0  0  0
   39.8433   12.8715  -14.7905 C   0  0  0  0  0  0  0  0  0  0  0  0
   38.6956   12.4103  -15.2536 N   0  0  0  0  0  0  0  0  0  0  0  0
   38.5052   11.8407  -16.4707 C   0  0  0  0  0  0  0  0  0  0  0  0
   37.4218   11.3075  -17.1389 C   0  0  0  0  0  0  0  0  0  0  0  0
   37.8870   10.8864  -18.3598 C   0  0  0  0  0  0  0  0  0  0  0  0
   39.1987   11.1656  -18.4002 N   0  0  0  0  0  0  0  0  0  0  0  0
   39.5824   11.7412  -17.2668 N   0  0  0  0  0  0  0  0  0  0  0  0
   40.7962   12.1979  -16.8485 C   0  0  0  0  0  0  0  0  0  0  0  0
   36.0795   11.1820  -16.5919 C   0  0  0  0  0  0  0  0  0  0  0  0
   35.3260   10.0500  -16.9552 C   0  0  0  0  0  0  0  0  0  0  0  0
   34.0601    9.9341  -16.5008 C   0  0  0  0  0  0  0  0  0  0  0  0
   33.5129   10.8898  -15.7044 C   0  0  0  0  0  0  0  0  0  0  0  0
   34.2303   11.9994  -15.3379 C   0  0  0  0  0  0  0  0  0  0  0  0
   33.6985   12.9521  -14.5350 N   0  0  0  0  0  0  0  0  0  0  0  0
   34.3915   14.0372  -14.1588 C   0  0  0  0  0  0  0  0  0  0  0  0
   35.6877   14.2435  -14.5688 C   0  0  0  0  0  0  0  0  0  0  0  0
   36.2630   13.2947  -15.3873 C   0  0  0  0  0  0  0  0  0  0  0  0
   35.5512   12.1793  -15.7766 C   0  0  0  0  0  0  0  0  0  0  0  0
   44.7030   14.2554  -14.1813 C   0  0  0  0  0  0  0  0  0  0  0  0
   44.5838   13.6566  -15.4158 C   0  0  0  0  0  0  0  0  0  0  0  0
   43.3595   13.1632  -15.8986 C   0  0  0  0  0  0  0  0  0  0  0  0
   42.2383   13.2773  -15.1190 C   0  0  0  0  0  0  0  0  0  0  0  0
   42.3695   13.8731  -13.8956 C   0  0  0  0  0  0  0  0  0  0  0  0
   43.5698   14.3639  -13.4081 C   0  0  0  0  0  0  0  0  0  0  0  0
   49.0569   15.9674  -13.2306 C   0  0  0  0  0  0  0  0  0  0  0  0
   47.9532   16.1615  -12.3436 N   0  0  0  0  0  0  0  0  0  0  0  0
   47.4081   14.9396  -11.7983 C   0  0  0  0  0  0  0  0  0  0  0  0
   46.8461   14.0318  -12.8398 C   0  0  0  0  0  0  0  0  0  0  0  0
   45.9837   14.7494  -13.7628 N   0  0  0  0  0  0  0  0  0  0  0  0
   46.4921   16.0242  -14.2390 C   0  0  0  0  0  0  0  0  0  0  0  0
   46.8790   16.8437  -13.0197 C   0  0  0  0  0  0  0  0  0  0  0  0
 26 27  1  0  0  0
 27 28  1  0  0  0
 28 29  1  0  0  0
 29 30  1  0  0  0
 30 31  1  0  0  0
 31 32  1  0  0  0
 30 20  1  0  0  0
 20 21  2  0  0  0
 21 22  1  0  0  0
 22 23  2  0  0  0
 23 24  1  0  0  0
 24 25  2  0  0  0
 23  1  1  0  0  0
  1  2  1  0  0  0
  2  3  2  0  0  0
  3  4  1  0  0  0
  4  5  2  0  0  0
  5  6  1  0  0  0
  6  7  2  0  0  0
  7  8  1  0  0  0
  8  9  1  0  0  0
  5 10  1  0  0  0
 10 11  2  0  0  0
 11 12  1  0  0  0
 12 13  2  0  0  0
 13 14  1  0  0  0
 14 15  2  0  0  0
 15 16  1  0  0  0
 16 17  2  0  0  0
 17 18  1  0  0  0
 18 19  2  0  0  0
 32 27  1  0  0  0
 25 20  1  0  0  0
  9  1  2  0  0  0
 19 10  1  0  0  0
  8  4  1  0  0  0
 19 14  1  0  0  0
M  END
> <minimizedAffinity>
-9.84108

> <CNNscore>
0.8610140681

> <CNNaffinity>
7.6164107323

> <CNN_VS>
6.5578370094

> <CNNaffinity_variance>
0.2320933789

$$$$
[H]c1nc2c([H])c([H])c([H])c(-c3c([H])nn4c([H])c(-c5c([H])c([H])c(N6C([H])([H])C([H])([H])N(C([H])([H])[H])C([H])([H])C6([H])[H])c([H])c5[H])c([H])nc34)c2c([H])c1[H]


 32 37  0  0  0  0  0  0  0  0999 V2000
   40.6628   13.4759  -14.4907 C   0  0  0  0  0  0  0  0  0  0  0  0
   39.3981   13.4604  -13.9074 C   0  0  0  0  0  0  0  0  0  0  0  0
   38.4151   12.8810  -14.5725 N   0  0  0  0  0  0  0  0  0  0  0  0
   38.5237   12.2905  -15.7897 C   0  0  0  0  0  0  0  0  0  0  0  0
   37.6505   11.6455  -16.6418 C   0  0  0  0  0  0  0  0  0  0  0  0
   38.3846   11.2708  -17.7396 C   0  0  0  0  0  0  0  0  0  0  0  0
   39.6439   11.6844  -17.5325 N   0  0  0  0  0  0  0  0  0  0  0  0
   39.7396   12.3006  -16.3601 N   0  0  0  0  0  0  0  0  0  0  0  0
   40.7963   12.8823  -15.7261 C   0  0  0  0  0  0  0  0  0  0  0  0
   36.2472   11.3832  -16.3616 C   0  0  0  0  0  0  0  0  0  0  0  0
   35.6717   10.2261  -16.9194 C   0  0  0  0  0  0  0  0  0  0  0  0
   34.3591    9.9855  -16.7153 C   0  0  0  0  0  0  0  0  0  0  0  0
   33.5970   10.8408  -15.9839 C   0  0  0  0  0  0  0  0  0  0  0  0
   34.1385   11.9727  -15.4310 C   0  0  0  0  0  0  0  0  0  0  0  0
   33.3905   12.8256  -14.6907 N   0  0  0  0  0  0  0  0  0  0  0  0
   33.9084   13.9307  -14.1340 C   0  0  0  0  0  0  0  0  0  0  0  0
   35.2349   14.2604  -14.2840 C   0  0  0  0  0  0  0  0  0  0  0  0
   36.0280   13.4156  -15.0313 C   0  0  0  0  0  0  0  0  0  0  0  0
   35.4966   12.2799  -15.6059 C   0  0  0  0  0  0  0  0  0  0  0  0
   43.8697   15.3454  -12.3882 C   0  0  0  0  0  0  0  0  0  0  0  0
   42.6006   15.8802  -12.4003 C   0  0  0  0  0  0  0  0  0  0  0  0
   41.5349   15.2757  -13.0890 C   0  0  0  0  0  0  0  0  0  0  0  0
   41.7577   14.1115  -13.7766 C   0  0  0  0  0  0  0  0  0  0  0  0
   43.0215   13.5907  -13.7575 C   0  0  0  0  0  0  0  0  0  0  0  0
   44.0804   14.1761  -13.0826 C   0  0  0  0  0  0  0  0  0  0  0  0
   47.0012   17.6286   -9.6005 C   0  0  0  0  0  0  0  0  0  0  0  0
   47.3942   16.5710  -10.4778 N   0  0  0  0  0  0  0  0  0  0  0  0
   47.1771   16.8505  -11.8786 C   0  0  0  0  0  0  0  0  0  0  0  0
   45.7395   17.0535  -12.2204 C   0  0  0  0  0  0  0  0  0  0  0  0
   44.9039   16.0115  -11.6492 N   0  0  0  0  0  0  0  0  0  0  0  0
   45.1849   15.6650  -10.2667 C   0  0  0  0  0  0  0  0  0  0  0  0
   46.6707   15.3644  -10.1662 C   0  0  0  0  0  0  0  0  0  0  0  0
 26 27  1  0  0  0
 27 28  1  0  0  0
 28 29  1  0  0  0
 29 30  1  0  0  0
 30 31  1  0  0  0
 31 32  1  0  0  0
 30 20  1  0  0  0
 20 21  2  0  0  0
 21 22  1  0  0  0
 22 23  2  0  0  0
 23 24  1  0  0  0
 24 25  2  0  0  0
 23  1  1  0  0  0
  1  2  1  0  0  0
  2  3  2  0  0  0
  3  4  1  0  0  0
  4  5  2  0  0  0
  5  6  1  0  0  0
  6  7  2  0  0  0
  7  8  1  0  0  0
  8  9  1  0  0  0
  5 10  1  0  0  0
 10 11  2  0  0  0
 11 12  1  0  0  0
 12 13  2  0  0  0
 13 14  1  0  0  0
 14 15  2  0  0  0
 15 16  1  0  0  0
 16 17  2  0  0  0
 17 18  1  0  0  0
 18 19  2  0  0  0
 32 27  1  0  0  0
 25 20  1  0  0  0
  9  1  2  0  0  0
 19 10  1  0  0  0
  8  4  1  0  0  0
 19 14  1  0  0  0
M  END
> <minimizedAffinity>
-9.46554

> <CNNscore>
0.6335313320

> <CNNaffinity>
7.2141218185

> <CNN_VS>
4.5703721046

> <CNNaffinity_variance>
0.3153772354

$$$$
[H]c1nc2c([H])c([H])c([H])c(-c3c([H])nn4c([H])c(-c5c([H])c([H])c(N6C([H])([H])C([H])([H])N(C([H])([H])[H])C([H])([H])C6([H])[H])c([H])c5[H])c([H])nc34)c2c([H])c1[H]


 32 37  0  0  0  0  0  0  0  0999 V2000
   36.2602   14.3659  -11.2615 C   0  0  0  0  0  0  0  0  0  0  0  0
   37.6099   14.5896  -11.5231 C   0  0  0  0  0  0  0  0  0  0  0  0
   38.1281   14.0528  -12.6129 N   0  0  0  0  0  0  0  0  0  0  0  0
   37.4583   13.2919  -13.5154 C   0  0  0  0  0  0  0  0  0  0  0  0
   37.7951   12.6480  -14.6887 C   0  0  0  0  0  0  0  0  0  0  0  0
   36.6517   12.0351  -15.1374 C   0  0  0  0  0  0  0  0  0  0  0  0
   35.6814   12.3136  -14.2538 N   0  0  0  0  0  0  0  0  0  0  0  0
   36.1561   13.0706  -13.2715 N   0  0  0  0  0  0  0  0  0  0  0  0
   35.5607   13.5962  -12.1642 C   0  0  0  0  0  0  0  0  0  0  0  0
   39.1048   12.6896  -15.3207 C   0  0  0  0  0  0  0  0  0  0  0  0
   40.1356   13.3747  -14.6503 C   0  0  0  0  0  0  0  0  0  0  0  0
   41.3470   13.4700  -15.2381 C   0  0  0  0  0  0  0  0  0  0  0  0
   41.5779   12.9163  -16.4577 C   0  0  0  0  0  0  0  0  0  0  0  0
   40.5878   12.2438  -17.1268 C   0  0  0  0  0  0  0  0  0  0  0  0
   40.8106   11.6783  -18.3374 N   0  0  0  0  0  0  0  0  0  0  0  0
   39.8556   11.0076  -18.9989 C   0  0  0  0  0  0  0  0  0  0  0  0
   38.5907   10.8554  -18.4815 C   0  0  0  0  0  0  0  0  0  0  0  0
   38.3264   11.4177  -17.2506 C   0  0  0  0  0  0  0  0  0  0  0  0
   39.3067   12.1092  -16.5700 C   0  0  0  0  0  0  0  0  0  0  0  0
   34.5223   16.0655   -7.7558 C   0  0  0  0  0  0  0  0  0  0  0  0
   33.9680   16.2499   -9.0030 C   0  0  0  0  0  0  0  0  0  0  0  0
   34.5299   15.6967  -10.1664 C   0  0  0  0  0  0  0  0  0  0  0  0
   35.6713   14.9451  -10.0656 C   0  0  0  0  0  0  0  0  0  0  0  0
   36.2123   14.7695   -8.8225 C   0  0  0  0  0  0  0  0  0  0  0  0
   35.6685   15.3089   -7.6680 C   0  0  0  0  0  0  0  0  0  0  0  0
   32.4139   18.4057   -4.1684 C   0  0  0  0  0  0  0  0  0  0  0  0
   32.1007   17.0459   -4.4773 N   0  0  0  0  0  0  0  0  0  0  0  0
   33.2107   16.1330   -4.3295 C   0  0  0  0  0  0  0  0  0  0  0  0
   34.3445   16.4338   -5.2508 C   0  0  0  0  0  0  0  0  0  0  0  0
   33.8826   16.6489   -6.6113 N   0  0  0  0  0  0  0  0  0  0  0  0
   32.7087   17.4927   -6.7526 C   0  0  0  0  0  0  0  0  0  0  0  0
   31.6338   16.9338   -5.8359 C   0  0  0  0  0  0  0  0  0  0  0  0
 26 27  1  0  0  0
 27 28  1  0  0  0
 28 29  1  0  0  0
 29 30  1  0  0  0
 30 31  1  0  0  0
 31 32  1  0  0  0
 30 20  1  0  0  0
 20 21  2  0  0  0
 21 22  1  0  0  0
 22 23  2  0  0  0
 23 24  1  0  0  0
 24 25  2  0  0  0
 23  1  1  0  0  0
  1  2  1  0  0  0
  2  3  2  0  0  0
  3  4  1  0  0  0
  4  5  2  0  0  0
  5  6  1  0  0  0
  6  7  2  0  0  0
  7  8  1  0  0  0
  8  9  1  0  0  0
  5 10  1  0  0  0
 10 11  2  0  0  0
 11 12  1  0  0  0
 12 13  2  0  0  0
 13 14  1  0  0  0
 14 15  2  0  0  0
 15 16  1  0  0  0
 16 17  2  0  0  0
 17 18  1  0  0  0
 18 19  2  0  0  0
 32 27  1  0  0  0
 25 20  1  0  0  0
  9  1  2  0  0  0
 19 10  1  0  0  0
  8  4  1  0  0  0
 19 14  1  0  0  0
M  END
> <minimizedAffinity>
-9.91652

> <CNNscore>
0.5621395707

> <CNNaffinity>
6.7800703049

> <CNN_VS>
3.8113458157

> <CNNaffinity_variance>
0.5305933356

$$$$
[H]c1nc2c([H])c([H])c([H])c(-c3c([H])nn4c([H])c(-c5c([H])c([H])c(N6C([H])([H])C([H])([H])N(C([H])([H])[H])C([H])([H])C6([H])[H])c([H])c5[H])c([H])nc34)c2c([H])c1[H]


 32 37  0  0  0  0  0  0  0  0999 V2000
   35.1936   13.4864  -13.6769 C   0  0  0  0  0  0  0  0  0  0  0  0
   36.4840   13.8475  -14.0572 C   0  0  0  0  0  0  0  0  0  0  0  0
   37.0459   13.1852  -15.0522 N   0  0  0  0  0  0  0  0  0  0  0  0
   36.4749   12.1702  -15.7492 C   0  0  0  0  0  0  0  0  0  0  0  0
   36.8717   11.3610  -16.7944 C   0  0  0  0  0  0  0  0  0  0  0  0
   35.8239   10.5110  -17.0471 C   0  0  0  0  0  0  0  0  0  0  0  0
   34.8492   10.8160  -16.1771 N   0  0  0  0  0  0  0  0  0  0  0  0
   35.2306   11.8148  -15.3895 N   0  0  0  0  0  0  0  0  0  0  0  0
   34.5946   12.4585  -14.3706 C   0  0  0  0  0  0  0  0  0  0  0  0
   38.1397   11.4659  -17.5000 C   0  0  0  0  0  0  0  0  0  0  0  0
   38.1905   11.0079  -18.8300 C   0  0  0  0  0  0  0  0  0  0  0  0
   39.3669   11.0486  -19.4908 C   0  0  0  0  0  0  0  0  0  0  0  0
   40.4901   11.5228  -18.8901 C   0  0  0  0  0  0  0  0  0  0  0  0
   40.4617   11.9748  -17.5959 C   0  0  0  0  0  0  0  0  0  0  0  0
   41.5728   12.4602  -16.9917 N   0  0  0  0  0  0  0  0  0  0  0  0
   41.5582   12.9164  -15.7304 C   0  0  0  0  0  0  0  0  0  0  0  0
   40.4081   12.9173  -14.9767 C   0  0  0  0  0  0  0  0  0  0  0  0
   39.2566   12.4305  -15.5582 C   0  0  0  0  0  0  0  0  0  0  0  0
   39.2703   11.9594  -16.8545 C   0  0  0  0  0  0  0  0  0  0  0  0
   33.3207   15.5774  -10.4646 C   0  0  0  0  0  0  0  0  0  0  0  0
   32.5974   15.0783  -11.5250 C   0  0  0  0  0  0  0  0  0  0  0  0
   33.2010   14.3881  -12.5902 C   0  0  0  0  0  0  0  0  0  0  0  0
   34.5585   14.2006  -12.5819 C   0  0  0  0  0  0  0  0  0  0  0  0
   35.2655   14.7009  -11.5243 C   0  0  0  0  0  0  0  0  0  0  0  0
   34.6830   15.3826  -10.4681 C   0  0  0  0  0  0  0  0  0  0  0  0
   30.8395   18.1027   -7.2618 C   0  0  0  0  0  0  0  0  0  0  0  0
   31.1425   16.7193   -7.0697 N   0  0  0  0  0  0  0  0  0  0  0  0
   32.5547   16.4282   -6.9784 C   0  0  0  0  0  0  0  0  0  0  0  0
   33.3051   16.7665   -8.2222 C   0  0  0  0  0  0  0  0  0  0  0  0
   32.6323   16.2579   -9.4051 N   0  0  0  0  0  0  0  0  0  0  0  0
   31.1959   16.4687   -9.4531 C   0  0  0  0  0  0  0  0  0  0  0  0
   30.6140   15.9335   -8.1558 C   0  0  0  0  0  0  0  0  0  0  0  0
 26 27  1  0  0  0
 27 28  1  0  0  0
 28 29  1  0  0  0
 29 30  1  0  0  0
 30 31  1  0  0  0
 31 32  1  0  0  0
 30 20  1  0  0  0
 20 21  2  0  0  0
 21 22  1  0  0  0
 22 23  2  0  0  0
 23 24  1  0  0  0
 24 25  2  0  0  0
 23  1  1  0  0  0
  1  2  1  0  0  0
  2  3  2  0  0  0
  3  4  1  0  0  0
  4  5  2  0  0  0
  5  6  1  0  0  0
  6  7  2  0  0  0
  7  8  1  0  0  0
  8  9  1  0  0  0
  5 10  1  0  0  0
 10 11  2  0  0  0
 11 12  1  0  0  0
 12 13  2  0  0  0
 13 14  1  0  0  0
 14 15  2  0  0  0
 15 16  1  0  0  0
 16 17  2  0  0  0
 17 18  1  0  0  0
 18 19  2  0  0  0
 32 27  1  0  0  0
 25 20  1  0  0  0
  9  1  2  0  0  0
 19 10  1  0  0  0
  8  4  1  0  0  0
 19 14  1  0  0  0
M  END
> <minimizedAffinity>
-9.51642

> <CNNscore>
0.3659695387

> <CNNaffinity>
6.9223875999

> <CNN_VS>
2.5333828926

> <CNNaffinity_variance>
0.2601336837

$$$$
[H]c1nc2c([H])c([H])c([H])c(-c3c([H])nn4c([H])c(-c5c([H])c([H])c(N6C([H])([H])C([H])([H])N(C([H])([H])[H])C([H])([H])C6([H])[H])c([H])c5[H])c([H])nc34)c2c([H])c1[H]


 32 37  0  0  0  0  0  0  0  0999 V2000
   36.6262   14.6254  -12.4900 C   0  0  0  0  0  0  0  0  0  0  0  0
   37.7276   14.6147  -13.3424 C   0  0  0  0  0  0  0  0  0  0  0  0
   37.7254   13.7590  -14.3485 N   0  0  0  0  0  0  0  0  0  0  0  0
   36.7352   12.8757  -14.6336 C   0  0  0  0  0  0  0  0  0  0  0  0
   36.5339   11.9171  -15.6058 C   0  0  0  0  0  0  0  0  0  0  0  0
   35.3128   11.3477  -15.3432 C   0  0  0  0  0  0  0  0  0  0  0  0
   34.8198   11.9556  -14.2535 N   0  0  0  0  0  0  0  0  0  0  0  0
   35.6688   12.8786  -13.8169 N   0  0  0  0  0  0  0  0  0  0  0  0
   35.6091   13.7371  -12.7604 C   0  0  0  0  0  0  0  0  0  0  0  0
   37.4400   11.6412  -16.7102 C   0  0  0  0  0  0  0  0  0  0  0  0
   36.9117   11.0057  -17.8495 C   0  0  0  0  0  0  0  0  0  0  0  0
   37.7412   10.6943  -18.8680 C   0  0  0  0  0  0  0  0  0  0  0  0
   39.0671   10.9858  -18.8038 C   0  0  0  0  0  0  0  0  0  0  0  0
   39.6015   11.6057  -17.7036 C   0  0  0  0  0  0  0  0  0  0  0  0
   40.9194   11.9112  -17.6344 N   0  0  0  0  0  0  0  0  0  0  0  0
   41.4546   12.5276  -16.5700 C   0  0  0  0  0  0  0  0  0  0  0  0
   40.6907   12.8861  -15.4843 C   0  0  0  0  0  0  0  0  0  0  0  0
   39.3442   12.5912  -15.5186 C   0  0  0  0  0  0  0  0  0  0  0  0
   38.7927   11.9559  -16.6115 C   0  0  0  0  0  0  0  0  0  0  0  0
   36.5725   17.3549   -9.2119 C   0  0  0  0  0  0  0  0  0  0  0  0
   35.4591   16.6267   -9.5681 C   0  0  0  0  0  0  0  0  0  0  0  0
   35.4621   15.7246  -10.6458 C   0  0  0  0  0  0  0  0  0  0  0  0
   36.6104   15.5572  -11.3747 C   0  0  0  0  0  0  0  0  0  0  0  0
   37.7087   16.2858  -11.0117 C   0  0  0  0  0  0  0  0  0  0  0  0
   37.7193   17.1779   -9.9518 C   0  0  0  0  0  0  0  0  0  0  0  0
   36.6897   20.1020   -5.3092 C   0  0  0  0  0  0  0  0  0  0  0  0
   36.2442   20.5965   -6.5740 N   0  0  0  0  0  0  0  0  0  0  0  0
   35.0646   19.9381   -7.0864 C   0  0  0  0  0  0  0  0  0  0  0  0
   35.2711   18.4843   -7.3482 C   0  0  0  0  0  0  0  0  0  0  0  0
   36.4978   18.2455   -8.0891 N   0  0  0  0  0  0  0  0  0  0  0  0
   37.6642   18.9800   -7.6308 C   0  0  0  0  0  0  0  0  0  0  0  0
   37.2801   20.4484   -7.5646 C   0  0  0  0  0  0  0  0  0  0  0  0
 26 27  1  0  0  0
 27 28  1  0  0  0
 28 29  1  0  0  0
 29 30  1  0  0  0
 30 31  1  0  0  0
 31 32  1  0  0  0
 30 20  1  0  0  0
 20 21  2  0  0  0
 21 22  1  0  0  0
 22 23  2  0  0  0
 23 24  1  0  0  0
 24 25  2  0  0  0
 23  1  1  0  0  0
  1  2  1  0  0  0
  2  3  2  0  0  0
  3  4  1  0  0  0
  4  5  2  0  0  0
  5  6  1  0  0  0
  6  7  2  0  0  0
  7  8  1  0  0  0
  8  9  1  0  0  0
  5 10  1  0  0  0
 10 11  2  0  0  0
 11 12  1  0  0  0
 12 13  2  0  0  0
 13 14  1  0  0  0
 14 15  2  0  0  0
 15 16  1  0  0  0
 16 17  2  0  0  0
 17 18  1  0  0  0
 18 19  2  0  0  0
 32 27  1  0  0  0
 25 20  1  0  0  0
  9  1  2  0  0  0
 19 10  1  0  0  0
  8  4  1  0  0  0
 19 14  1  0  0  0
M  END
> <minimizedAffinity>
-9.75013

> <CNNscore>
0.3484824300

> <CNNaffinity>
6.8814134598

> <CNN_VS>
2.3980517387

> <CNNaffinity_variance>
0.3724831641

$$$$
[H]c1nc2c([H])c([H])c([H])c(-c3c([H])nn4c([H])c(-c5c([H])c([H])c(N6C([H])([H])C([H])([H])N(C([H])([H])[H])C([H])([H])C6([H])[H])c([H])c5[H])c([H])nc34)c2c([H])c1[H]


 32 37  0  0  0  0  0  0  0  0999 V2000
   37.4134   15.3245  -11.4455 C   0  0  0  0  0  0  0  0  0  0  0  0
   38.5533   15.5010  -12.2262 C   0  0  0  0  0  0  0  0  0  0  0  0
   38.7857   14.6295  -13.1910 N   0  0  0  0  0  0  0  0  0  0  0  0
   38.0059   13.5618  -13.4974 C   0  0  0  0  0  0  0  0  0  0  0  0
   38.0608   12.5517  -14.4362 C   0  0  0  0  0  0  0  0  0  0  0  0
   36.9563   11.7644  -14.2249 C   0  0  0  0  0  0  0  0  0  0  0  0
   36.2809   12.2993  -13.1965 N   0  0  0  0  0  0  0  0  0  0  0  0
   36.9044   13.3833  -12.7498 N   0  0  0  0  0  0  0  0  0  0  0  0
   36.6072   14.2471  -11.7386 C   0  0  0  0  0  0  0  0  0  0  0  0
   39.0779   12.4221  -15.4684 C   0  0  0  0  0  0  0  0  0  0  0  0
   40.3432   12.9854  -15.2174 C   0  0  0  0  0  0  0  0  0  0  0  0
   41.2891   12.9219  -16.1784 C   0  0  0  0  0  0  0  0  0  0  0  0
   41.0337   12.3253  -17.3725 C   0  0  0  0  0  0  0  0  0  0  0  0
   39.8083   11.7695  -17.6365 C   0  0  0  0  0  0  0  0  0  0  0  0
   39.5470   11.1622  -18.8189 N   0  0  0  0  0  0  0  0  0  0  0  0
   38.3572   10.6041  -19.0874 C   0  0  0  0  0  0  0  0  0  0  0  0
   37.3313   10.6166  -18.1719 C   0  0  0  0  0  0  0  0  0  0  0  0
   37.5602   11.2260  -16.9565 C   0  0  0  0  0  0  0  0  0  0  0  0
   38.7824   11.8021  -16.6794 C   0  0  0  0  0  0  0  0  0  0  0  0
   36.6087   18.0946   -8.3025 C   0  0  0  0  0  0  0  0  0  0  0  0
   35.7327   17.0794   -8.6169 C   0  0  0  0  0  0  0  0  0  0  0  0
   35.9845   16.1601   -9.6499 C   0  0  0  0  0  0  0  0  0  0  0  0
   37.1412   16.2707  -10.3763 C   0  0  0  0  0  0  0  0  0  0  0  0
   38.0024   17.2826  -10.0551 C   0  0  0  0  0  0  0  0  0  0  0  0
   37.7666   18.1949   -9.0395 C   0  0  0  0  0  0  0  0  0  0  0  0
   35.2552   20.7424   -4.5678 C   0  0  0  0  0  0  0  0  0  0  0  0
   36.5861   20.7843   -5.0871 N   0  0  0  0  0  0  0  0  0  0  0  0
   36.6771   21.2602   -6.4483 C   0  0  0  0  0  0  0  0  0  0  0  0
   35.9633   20.3868   -7.4242 C   0  0  0  0  0  0  0  0  0  0  0  0
   36.2906   18.9857   -7.2236 N   0  0  0  0  0  0  0  0  0  0  0  0
   36.2901   18.5294   -5.8445 C   0  0  0  0  0  0  0  0  0  0  0  0
   37.1805   19.4721   -5.0531 C   0  0  0  0  0  0  0  0  0  0  0  0
 26 27  1  0  0  0
 27 28  1  0  0  0
 28 29  1  0  0  0
 29 30  1  0  0  0
 30 31  1  0  0  0
 31 32  1  0  0  0
 30 20  1  0  0  0
 20 21  2  0  0  0
 21 22  1  0  0  0
 22 23  2  0  0  0
 23 24  1  0  0  0
 24 25  2  0  0  0
 23  1  1  0  0  0
  1  2  1  0  0  0
  2  3  2  0  0  0
  3  4  1  0  0  0
  4  5  2  0  0  0
  5  6  1  0  0  0
  6  7  2  0  0  0
  7  8  1  0  0  0
  8  9  1  0  0  0
  5 10  1  0  0  0
 10 11  2  0  0  0
 11 12  1  0  0  0
 12 13  2  0  0  0
 13 14  1  0  0  0
 14 15  2  0  0  0
 15 16  1  0  0  0
 16 17  2  0  0  0
 17 18  1  0  0  0
 18 19  2  0  0  0
 32 27  1  0  0  0
 25 20  1  0  0  0
  9  1  2  0  0  0
 19 10  1  0  0  0
  8  4  1  0  0  0
 19 14  1  0  0  0
M  END
> <minimizedAffinity>
-9.88741

> <CNNscore>
0.3340180218

> <CNNaffinity>
6.6510529518

> <CNN_VS>
2.2215714455

> <CNNaffinity_variance>
0.4564408362

$$$$
[H]c1nc2c([H])c([H])c([H])c(-c3c([H])nn4c([H])c(-c5c([H])c([H])c(N6C([H])([H])C([H])([H])N(C([H])([H])[H])C([H])([H])C6([H])[H])c([H])c5[H])c([H])nc34)c2c([H])c1[H]


 32 37  0  0  0  0  0  0  0  0999 V2000
   41.6599   14.5720  -13.6448 C   0  0  0  0  0  0  0  0  0  0  0  0
   40.4502   14.9607  -13.0741 C   0  0  0  0  0  0  0  0  0  0  0  0
   39.3391   14.4336  -13.5557 N   0  0  0  0  0  0  0  0  0  0  0  0
   39.2647   13.5350  -14.5701 C   0  0  0  0  0  0  0  0  0  0  0  0
   38.2381   12.8751  -15.2147 C   0  0  0  0  0  0  0  0  0  0  0  0
   38.8244   12.0879  -16.1743 C   0  0  0  0  0  0  0  0  0  0  0  0
   40.1491   12.2836  -16.0905 N   0  0  0  0  0  0  0  0  0  0  0  0
   40.4261   13.1542  -15.1269 N   0  0  0  0  0  0  0  0  0  0  0  0
   41.6082   13.6608  -14.6762 C   0  0  0  0  0  0  0  0  0  0  0  0
   36.8287   12.9786  -14.8692 C   0  0  0  0  0  0  0  0  0  0  0  0
   36.4692   13.8664  -13.8377 C   0  0  0  0  0  0  0  0  0  0  0  0
   35.1743   13.9448  -13.4646 C   0  0  0  0  0  0  0  0  0  0  0  0
   34.2251   13.1831  -14.0694 C   0  0  0  0  0  0  0  0  0  0  0  0
   34.5541   12.3131  -15.0770 C   0  0  0  0  0  0  0  0  0  0  0  0
   33.6140   11.5578  -15.6943 N   0  0  0  0  0  0  0  0  0  0  0  0
   33.9187   10.7109  -16.6889 C   0  0  0  0  0  0  0  0  0  0  0  0
   35.2091   10.5621  -17.1401 C   0  0  0  0  0  0  0  0  0  0  0  0
   36.1936   11.3147  -16.5355 C   0  0  0  0  0  0  0  0  0  0  0  0
   35.8823   12.1847  -15.5115 C   0  0  0  0  0  0  0  0  0  0  0  0
   45.2874   16.2440  -12.1466 C   0  0  0  0  0  0  0  0  0  0  0  0
   45.2815   15.1257  -12.9506 C   0  0  0  0  0  0  0  0  0  0  0  0
   44.0944   14.5638  -13.4508 C   0  0  0  0  0  0  0  0  0  0  0  0
   42.8940   15.1428  -13.1316 C   0  0  0  0  0  0  0  0  0  0  0  0
   42.9128   16.2519  -12.3326 C   0  0  0  0  0  0  0  0  0  0  0  0
   44.0756   16.8160  -11.8334 C   0  0  0  0  0  0  0  0  0  0  0  0
   49.3665   17.7985  -10.2139 C   0  0  0  0  0  0  0  0  0  0  0  0
   49.2622   17.4582  -11.5981 N   0  0  0  0  0  0  0  0  0  0  0  0
   48.3347   18.2786  -12.3425 C   0  0  0  0  0  0  0  0  0  0  0  0
   46.9283   18.1592  -11.8605 C   0  0  0  0  0  0  0  0  0  0  0  0
   46.5409   16.7699  -11.6867 N   0  0  0  0  0  0  0  0  0  0  0  0
   47.5145   15.9226  -11.0201 C   0  0  0  0  0  0  0  0  0  0  0  0
   48.8372   16.0896  -11.7486 C   0  0  0  0  0  0  0  0  0  0  0  0
 26 27  1  0  0  0
 27 28  1  0  0  0
 28 29  1  0  0  0
 29 30  1  0  0  0
 30 31  1  0  0  0
 31 32  1  0  0  0
 30 20  1  0  0  0
 20 21  2  0  0  0
 21 22  1  0  0  0
 22 23  2  0  0  0
 23 24  1  0  0  0
 24 25  2  0  0  0
 23  1  1  0  0  0
  1  2  1  0  0  0
  2  3  2  0  0  0
  3  4  1  0  0  0
  4  5  2  0  0  0
  5  6  1  0  0  0
  6  7  2  0  0  0
  7  8  1  0  0  0
  8  9  1  0  0  0
  5 10  1  0  0  0
 10 11  2  0  0  0
 11 12  1  0  0  0
 12 13  2  0  0  0
 13 14  1  0  0  0
 14 15  2  0  0  0
 15 16  1  0  0  0
 16 17  2  0  0  0
 17 18  1  0  0  0
 18 19  2  0  0  0
 32 27  1  0  0  0
 25 20  1  0  0  0
  9  1  2  0  0  0
 19 10  1  0  0  0
  8  4  1  0  0  0
 19 14  1  0  0  0
M  END
> <minimizedAffinity>
-8.56634

> <CNNscore>
0.2914644480

> <CNNaffinity>
6.5664076805

> <CNN_VS>
1.9138743877

> <CNNaffinity_variance>
0.1272257864

$$$$
[H]c1nc2c([H])c([H])c([H])c(-c3c([H])nn4c([H])c(-c5c([H])c([H])c(N6C([H])([H])C([H])([H])N(C([H])([H])[H])C([H])([H])C6([H])[H])c([H])c5[H])c([H])nc34)c2c([H])c1[H]


 32 37  0  0  0  0  0  0  0  0999 V2000
   42.8320   15.0930  -13.0608 C   0  0  0  0  0  0  0  0  0  0  0  0
   41.5028   15.3116  -12.7066 C   0  0  0  0  0  0  0  0  0  0  0  0
   40.5656   14.6926  -13.4014 N   0  0  0  0  0  0  0  0  0  0  0  0
   40.7798   13.8509  -14.4443 C   0  0  0  0  0  0  0  0  0  0  0  0
   39.9699   13.1189  -15.2887 C   0  0  0  0  0  0  0  0  0  0  0  0
   40.8066   12.4579  -16.1532 C   0  0  0  0  0  0  0  0  0  0  0  0
   42.0624   12.7945  -15.8222 N   0  0  0  0  0  0  0  0  0  0  0  0
   42.0585   13.6339  -14.7933 N   0  0  0  0  0  0  0  0  0  0  0  0
   43.0729   14.2421  -14.1166 C   0  0  0  0  0  0  0  0  0  0  0  0
   38.5194   13.0453  -15.2025 C   0  0  0  0  0  0  0  0  0  0  0  0
   37.8788   13.8357  -14.2299 C   0  0  0  0  0  0  0  0  0  0  0  0
   36.5383   13.7488  -14.0964 C   0  0  0  0  0  0  0  0  0  0  0  0
   35.8099   12.9144  -14.8841 C   0  0  0  0  0  0  0  0  0  0  0  0
   36.4144   12.1370  -15.8382 C   0  0  0  0  0  0  0  0  0  0  0  0
   35.6965   11.3108  -16.6364 N   0  0  0  0  0  0  0  0  0  0  0  0
   36.2722   10.5529  -17.5816 C   0  0  0  0  0  0  0  0  0  0  0  0
   37.6305   10.5732  -17.7945 C   0  0  0  0  0  0  0  0  0  0  0  0
   38.3945   11.4025  -17.0009 C   0  0  0  0  0  0  0  0  0  0  0  0
   37.8043   12.1811  -16.0274 C   0  0  0  0  0  0  0  0  0  0  0  0
   45.9070   17.0628  -10.8555 C   0  0  0  0  0  0  0  0  0  0  0  0
   45.3274   15.8960  -10.4088 C   0  0  0  0  0  0  0  0  0  0  0  0
   44.3132   15.2367  -11.1244 C   0  0  0  0  0  0  0  0  0  0  0  0
   43.8786   15.7671  -12.3108 C   0  0  0  0  0  0  0  0  0  0  0  0
   44.4612   16.9257  -12.7435 C   0  0  0  0  0  0  0  0  0  0  0  0
   45.4617   17.5853  -12.0482 C   0  0  0  0  0  0  0  0  0  0  0  0
   49.0451   19.2334   -7.9865 C   0  0  0  0  0  0  0  0  0  0  0  0
   49.3634   18.0306   -8.6898 N   0  0  0  0  0  0  0  0  0  0  0  0
   49.3326   18.1587  -10.1286 C   0  0  0  0  0  0  0  0  0  0  0  0
   47.9829   18.5098  -10.6576 C   0  0  0  0  0  0  0  0  0  0  0  0
   46.9486   17.6704  -10.0776 N   0  0  0  0  0  0  0  0  0  0  0  0
   47.0343   17.4656   -8.6421 C   0  0  0  0  0  0  0  0  0  0  0  0
   48.4413   16.9818   -8.3348 C   0  0  0  0  0  0  0  0  0  0  0  0
 26 27  1  0  0  0
 27 28  1  0  0  0
 28 29  1  0  0  0
 29 30  1  0  0  0
 30 31  1  0  0  0
 31 32  1  0  0  0
 30 20  1  0  0  0
 20 21  2  0  0  0
 21 22  1  0  0  0
 22 23  2  0  0  0
 23 24  1  0  0  0
 24 25  2  0  0  0
 23  1  1  0  0  0
  1  2  1  0  0  0
  2  3  2  0  0  0
  3  4  1  0  0  0
  4  5  2  0  0  0
  5  6  1  0  0  0
  6  7  2  0  0  0
  7  8  1  0  0  0
  8  9  1  0  0  0
  5 10  1  0  0  0
 10 11  2  0  0  0
 11 12  1  0  0  0
 12 13  2  0  0  0
 13 14  1  0  0  0
 14 15  2  0  0  0
 15 16  1  0  0  0
 16 17  2  0  0  0
 17 18  1  0  0  0
 18 19  2  0  0  0
 32 27  1  0  0  0
 25 20  1  0  0  0
  9  1  2  0  0  0
 19 10  1  0  0  0
  8  4  1  0  0  0
 19 14  1  0  0  0
M  END
> <minimizedAffinity>
-8.08748

> <CNNscore>
0.2094110847

> <CNNaffinity>
6.3842773438

> <CNN_VS>
1.3369385004

> <CNNaffinity_variance>
0.3038786948

$$$$
[H]O[C@@]([H])(C([H])([H])N([H])C(=O)c1c(C([H])([H])[H])c(/C([H])=C2\C(=O)N([H])c3c([H])c([H])c(F)c([H])c32)n([H])c1C([H])([H])[H])C([H])([H])N1C([H])([H])C([H])([H])OC([H])([H])C1([H])[H]


 36 39  0  0  0  0  0  0  0  0999 V2000
   44.8658   12.1101  -17.5492 C   0  0  0  0  0  0  0  0  0  0  0  0
   43.7348   12.4763  -16.6564 C   0  0  0  0  0  0  0  0  0  0  0  0
   42.4261   12.1021  -16.8684 N   0  0  0  0  0  0  0  0  0  0  0  0
   41.6675   12.6083  -15.9195 C   0  0  0  0  0  0  0  0  0  0  0  0
   42.4792   13.3164  -15.0840 C   0  0  0  0  0  0  0  0  0  0  0  0
   42.0570   14.0697  -13.8606 C   0  0  0  0  0  0  0  0  0  0  0  0
   43.8313   13.2503  -15.5334 C   0  0  0  0  0  0  0  0  0  0  0  0
   42.1501   11.5062  -17.7007 H   0  0  0  0  0  0  0  0  0  0  0  0
   40.2440   12.4597  -15.7311 C   0  0  0  0  0  0  0  0  0  0  0  0
   39.4043   11.9176  -16.5918 C   0  0  0  0  0  0  0  0  0  0  0  0
   39.7285   11.3539  -17.8938 C   0  0  0  0  0  0  0  0  0  0  0  0
   40.8617   11.2472  -18.4442 O   0  0  0  0  0  0  0  0  0  0  0  0
   38.4764   10.9279  -18.4447 N   0  0  0  0  0  0  0  0  0  0  0  0
   37.4097   11.2021  -17.5461 C   0  0  0  0  0  0  0  0  0  0  0  0
   36.0308   10.9850  -17.6112 C   0  0  0  0  0  0  0  0  0  0  0  0
   35.2204   11.3622  -16.5655 C   0  0  0  0  0  0  0  0  0  0  0  0
   35.7297   11.9583  -15.4330 C   0  0  0  0  0  0  0  0  0  0  0  0
   34.9147   12.3277  -14.4020 F   0  0  0  0  0  0  0  0  0  0  0  0
   37.0919   12.1600  -15.3960 C   0  0  0  0  0  0  0  0  0  0  0  0
   37.9405   11.7969  -16.4234 C   0  0  0  0  0  0  0  0  0  0  0  0
   38.3899   10.4815  -19.3779 H   0  0  0  0  0  0  0  0  0  0  0  0
   44.9335   13.8667  -14.8393 C   0  0  0  0  0  0  0  0  0  0  0  0
   45.5718   13.1413  -14.0061 O   0  0  0  0  0  0  0  0  0  0  0  0
   45.3775   15.1738  -14.9860 N   0  0  0  0  0  0  0  0  0  0  0  0
   44.8421   15.7505  -15.7189 H   0  0  0  0  0  0  0  0  0  0  0  0
   46.4606   15.8044  -14.2945 C   0  0  0  0  0  0  0  0  0  0  0  0
   46.2242   16.7503  -13.2083 C   0  0  0  0  0  0  0  0  0  0  0  0
   46.5301   18.0829  -13.3822 O   0  0  0  0  0  0  0  0  0  0  0  0
   47.3447   18.2725  -12.8537 H   0  0  0  0  0  0  0  0  0  0  0  0
   46.3699   16.3438  -11.7921 C   0  0  0  0  0  0  0  0  0  0  0  0
   47.2152   17.1202  -10.9345 N   0  0  0  0  0  0  0  0  0  0  0  0
   46.4202   17.4091   -9.7326 C   0  0  0  0  0  0  0  0  0  0  0  0
   47.2101   18.1090   -8.6853 C   0  0  0  0  0  0  0  0  0  0  0  0
   48.5973   18.0221   -8.9290 O   0  0  0  0  0  0  0  0  0  0  0  0
   48.8292   16.6643   -9.1443 C   0  0  0  0  0  0  0  0  0  0  0  0
   48.3877   16.3571  -10.5721 C   0  0  0  0  0  0  0  0  0  0  0  0
  1  2  1  0  0  0
  2  3  1  0  0  0
  3  4  1  0  0  0
  4  9  1  0  0  0
  9 10  2  0  0  0
 10 11  1  0  0  0
 11 12  2  0  0  0
 11 13  1  0  0  0
 13 14  1  0  0  0
 14 15  2  0  0  0
 15 16  1  0  0  0
 16 17  2  0  0  0
 17 18  1  0  0  0
 17 19  1  0  0  0
 19 20  2  0  0  0
  4  5  2  0  0  0
  5  6  1  0  0  0
  5  7  1  0  0  0
  7 22  1  0  0  0
 22 23  2  0  0  0
 22 24  1  0  0  0
 24 26  1  0  0  0
 26 27  1  0  0  0
 27 28  1  0  0  0
 27 30  1  0  0  0
 30 31  1  0  0  0
 31 32  1  0  0  0
 32 33  1  0  0  0
 33 34  1  0  0  0
 34 35  1  0  0  0
 35 36  1  0  0  0
  7  2  2  0  0  0
 36 31  1  0  0  0
 20 10  1  0  0  0
 20 14  1  0  0  0
  3  8  1  0  0  0
 13 21  1  0  0  0
 24 25  1  0  0  0
 28 29  1  0  0  0
M  END
> <minimizedAffinity>
-8.32965

> <CNNscore>
0.8832298517

> <CNNaffinity>
6.7098212242

> <CNN_VS>
5.9263143539

> <CNNaffinity_variance>
0.2912890017

$$$$
[H]O[C@@]([H])(C([H])([H])N([H])C(=O)c1c(C([H])([H])[H])c(/C([H])=C2\C(=O)N([H])c3c([H])c([H])c(F)c([H])c32)n([H])c1C([H])([H])[H])C([H])([H])N1C([H])([H])C([H])([H])OC([H])([H])C1([H])[H]


 36 39  0  0  0  0  0  0  0  0999 V2000
   44.8087   12.0957  -17.5136 C   0  0  0  0  0  0  0  0  0  0  0  0
   43.6893   12.4885  -16.6174 C   0  0  0  0  0  0  0  0  0  0  0  0
   42.3746   12.1268  -16.8135 N   0  0  0  0  0  0  0  0  0  0  0  0
   41.6297   12.6561  -15.8663 C   0  0  0  0  0  0  0  0  0  0  0  0
   42.4564   13.3667  -15.0479 C   0  0  0  0  0  0  0  0  0  0  0  0
   42.0530   14.1431  -13.8326 C   0  0  0  0  0  0  0  0  0  0  0  0
   43.8040   13.2779  -15.5069 C   0  0  0  0  0  0  0  0  0  0  0  0
   42.0849   11.5220  -17.6346 H   0  0  0  0  0  0  0  0  0  0  0  0
   40.2061   12.5273  -15.6646 C   0  0  0  0  0  0  0  0  0  0  0  0
   39.3609   11.9355  -16.4862 C   0  0  0  0  0  0  0  0  0  0  0  0
   39.6778   11.2880  -17.7504 C   0  0  0  0  0  0  0  0  0  0  0  0
   40.8086   11.1404  -18.2963 O   0  0  0  0  0  0  0  0  0  0  0  0
   38.4219   10.8342  -18.2692 N   0  0  0  0  0  0  0  0  0  0  0  0
   37.3595   11.1709  -17.3867 C   0  0  0  0  0  0  0  0  0  0  0  0
   35.9793   10.9572  -17.4337 C   0  0  0  0  0  0  0  0  0  0  0  0
   35.1743   11.4048  -16.4119 C   0  0  0  0  0  0  0  0  0  0  0  0
   35.6904   12.0695  -15.3214 C   0  0  0  0  0  0  0  0  0  0  0  0
   34.8806   12.5084  -14.3137 F   0  0  0  0  0  0  0  0  0  0  0  0
   37.0536   12.2661  -15.3014 C   0  0  0  0  0  0  0  0  0  0  0  0
   37.8970   11.8336  -16.3061 C   0  0  0  0  0  0  0  0  0  0  0  0
   38.3300   10.3294  -19.1715 H   0  0  0  0  0  0  0  0  0  0  0  0
   44.9189   13.8914  -14.8307 C   0  0  0  0  0  0  0  0  0  0  0  0
   45.5417   13.1779  -13.9757 O   0  0  0  0  0  0  0  0  0  0  0  0
   45.3905   15.1838  -15.0162 N   0  0  0  0  0  0  0  0  0  0  0  0
   44.8674   15.7495  -15.7664 H   0  0  0  0  0  0  0  0  0  0  0  0
   46.4866   15.8117  -14.3431 C   0  0  0  0  0  0  0  0  0  0  0  0
   46.3054   17.0349  -13.5674 C   0  0  0  0  0  0  0  0  0  0  0  0
   47.2491   18.0369  -13.6389 O   0  0  0  0  0  0  0  0  0  0  0  0
   47.7543   18.0308  -12.7882 H   0  0  0  0  0  0  0  0  0  0  0  0
   45.6414   17.0126  -12.2443 C   0  0  0  0  0  0  0  0  0  0  0  0
   44.8542   15.8704  -11.8861 N   0  0  0  0  0  0  0  0  0  0  0  0
   45.6468   15.1232  -10.8993 C   0  0  0  0  0  0  0  0  0  0  0  0
   44.9035   13.9661  -10.3343 C   0  0  0  0  0  0  0  0  0  0  0  0
   43.5198   14.0528  -10.5973 O   0  0  0  0  0  0  0  0  0  0  0  0
   43.1667   15.3376  -10.1874 C   0  0  0  0  0  0  0  0  0  0  0  0
   43.6080   16.2950  -11.2903 C   0  0  0  0  0  0  0  0  0  0  0  0
  1  2  1  0  0  0
  2  3  1  0  0  0
  3  4  1  0  0  0
  4  9  1  0  0  0
  9 10  2  0  0  0
 10 11  1  0  0  0
 11 12  2  0  0  0
 11 13  1  0  0  0
 13 14  1  0  0  0
 14 15  2  0  0  0
 15 16  1  0  0  0
 16 17  2  0  0  0
 17 18  1  0  0  0
 17 19  1  0  0  0
 19 20  2  0  0  0
  4  5  2  0  0  0
  5  6  1  0  0  0
  5  7  1  0  0  0
  7 22  1  0  0  0
 22 23  2  0  0  0
 22 24  1  0  0  0
 24 26  1  0  0  0
 26 27  1  0  0  0
 27 28  1  0  0  0
 27 30  1  0  0  0
 30 31  1  0  0  0
 31 32  1  0  0  0
 32 33  1  0  0  0
 33 34  1  0  0  0
 34 35  1  0  0  0
 35 36  1  0  0  0
  7  2  2  0  0  0
 36 31  1  0  0  0
 20 10  1  0  0  0
 20 14  1  0  0  0
  3  8  1  0  0  0
 13 21  1  0  0  0
 24 25  1  0  0  0
 28 29  1  0  0  0
M  END
> <minimizedAffinity>
-8.83807

> <CNNscore>
0.8716324568

> <CNNaffinity>
6.9945268631

> <CNN_VS>
6.0966567993

> <CNNaffinity_variance>
0.1907142997

$$$$
[H]O[C@@]([H])(C([H])([H])N([H])C(=O)c1c(C([H])([H])[H])c(/C([H])=C2\C(=O)N([H])c3c([H])c([H])c(F)c([H])c32)n([H])c1C([H])([H])[H])C([H])([H])N1C([H])([H])C([H])([H])OC([H])([H])C1([H])[H]


 36 39  0  0  0  0  0  0  0  0999 V2000
   44.5745   12.0465  -17.5144 C   0  0  0  0  0  0  0  0  0  0  0  0
   43.4763   12.4582  -16.6009 C   0  0  0  0  0  0  0  0  0  0  0  0
   42.1472   12.1552  -16.7991 N   0  0  0  0  0  0  0  0  0  0  0  0
   41.4288   12.6867  -15.8329 C   0  0  0  0  0  0  0  0  0  0  0  0
   42.2874   13.3401  -14.9997 C   0  0  0  0  0  0  0  0  0  0  0  0
   41.9215   14.0971  -13.7606 C   0  0  0  0  0  0  0  0  0  0  0  0
   43.6280   13.2105  -15.4692 C   0  0  0  0  0  0  0  0  0  0  0  0
   41.8293   11.5860  -17.6352 H   0  0  0  0  0  0  0  0  0  0  0  0
   40.0021   12.6093  -15.6262 C   0  0  0  0  0  0  0  0  0  0  0  0
   39.1445   11.9690  -16.3971 C   0  0  0  0  0  0  0  0  0  0  0  0
   39.4483   11.2077  -17.5997 C   0  0  0  0  0  0  0  0  0  0  0  0
   40.5762   10.9870  -18.1264 O   0  0  0  0  0  0  0  0  0  0  0  0
   38.1828   10.7405  -18.0822 N   0  0  0  0  0  0  0  0  0  0  0  0
   37.1272   11.1769  -17.2361 C   0  0  0  0  0  0  0  0  0  0  0  0
   35.7424   10.9926  -17.2698 C   0  0  0  0  0  0  0  0  0  0  0  0
   34.9464   11.5453  -16.2934 C   0  0  0  0  0  0  0  0  0  0  0  0
   35.4762   12.2892  -15.2622 C   0  0  0  0  0  0  0  0  0  0  0  0
   34.6754   12.8322  -14.2991 F   0  0  0  0  0  0  0  0  0  0  0  0
   36.8437   12.4546  -15.2540 C   0  0  0  0  0  0  0  0  0  0  0  0
   37.6784   11.9174  -16.2144 C   0  0  0  0  0  0  0  0  0  0  0  0
   38.0806   10.1622  -18.9381 H   0  0  0  0  0  0  0  0  0  0  0  0
   44.7700   13.7594  -14.7827 C   0  0  0  0  0  0  0  0  0  0  0  0
   45.0119   14.9994  -14.9608 O   0  0  0  0  0  0  0  0  0  0  0  0
   45.6369   13.0766  -13.9406 N   0  0  0  0  0  0  0  0  0  0  0  0
   45.3885   12.0422  -13.7831 H   0  0  0  0  0  0  0  0  0  0  0  0
   46.7824   13.6037  -13.2631 C   0  0  0  0  0  0  0  0  0  0  0  0
   47.9563   12.7787  -12.9948 C   0  0  0  0  0  0  0  0  0  0  0  0
   48.3740   11.8574  -13.9310 O   0  0  0  0  0  0  0  0  0  0  0  0
   48.1419   10.9588  -13.5881 H   0  0  0  0  0  0  0  0  0  0  0  0
   48.2864   12.3386  -11.6202 C   0  0  0  0  0  0  0  0  0  0  0  0
   47.9429   11.0063  -11.2208 N   0  0  0  0  0  0  0  0  0  0  0  0
   48.9435   10.6109  -10.2193 C   0  0  0  0  0  0  0  0  0  0  0  0
   48.6459    9.2864   -9.6131 C   0  0  0  0  0  0  0  0  0  0  0  0
   47.3183    8.8803   -9.8659 O   0  0  0  0  0  0  0  0  0  0  0  0
   46.5413    9.9756   -9.4914 C   0  0  0  0  0  0  0  0  0  0  0  0
   46.6257   10.9916  -10.6265 C   0  0  0  0  0  0  0  0  0  0  0  0
  1  2  1  0  0  0
  2  3  1  0  0  0
  3  4  1  0  0  0
  4  9  1  0  0  0
  9 10  2  0  0  0
 10 11  1  0  0  0
 11 12  2  0  0  0
 11 13  1  0  0  0
 13 14  1  0  0  0
 14 15  2  0  0  0
 15 16  1  0  0  0
 16 17  2  0  0  0
 17 18  1  0  0  0
 17 19  1  0  0  0
 19 20  2  0  0  0
  4  5  2  0  0  0
  5  6  1  0  0  0
  5  7  1  0  0  0
  7 22  1  0  0  0
 22 23  2  0  0  0
 22 24  1  0  0  0
 24 26  1  0  0  0
 26 27  1  0  0  0
 27 28  1  0  0  0
 27 30  1  0  0  0
 30 31  1  0  0  0
 31 32  1  0  0  0
 32 33  1  0  0  0
 33 34  1  0  0  0
 34 35  1  0  0  0
 35 36  1  0  0  0
  7  2  2  0  0  0
 36 31  1  0  0  0
 20 10  1  0  0  0
 20 14  1  0  0  0
  3  8  1  0  0  0
 13 21  1  0  0  0
 24 25  1  0  0  0
 28 29  1  0  0  0
M  END
> <minimizedAffinity>
-9.34537

> <CNNscore>
0.7883448601

> <CNNaffinity>
6.7768731117

> <CNN_VS>
5.3425130844

> <CNNaffinity_variance>
0.2495191991

$$$$
[H]O[C@@]([H])(C([H])([H])N([H])C(=O)c1c(C([H])([H])[H])c(/C([H])=C2\C(=O)N([H])c3c([H])c([H])c(F)c([H])c32)n([H])c1C([H])([H])[H])C([H])([H])N1C([H])([H])C([H])([H])OC([H])([H])C1([H])[H]


 36 39  0  0  0  0  0  0  0  0999 V2000
   44.4934   12.0599  -17.5274 C   0  0  0  0  0  0  0  0  0  0  0  0
   43.3964   12.4763  -16.6145 C   0  0  0  0  0  0  0  0  0  0  0  0
   42.0670   12.1722  -16.8094 N   0  0  0  0  0  0  0  0  0  0  0  0
   41.3499   12.7086  -15.8449 C   0  0  0  0  0  0  0  0  0  0  0  0
   42.2096   13.3664  -15.0163 C   0  0  0  0  0  0  0  0  0  0  0  0
   41.8454   14.1297  -13.7806 C   0  0  0  0  0  0  0  0  0  0  0  0
   43.5496   13.2343  -15.4870 C   0  0  0  0  0  0  0  0  0  0  0  0
   41.7481   11.5987  -17.6421 H   0  0  0  0  0  0  0  0  0  0  0  0
   39.9235   12.6323  -15.6359 C   0  0  0  0  0  0  0  0  0  0  0  0
   39.0677   11.9701  -16.3900 C   0  0  0  0  0  0  0  0  0  0  0  0
   39.3735   11.1793  -17.5729 C   0  0  0  0  0  0  0  0  0  0  0  0
   40.5019   10.9487  -18.0942 O   0  0  0  0  0  0  0  0  0  0  0  0
   38.1093   10.6963  -18.0431 N   0  0  0  0  0  0  0  0  0  0  0  0
   37.0525   11.1509  -17.2080 C   0  0  0  0  0  0  0  0  0  0  0  0
   35.6683   10.9616  -17.2366 C   0  0  0  0  0  0  0  0  0  0  0  0
   34.8709   11.5366  -16.2743 C   0  0  0  0  0  0  0  0  0  0  0  0
   35.3987   12.3081  -15.2626 C   0  0  0  0  0  0  0  0  0  0  0  0
   34.5964   12.8730  -14.3134 F   0  0  0  0  0  0  0  0  0  0  0  0
   36.7657   12.4777  -15.2590 C   0  0  0  0  0  0  0  0  0  0  0  0
   37.6018   11.9188  -16.2057 C   0  0  0  0  0  0  0  0  0  0  0  0
   38.0085   10.0960  -18.8840 H   0  0  0  0  0  0  0  0  0  0  0  0
   44.6925   13.7868  -14.8049 C   0  0  0  0  0  0  0  0  0  0  0  0
   45.0994   14.9328  -15.1910 O   0  0  0  0  0  0  0  0  0  0  0  0
   45.3986   13.2004  -13.7634 N   0  0  0  0  0  0  0  0  0  0  0  0
   45.0123   12.2512  -13.4373 H   0  0  0  0  0  0  0  0  0  0  0  0
   46.5429   13.7294  -13.0855 C   0  0  0  0  0  0  0  0  0  0  0  0
   46.4075   14.5380  -11.8778 C   0  0  0  0  0  0  0  0  0  0  0  0
   46.4528   13.9330  -10.6403 O   0  0  0  0  0  0  0  0  0  0  0  0
   45.5326   13.9298  -10.2769 H   0  0  0  0  0  0  0  0  0  0  0  0
   45.5532   15.7471  -11.8562 C   0  0  0  0  0  0  0  0  0  0  0  0
   45.9697   16.8999  -12.5978 N   0  0  0  0  0  0  0  0  0  0  0  0
   44.9764   17.9459  -12.3158 C   0  0  0  0  0  0  0  0  0  0  0  0
   45.3427   19.2534  -12.9214 C   0  0  0  0  0  0  0  0  0  0  0  0
   46.6971   19.2875  -13.3160 O   0  0  0  0  0  0  0  0  0  0  0  0
   47.3987   18.8522  -12.1927 C   0  0  0  0  0  0  0  0  0  0  0  0
   47.2739   17.3322  -12.1500 C   0  0  0  0  0  0  0  0  0  0  0  0
  1  2  1  0  0  0
  2  3  1  0  0  0
  3  4  1  0  0  0
  4  9  1  0  0  0
  9 10  2  0  0  0
 10 11  1  0  0  0
 11 12  2  0  0  0
 11 13  1  0  0  0
 13 14  1  0  0  0
 14 15  2  0  0  0
 15 16  1  0  0  0
 16 17  2  0  0  0
 17 18  1  0  0  0
 17 19  1  0  0  0
 19 20  2  0  0  0
  4  5  2  0  0  0
  5  6  1  0  0  0
  5  7  1  0  0  0
  7 22  1  0  0  0
 22 23  2  0  0  0
 22 24  1  0  0  0
 24 26  1  0  0  0
 26 27  1  0  0  0
 27 28  1  0  0  0
 27 30  1  0  0  0
 30 31  1  0  0  0
 31 32  1  0  0  0
 32 33  1  0  0  0
 33 34  1  0  0  0
 34 35  1  0  0  0
 35 36  1  0  0  0
  7  2  2  0  0  0
 36 31  1  0  0  0
 20 10  1  0  0  0
 20 14  1  0  0  0
  3  8  1  0  0  0
 13 21  1  0  0  0
 24 25  1  0  0  0
 28 29  1  0  0  0
M  END
> <minimizedAffinity>
-8.96360

> <CNNscore>
0.7648271918

> <CNNaffinity>
6.8192267418

> <CNN_VS>
5.2155299187

> <CNNaffinity_variance>
0.2761266828

$$$$
[H]O[C@@]([H])(C([H])([H])N([H])C(=O)c1c(C([H])([H])[H])c(/C([H])=C2\C(=O)N([H])c3c([H])c([H])c(F)c([H])c32)n([H])c1C([H])([H])[H])C([H])([H])N1C([H])([H])C([H])([H])OC([H])([H])C1([H])[H]


 36 39  0  0  0  0  0  0  0  0999 V2000
   44.6397   12.3503  -16.9414 C   0  0  0  0  0  0  0  0  0  0  0  0
   43.4507   12.7460  -16.1414 C   0  0  0  0  0  0  0  0  0  0  0  0
   42.1677   12.3105  -16.3905 N   0  0  0  0  0  0  0  0  0  0  0  0
   41.3430   12.8632  -15.5266 C   0  0  0  0  0  0  0  0  0  0  0  0
   42.0854   13.6632  -14.7098 C   0  0  0  0  0  0  0  0  0  0  0  0
   41.5737   14.4956  -13.5750 C   0  0  0  0  0  0  0  0  0  0  0  0
   43.4615   13.6093  -15.0812 C   0  0  0  0  0  0  0  0  0  0  0  0
   41.9563   11.6413  -17.1852 H   0  0  0  0  0  0  0  0  0  0  0  0
   39.9165   12.6801  -15.4014 C   0  0  0  0  0  0  0  0  0  0  0  0
   39.1435   12.0369  -16.2548 C   0  0  0  0  0  0  0  0  0  0  0  0
   39.5571   11.3765  -17.4840 C   0  0  0  0  0  0  0  0  0  0  0  0
   40.7219   11.2642  -17.9624 O   0  0  0  0  0  0  0  0  0  0  0  0
   38.3516   10.8605  -18.0611 N   0  0  0  0  0  0  0  0  0  0  0  0
   37.2284   11.1716  -17.2472 C   0  0  0  0  0  0  0  0  0  0  0  0
   35.8628   10.9002  -17.3659 C   0  0  0  0  0  0  0  0  0  0  0  0
   34.9840   11.3356  -16.4012 C   0  0  0  0  0  0  0  0  0  0  0  0
   35.4106   12.0439  -15.2995 C   0  0  0  0  0  0  0  0  0  0  0  0
   34.5282   12.4701  -14.3489 F   0  0  0  0  0  0  0  0  0  0  0  0
   36.7616   12.2968  -15.2083 C   0  0  0  0  0  0  0  0  0  0  0  0
   37.6771   11.8784  -16.1541 C   0  0  0  0  0  0  0  0  0  0  0  0
   38.3312   10.3334  -18.9552 H   0  0  0  0  0  0  0  0  0  0  0  0
   44.5044   14.3171  -14.3825 C   0  0  0  0  0  0  0  0  0  0  0  0
   44.6319   14.0779  -13.1357 O   0  0  0  0  0  0  0  0  0  0  0  0
   45.3918   15.2344  -14.9285 N   0  0  0  0  0  0  0  0  0  0  0  0
   45.2823   15.3902  -15.9868 H   0  0  0  0  0  0  0  0  0  0  0  0
   46.4229   15.9554  -14.2458 C   0  0  0  0  0  0  0  0  0  0  0  0
   47.8355   15.6791  -14.4887 C   0  0  0  0  0  0  0  0  0  0  0  0
   48.3549   15.8322  -15.7561 O   0  0  0  0  0  0  0  0  0  0  0  0
   48.5117   14.9274  -16.1246 H   0  0  0  0  0  0  0  0  0  0  0  0
   48.5508   14.6234  -13.7364 C   0  0  0  0  0  0  0  0  0  0  0  0
   47.8251   13.8500  -12.7731 N   0  0  0  0  0  0  0  0  0  0  0  0
   47.7577   12.4852  -13.3143 C   0  0  0  0  0  0  0  0  0  0  0  0
   47.1365   11.5277  -12.3616 C   0  0  0  0  0  0  0  0  0  0  0  0
   47.0793   12.0527  -11.0530 O   0  0  0  0  0  0  0  0  0  0  0  0
   48.3751   12.5005  -10.7999 C   0  0  0  0  0  0  0  0  0  0  0  0
   48.5313   13.8405  -11.5123 C   0  0  0  0  0  0  0  0  0  0  0  0
  1  2  1  0  0  0
  2  3  1  0  0  0
  3  4  1  0  0  0
  4  9  1  0  0  0
  9 10  2  0  0  0
 10 11  1  0  0  0
 11 12  2  0  0  0
 11 13  1  0  0  0
 13 14  1  0  0  0
 14 15  2  0  0  0
 15 16  1  0  0  0
 16 17  2  0  0  0
 17 18  1  0  0  0
 17 19  1  0  0  0
 19 20  2  0  0  0
  4  5  2  0  0  0
  5  6  1  0  0  0
  5  7  1  0  0  0
  7 22  1  0  0  0
 22 23  2  0  0  0
 22 24  1  0  0  0
 24 26  1  0  0  0
 26 27  1  0  0  0
 27 28  1  0  0  0
 27 30  1  0  0  0
 30 31  1  0  0  0
 31 32  1  0  0  0
 32 33  1  0  0  0
 33 34  1  0  0  0
 34 35  1  0  0  0
 35 36  1  0  0  0
  7  2  2  0  0  0
 36 31  1  0  0  0
 20 10  1  0  0  0
 20 14  1  0  0  0
  3  8  1  0  0  0
 13 21  1  0  0  0
 24 25  1  0  0  0
 28 29  1  0  0  0
M  END
> <minimizedAffinity>
-8.64456

> <CNNscore>
0.7384432554

> <CNNaffinity>
6.7835335732

> <CNN_VS>
5.0092544556

> <CNNaffinity_variance>
0.3449824154

$$$$
[H]O[C@@]([H])(C([H])([H])N([H])C(=O)c1c(C([H])([H])[H])c(/C([H])=C2\C(=O)N([H])c3c([H])c([H])c(F)c([H])c32)n([H])c1C([H])([H])[H])C([H])([H])N1C([H])([H])C([H])([H])OC([H])([H])C1([H])[H]


 36 39  0  0  0  0  0  0  0  0999 V2000
   43.8482   11.9893  -16.9944 C   0  0  0  0  0  0  0  0  0  0  0  0
   42.7047   12.4935  -16.1891 C   0  0  0  0  0  0  0  0  0  0  0  0
   41.3943   12.1134  -16.3790 N   0  0  0  0  0  0  0  0  0  0  0  0
   40.6244   12.7583  -15.5284 C   0  0  0  0  0  0  0  0  0  0  0  0
   41.4304   13.5634  -14.7797 C   0  0  0  0  0  0  0  0  0  0  0  0
   40.9953   14.4861  -13.6835 C   0  0  0  0  0  0  0  0  0  0  0  0
   42.7906   13.4148  -15.1825 C   0  0  0  0  0  0  0  0  0  0  0  0
   41.1258   11.4116  -17.1269 H   0  0  0  0  0  0  0  0  0  0  0  0
   39.1945   12.6591  -15.3561 C   0  0  0  0  0  0  0  0  0  0  0  0
   38.3712   11.9694  -16.1216 C   0  0  0  0  0  0  0  0  0  0  0  0
   38.7227   11.1657  -17.2829 C   0  0  0  0  0  0  0  0  0  0  0  0
   39.8687   10.9476  -17.7703 O   0  0  0  0  0  0  0  0  0  0  0  0
   37.4805   10.6521  -17.7785 N   0  0  0  0  0  0  0  0  0  0  0  0
   36.3937   11.1004  -16.9792 C   0  0  0  0  0  0  0  0  0  0  0  0
   35.0144   10.8853  -17.0414 C   0  0  0  0  0  0  0  0  0  0  0  0
   34.1813   11.4608  -16.1101 C   0  0  0  0  0  0  0  0  0  0  0  0
   34.6679   12.2578  -15.0975 C   0  0  0  0  0  0  0  0  0  0  0  0
   33.8304   12.8229  -14.1793 F   0  0  0  0  0  0  0  0  0  0  0  0
   36.0310   12.4526  -15.0605 C   0  0  0  0  0  0  0  0  0  0  0  0
   36.9020   11.8941  -15.9754 C   0  0  0  0  0  0  0  0  0  0  0  0
   37.4131   10.0368  -18.6118 H   0  0  0  0  0  0  0  0  0  0  0  0
   43.8884   14.1051  -14.5539 C   0  0  0  0  0  0  0  0  0  0  0  0
   44.6574   14.7831  -15.3135 O   0  0  0  0  0  0  0  0  0  0  0  0
   44.1959   14.1121  -13.2002 N   0  0  0  0  0  0  0  0  0  0  0  0
   43.5113   13.5603  -12.5812 H   0  0  0  0  0  0  0  0  0  0  0  0
   45.2895   14.7807  -12.5629 C   0  0  0  0  0  0  0  0  0  0  0  0
   46.2282   14.0619  -11.7069 C   0  0  0  0  0  0  0  0  0  0  0  0
   47.1033   13.1533  -12.2621 O   0  0  0  0  0  0  0  0  0  0  0  0
   46.7861   12.2482  -12.0191 H   0  0  0  0  0  0  0  0  0  0  0  0
   45.8691   13.6870  -10.3203 C   0  0  0  0  0  0  0  0  0  0  0  0
   44.6243   14.1478   -9.7810 N   0  0  0  0  0  0  0  0  0  0  0  0
   43.9954   12.9778   -9.1517 C   0  0  0  0  0  0  0  0  0  0  0  0
   42.7416   13.3264   -8.4328 C   0  0  0  0  0  0  0  0  0  0  0  0
   42.6293   14.7167   -8.2183 O   0  0  0  0  0  0  0  0  0  0  0  0
   43.8486   15.0813   -7.6492 C   0  0  0  0  0  0  0  0  0  0  0  0
   44.8633   15.1677   -8.7853 C   0  0  0  0  0  0  0  0  0  0  0  0
  1  2  1  0  0  0
  2  3  1  0  0  0
  3  4  1  0  0  0
  4  9  1  0  0  0
  9 10  2  0  0  0
 10 11  1  0  0  0
 11 12  2  0  0  0
 11 13  1  0  0  0
 13 14  1  0  0  0
 14 15  2  0  0  0
 15 16  1  0  0  0
 16 17  2  0  0  0
 17 18  1  0  0  0
 17 19  1  0  0  0
 19 20  2  0  0  0
  4  5  2  0  0  0
  5  6  1  0  0  0
  5  7  1  0  0  0
  7 22  1  0  0  0
 22 23  2  0  0  0
 22 24  1  0  0  0
 24 26  1  0  0  0
 26 27  1  0  0  0
 27 28  1  0  0  0
 27 30  1  0  0  0
 30 31  1  0  0  0
 31 32  1  0  0  0
 32 33  1  0  0  0
 33 34  1  0  0  0
 34 35  1  0  0  0
 35 36  1  0  0  0
  7  2  2  0  0  0
 36 31  1  0  0  0
 20 10  1  0  0  0
 20 14  1  0  0  0
  3  8  1  0  0  0
 13 21  1  0  0  0
 24 25  1  0  0  0
 28 29  1  0  0  0
M  END
> <minimizedAffinity>
-8.30009

> <CNNscore>
0.6787315607

> <CNNaffinity>
6.8077216148

> <CNN_VS>
4.6206154823

> <CNNaffinity_variance>
0.2460395098

$$$$
[H]O[C@@]([H])(C([H])([H])N([H])C(=O)c1c(C([H])([H])[H])c(/C([H])=C2\C(=O)N([H])c3c([H])c([H])c(F)c([H])c32)n([H])c1C([H])([H])[H])C([H])([H])N1C([H])([H])C([H])([H])OC([H])([H])C1([H])[H]


 36 39  0  0  0  0  0  0  0  0999 V2000
   39.1282   16.4028  -10.4926 C   0  0  0  0  0  0  0  0  0  0  0  0
   38.4107   15.3922  -11.3138 C   0  0  0  0  0  0  0  0  0  0  0  0
   38.8863   14.8757  -12.4989 N   0  0  0  0  0  0  0  0  0  0  0  0
   38.0064   14.0302  -12.9918 C   0  0  0  0  0  0  0  0  0  0  0  0
   36.9513   13.9922  -12.1294 C   0  0  0  0  0  0  0  0  0  0  0  0
   35.7097   13.1685  -12.2782 C   0  0  0  0  0  0  0  0  0  0  0  0
   37.1822   14.8657  -11.0256 C   0  0  0  0  0  0  0  0  0  0  0  0
   39.8234   15.1744  -12.8948 H   0  0  0  0  0  0  0  0  0  0  0  0
   38.0931   13.2443  -14.1996 C   0  0  0  0  0  0  0  0  0  0  0  0
   39.1630   13.1136  -14.9598 C   0  0  0  0  0  0  0  0  0  0  0  0
   40.4690   13.7182  -14.7437 C   0  0  0  0  0  0  0  0  0  0  0  0
   40.8452   14.4565  -13.7887 O   0  0  0  0  0  0  0  0  0  0  0  0
   41.2697   13.2984  -15.8551 N   0  0  0  0  0  0  0  0  0  0  0  0
   40.5194   12.4703  -16.7339 C   0  0  0  0  0  0  0  0  0  0  0  0
   40.8343   11.8216  -17.9308 C   0  0  0  0  0  0  0  0  0  0  0  0
   39.8844   11.0676  -18.5803 C   0  0  0  0  0  0  0  0  0  0  0  0
   38.6078   10.9260  -18.0828 C   0  0  0  0  0  0  0  0  0  0  0  0
   37.6743   10.1746  -18.7369 F   0  0  0  0  0  0  0  0  0  0  0  0
   38.3254   11.5762  -16.9017 C   0  0  0  0  0  0  0  0  0  0  0  0
   39.2490   12.3428  -16.2184 C   0  0  0  0  0  0  0  0  0  0  0  0
   42.2622   13.5770  -15.9765 H   0  0  0  0  0  0  0  0  0  0  0  0
   36.2660   15.0176   -9.9236 C   0  0  0  0  0  0  0  0  0  0  0  0
   36.4299   14.2428   -8.9232 O   0  0  0  0  0  0  0  0  0  0  0  0
   35.2203   15.9262   -9.8353 N   0  0  0  0  0  0  0  0  0  0  0  0
   35.1278   16.5879  -10.6779 H   0  0  0  0  0  0  0  0  0  0  0  0
   34.2941   16.0799   -8.7548 C   0  0  0  0  0  0  0  0  0  0  0  0
   34.5097   17.0655   -7.7000 C   0  0  0  0  0  0  0  0  0  0  0  0
   33.5139   17.9672   -7.3918 O   0  0  0  0  0  0  0  0  0  0  0  0
   33.7930   18.8496   -7.7415 H   0  0  0  0  0  0  0  0  0  0  0  0
   35.8519   17.6367   -7.4468 C   0  0  0  0  0  0  0  0  0  0  0  0
   36.0745   19.0250   -7.7220 N   0  0  0  0  0  0  0  0  0  0  0  0
   36.3358   19.6607   -6.4229 C   0  0  0  0  0  0  0  0  0  0  0  0
   36.7112   21.0929   -6.5580 C   0  0  0  0  0  0  0  0  0  0  0  0
   37.0713   21.4179   -7.8832 O   0  0  0  0  0  0  0  0  0  0  0  0
   38.0058   20.4465   -8.2388 C   0  0  0  0  0  0  0  0  0  0  0  0
   37.2255   19.1810   -8.5819 C   0  0  0  0  0  0  0  0  0  0  0  0
  1  2  1  0  0  0
  2  3  1  0  0  0
  3  4  1  0  0  0
  4  9  1  0  0  0
  9 10  2  0  0  0
 10 11  1  0  0  0
 11 12  2  0  0  0
 11 13  1  0  0  0
 13 14  1  0  0  0
 14 15  2  0  0  0
 15 16  1  0  0  0
 16 17  2  0  0  0
 17 18  1  0  0  0
 17 19  1  0  0  0
 19 20  2  0  0  0
  4  5  2  0  0  0
  5  6  1  0  0  0
  5  7  1  0  0  0
  7 22  1  0  0  0
 22 23  2  0  0  0
 22 24  1  0  0  0
 24 26  1  0  0  0
 26 27  1  0  0  0
 27 28  1  0  0  0
 27 30  1  0  0  0
 30 31  1  0  0  0
 31 32  1  0  0  0
 32 33  1  0  0  0
 33 34  1  0  0  0
 34 35  1  0  0  0
 35 36  1  0  0  0
  7  2  2  0  0  0
 36 31  1  0  0  0
 20 10  1  0  0  0
 20 14  1  0  0  0
  3  8  1  0  0  0
 13 21  1  0  0  0
 24 25  1  0  0  0
 28 29  1  0  0  0
M  END
> <minimizedAffinity>
-9.24305

> <CNNscore>
0.5000809431

> <CNNaffinity>
6.2887430191

> <CNN_VS>
3.1448805332

> <CNNaffinity_variance>
0.2544036508

$$$$
[H]O[C@@]([H])(C([H])([H])N([H])C(=O)c1c(C([H])([H])[H])c(/C([H])=C2\C(=O)N([H])c3c([H])c([H])c(F)c([H])c32)n([H])c1C([H])([H])[H])C([H])([H])N1C([H])([H])C([H])([H])OC([H])([H])C1([H])[H]


 36 39  0  0  0  0  0  0  0  0999 V2000
   32.8826   15.4868  -11.8621 C   0  0  0  0  0  0  0  0  0  0  0  0
   34.2784   15.0586  -12.1430 C   0  0  0  0  0  0  0  0  0  0  0  0
   34.7048   14.5441  -13.3477 N   0  0  0  0  0  0  0  0  0  0  0  0
   35.9816   14.2363  -13.2642 C   0  0  0  0  0  0  0  0  0  0  0  0
   36.3938   14.5485  -12.0028 C   0  0  0  0  0  0  0  0  0  0  0  0
   37.7729   14.3694  -11.4475 C   0  0  0  0  0  0  0  0  0  0  0  0
   35.3107   15.0872  -11.2470 C   0  0  0  0  0  0  0  0  0  0  0  0
   34.0406   14.4323  -14.1664 H   0  0  0  0  0  0  0  0  0  0  0  0
   36.8436   13.6902  -14.2854 C   0  0  0  0  0  0  0  0  0  0  0  0
   36.5127   12.7561  -15.1557 C   0  0  0  0  0  0  0  0  0  0  0  0
   35.2243   12.0902  -15.2771 C   0  0  0  0  0  0  0  0  0  0  0  0
   34.1721   12.2853  -14.6039 O   0  0  0  0  0  0  0  0  0  0  0  0
   35.3848   11.1453  -16.3419 N   0  0  0  0  0  0  0  0  0  0  0  0
   36.7018   11.2028  -16.8740 C   0  0  0  0  0  0  0  0  0  0  0  0
   37.3457   10.5037  -17.8984 C   0  0  0  0  0  0  0  0  0  0  0  0
   38.6592   10.7763  -18.2032 C   0  0  0  0  0  0  0  0  0  0  0  0
   39.3774   11.7334  -17.5210 C   0  0  0  0  0  0  0  0  0  0  0  0
   40.6804   11.9947  -17.8335 F   0  0  0  0  0  0  0  0  0  0  0  0
   38.7177   12.4069  -16.5166 C   0  0  0  0  0  0  0  0  0  0  0  0
   37.4008   12.1639  -16.1786 C   0  0  0  0  0  0  0  0  0  0  0  0
   34.6238   10.5158  -16.6612 H   0  0  0  0  0  0  0  0  0  0  0  0
   35.4386   15.5491   -9.8880 C   0  0  0  0  0  0  0  0  0  0  0  0
   35.5687   14.6587   -8.9834 O   0  0  0  0  0  0  0  0  0  0  0  0
   35.4386   16.8692   -9.4585 N   0  0  0  0  0  0  0  0  0  0  0  0
   35.3615   17.5976  -10.2458 H   0  0  0  0  0  0  0  0  0  0  0  0
   35.5506   17.3432   -8.1125 C   0  0  0  0  0  0  0  0  0  0  0  0
   34.4106   17.3274   -7.2011 C   0  0  0  0  0  0  0  0  0  0  0  0
   33.5780   18.4233   -7.1273 O   0  0  0  0  0  0  0  0  0  0  0  0
   33.7647   18.8814   -6.2704 H   0  0  0  0  0  0  0  0  0  0  0  0
   34.4724   16.6088   -5.9081 C   0  0  0  0  0  0  0  0  0  0  0  0
   35.4258   15.5509   -5.7512 N   0  0  0  0  0  0  0  0  0  0  0  0
   36.1762   15.8579   -4.5253 C   0  0  0  0  0  0  0  0  0  0  0  0
   37.1281   14.7766   -4.1577 C   0  0  0  0  0  0  0  0  0  0  0  0
   36.8495   13.5764   -4.8457 O   0  0  0  0  0  0  0  0  0  0  0  0
   35.4870   13.3648   -4.6400 C   0  0  0  0  0  0  0  0  0  0  0  0
   34.7422   14.2865   -5.6009 C   0  0  0  0  0  0  0  0  0  0  0  0
  1  2  1  0  0  0
  2  3  1  0  0  0
  3  4  1  0  0  0
  4  9  1  0  0  0
  9 10  2  0  0  0
 10 11  1  0  0  0
 11 12  2  0  0  0
 11 13  1  0  0  0
 13 14  1  0  0  0
 14 15  2  0  0  0
 15 16  1  0  0  0
 16 17  2  0  0  0
 17 18  1  0  0  0
 17 19  1  0  0  0
 19 20  2  0  0  0
  4  5  2  0  0  0
  5  6  1  0  0  0
  5  7  1  0  0  0
  7 22  1  0  0  0
 22 23  2  0  0  0
 22 24  1  0  0  0
 24 26  1  0  0  0
 26 27  1  0  0  0
 27 28  1  0  0  0
 27 30  1  0  0  0
 30 31  1  0  0  0
 31 32  1  0  0  0
 32 33  1  0  0  0
 33 34  1  0  0  0
 34 35  1  0  0  0
 35 36  1  0  0  0
  7  2  2  0  0  0
 36 31  1  0  0  0
 20 10  1  0  0  0
 20 14  1  0  0  0
  3  8  1  0  0  0
 13 21  1  0  0  0
 24 25  1  0  0  0
 28 29  1  0  0  0
M  END
> <minimizedAffinity>
-8.85512

> <CNNscore>
0.3454539776

> <CNNaffinity>
6.2082910538

> <CNN_VS>
2.1446788311

> <CNNaffinity_variance>
0.1448918283

$$$$
[H]O[C@@]([H])(C([H])([H])N([H])C(=O)c1c(C([H])([H])[H])c(/C([H])=C2\C(=O)N([H])c3c([H])c([H])c(F)c([H])c32)n([H])c1C([H])([H])[H])C([H])([H])N1C([H])([H])C([H])([H])OC([H])([H])C1([H])[H]


 36 39  0  0  0  0  0  0  0  0999 V2000
   39.2158   16.4291  -10.5307 C   0  0  0  0  0  0  0  0  0  0  0  0
   38.4730   15.4282  -11.3411 C   0  0  0  0  0  0  0  0  0  0  0  0
   38.9371   14.8845  -12.5187 N   0  0  0  0  0  0  0  0  0  0  0  0
   38.0356   14.0570  -13.0033 C   0  0  0  0  0  0  0  0  0  0  0  0
   36.9781   14.0582  -12.1431 C   0  0  0  0  0  0  0  0  0  0  0  0
   35.7150   13.2664  -12.2849 C   0  0  0  0  0  0  0  0  0  0  0  0
   37.2301   14.9387  -11.0495 C   0  0  0  0  0  0  0  0  0  0  0  0
   39.8827   15.1529  -12.9159 H   0  0  0  0  0  0  0  0  0  0  0  0
   38.1037   13.2542  -14.2012 C   0  0  0  0  0  0  0  0  0  0  0  0
   39.1566   13.1259  -14.9851 C   0  0  0  0  0  0  0  0  0  0  0  0
   40.4593   13.7506  -14.8097 C   0  0  0  0  0  0  0  0  0  0  0  0
   40.8485   14.5079  -13.8751 O   0  0  0  0  0  0  0  0  0  0  0  0
   41.2384   13.3245  -15.9339 N   0  0  0  0  0  0  0  0  0  0  0  0
   40.4783   12.4736  -16.7819 C   0  0  0  0  0  0  0  0  0  0  0  0
   40.7728   11.8111  -17.9765 C   0  0  0  0  0  0  0  0  0  0  0  0
   39.8177   11.0352  -18.5915 C   0  0  0  0  0  0  0  0  0  0  0  0
   38.5554   10.8846  -18.0611 C   0  0  0  0  0  0  0  0  0  0  0  0
   37.6166   10.1114  -18.6812 F   0  0  0  0  0  0  0  0  0  0  0  0
   38.2930   11.5488  -16.8832 C   0  0  0  0  0  0  0  0  0  0  0  0
   39.2225   12.3374  -16.2339 C   0  0  0  0  0  0  0  0  0  0  0  0
   42.2240   13.6140  -16.0835 H   0  0  0  0  0  0  0  0  0  0  0  0
   36.3161   15.1287   -9.9518 C   0  0  0  0  0  0  0  0  0  0  0  0
   36.2337   14.1854   -9.0966 O   0  0  0  0  0  0  0  0  0  0  0  0
   35.5140   16.2388   -9.7248 N   0  0  0  0  0  0  0  0  0  0  0  0
   35.6296   17.0309  -10.4428 H   0  0  0  0  0  0  0  0  0  0  0  0
   34.5918   16.4366   -8.6480 C   0  0  0  0  0  0  0  0  0  0  0  0
   34.9372   17.2532   -7.4885 C   0  0  0  0  0  0  0  0  0  0  0  0
   34.5522   18.5759   -7.4436 O   0  0  0  0  0  0  0  0  0  0  0  0
   35.3615   19.1263   -7.5886 H   0  0  0  0  0  0  0  0  0  0  0  0
   36.1972   17.0326   -6.7430 C   0  0  0  0  0  0  0  0  0  0  0  0
   36.4344   15.7488   -6.1529 N   0  0  0  0  0  0  0  0  0  0  0  0
   37.8741   15.4928   -6.3004 C   0  0  0  0  0  0  0  0  0  0  0  0
   38.3000   14.2416   -5.6195 C   0  0  0  0  0  0  0  0  0  0  0  0
   37.3246   13.7818   -4.7093 O   0  0  0  0  0  0  0  0  0  0  0  0
   37.0226   14.8970   -3.9290 C   0  0  0  0  0  0  0  0  0  0  0  0
   36.0849   15.7760   -4.7509 C   0  0  0  0  0  0  0  0  0  0  0  0
  1  2  1  0  0  0
  2  3  1  0  0  0
  3  4  1  0  0  0
  4  9  1  0  0  0
  9 10  2  0  0  0
 10 11  1  0  0  0
 11 12  2  0  0  0
 11 13  1  0  0  0
 13 14  1  0  0  0
 14 15  2  0  0  0
 15 16  1  0  0  0
 16 17  2  0  0  0
 17 18  1  0  0  0
 17 19  1  0  0  0
 19 20  2  0  0  0
  4  5  2  0  0  0
  5  6  1  0  0  0
  5  7  1  0  0  0
  7 22  1  0  0  0
 22 23  2  0  0  0
 22 24  1  0  0  0
 24 26  1  0  0  0
 26 27  1  0  0  0
 27 28  1  0  0  0
 27 30  1  0  0  0
 30 31  1  0  0  0
 31 32  1  0  0  0
 32 33  1  0  0  0
 33 34  1  0  0  0
 34 35  1  0  0  0
 35 36  1  0  0  0
  7  2  2  0  0  0
 36 31  1  0  0  0
 20 10  1  0  0  0
 20 14  1  0  0  0
  3  8  1  0  0  0
 13 21  1  0  0  0
 24 25  1  0  0  0
 28 29  1  0  0  0
M  END
> <minimizedAffinity>
-9.27134

> <CNNscore>
0.2896406949

> <CNNaffinity>
5.9078125954

> <CNN_VS>
1.7111428976

> <CNNaffinity_variance>
0.2594555914

$$$$
[H]c1nc(N([H])c2c([H])c([H])c(C(=O)N([H])C3([H])C([H])([H])C3([H])[H])c([H])c2OC([H])([H])[H])nc(N([H])c2c([H])c([H])c([H])c([H])c2S(=O)(=O)C([H])(C([H])([H])[H])C([H])([H])[H])c1Cl


 38 41  0  0  0  0  0  0  0  0999 V2000
   35.9985   14.2376  -13.8701 C   0  0  0  0  0  0  0  0  0  0  0  0
   34.7939   13.8955  -14.3245 N   0  0  0  0  0  0  0  0  0  0  0  0
   34.5994   12.8560  -15.1381 C   0  0  0  0  0  0  0  0  0  0  0  0
   35.6933   12.1127  -15.5177 C   0  0  0  0  0  0  0  0  0  0  0  0
   35.5021   10.7397  -16.5825 Cl  0  0  0  0  0  0  0  0  0  0  0  0
   36.9982   12.4203  -15.0729 C   0  0  0  0  0  0  0  0  0  0  0  0
   37.0660   13.4766  -14.2677 N   0  0  0  0  0  0  0  0  0  0  0  0
   36.2869   15.3033  -13.0192 N   0  0  0  0  0  0  0  0  0  0  0  0
   36.1816   16.2768  -13.4616 H   0  0  0  0  0  0  0  0  0  0  0  0
   38.0667   15.4574  -11.4012 C   0  0  0  0  0  0  0  0  0  0  0  0
   38.5155   15.3914  -10.1254 C   0  0  0  0  0  0  0  0  0  0  0  0
   37.7347   15.1103   -9.0312 C   0  0  0  0  0  0  0  0  0  0  0  0
   36.4039   14.8837   -9.2814 C   0  0  0  0  0  0  0  0  0  0  0  0
   35.8916   14.9423  -10.5981 C   0  0  0  0  0  0  0  0  0  0  0  0
   36.6930   15.2250  -11.6714 C   0  0  0  0  0  0  0  0  0  0  0  0
   38.2368   15.0471   -7.6687 C   0  0  0  0  0  0  0  0  0  0  0  0
   37.7767   15.9651   -6.9014 O   0  0  0  0  0  0  0  0  0  0  0  0
   39.1403   14.0858   -7.2049 N   0  0  0  0  0  0  0  0  0  0  0  0
   39.4967   13.3546   -7.8516 H   0  0  0  0  0  0  0  0  0  0  0  0
   39.6038   14.0740   -5.8358 C   0  0  0  0  0  0  0  0  0  0  0  0
   40.9130   13.4633   -5.4590 C   0  0  0  0  0  0  0  0  0  0  0  0
   40.7417   14.9396   -5.4102 C   0  0  0  0  0  0  0  0  0  0  0  0
   40.2720   15.8083  -12.4280 C   0  0  0  0  0  0  0  0  0  0  0  0
   38.8809   15.7437  -12.4848 O   0  0  0  0  0  0  0  0  0  0  0  0
   38.0567   11.6004  -15.4982 N   0  0  0  0  0  0  0  0  0  0  0  0
   38.4467   10.9234  -14.7881 H   0  0  0  0  0  0  0  0  0  0  0  0
   38.6302   11.5853  -16.7646 C   0  0  0  0  0  0  0  0  0  0  0  0
   38.2048   10.8746  -17.8509 C   0  0  0  0  0  0  0  0  0  0  0  0
   38.8452   10.8831  -19.0917 C   0  0  0  0  0  0  0  0  0  0  0  0
   39.9677   11.6420  -19.2481 C   0  0  0  0  0  0  0  0  0  0  0  0
   40.4412   12.3791  -18.1844 C   0  0  0  0  0  0  0  0  0  0  0  0
   39.7949   12.3549  -16.9777 C   0  0  0  0  0  0  0  0  0  0  0  0
   40.4294   13.3029  -15.6692 S   0  0  0  0  0  0  0  0  0  0  0  0
   39.8581   14.7006  -15.6696 O   0  0  0  0  0  0  0  0  0  0  0  0
   40.2249   12.6691  -14.3228 O   0  0  0  0  0  0  0  0  0  0  0  0
   42.2145   13.4117  -15.8671 C   0  0  0  0  0  0  0  0  0  0  0  0
   42.6825   12.0918  -16.4928 C   0  0  0  0  0  0  0  0  0  0  0  0
   42.9149   13.6220  -14.5544 C   0  0  0  0  0  0  0  0  0  0  0  0
 23 24  1  0  0  0
 24 10  1  0  0  0
 10 11  2  0  0  0
 11 12  1  0  0  0
 12 13  2  0  0  0
 13 14  1  0  0  0
 14 15  2  0  0  0
 15  8  1  0  0  0
  8  1  1  0  0  0
  1  2  2  0  0  0
  2  3  1  0  0  0
  3  4  2  0  0  0
  4  5  1  0  0  0
  4  6  1  0  0  0
  6 25  1  0  0  0
 25 27  1  0  0  0
 27 28  2  0  0  0
 28 29  1  0  0  0
 29 30  2  0  0  0
 30 31  1  0  0  0
 31 32  2  0  0  0
 32 33  1  0  0  0
 33 34  2  0  0  0
 33 35  2  0  0  0
 33 36  1  0  0  0
 36 37  1  0  0  0
 36 38  1  0  0  0
  6  7  2  0  0  0
 12 16  1  0  0  0
 16 17  2  0  0  0
 16 18  1  0  0  0
 18 20  1  0  0  0
 20 21  1  0  0  0
 21 22  1  0  0  0
 15 10  1  0  0  0
  7  1  1  0  0  0
 22 20  1  0  0  0
 32 27  1  0  0  0
  8  9  1  0  0  0
 25 26  1  0  0  0
 18 19  1  0  0  0
M  END
> <minimizedAffinity>
-7.97211

> <CNNscore>
0.3163902462

> <CNNaffinity>
7.1501588821

> <CNN_VS>
2.2622404099

> <CNNaffinity_variance>
0.1118451580

$$$$
[H]c1nc(N([H])c2c([H])c([H])c(C(=O)N([H])C3([H])C([H])([H])C3([H])[H])c([H])c2OC([H])([H])[H])nc(N([H])c2c([H])c([H])c([H])c([H])c2S(=O)(=O)C([H])(C([H])([H])[H])C([H])([H])[H])c1Cl


 38 41  0  0  0  0  0  0  0  0999 V2000
   43.3572   13.2485  -16.1669 C   0  0  0  0  0  0  0  0  0  0  0  0
   44.0941   12.1400  -16.2218 N   0  0  0  0  0  0  0  0  0  0  0  0
   45.2550   12.0142  -15.5762 C   0  0  0  0  0  0  0  0  0  0  0  0
   45.7013   13.0775  -14.8257 C   0  0  0  0  0  0  0  0  0  0  0  0
   47.2151   12.9731  -13.9581 Cl  0  0  0  0  0  0  0  0  0  0  0  0
   44.9698   14.2817  -14.7245 C   0  0  0  0  0  0  0  0  0  0  0  0
   43.8307   14.2882  -15.4109 N   0  0  0  0  0  0  0  0  0  0  0  0
   42.1372   13.4602  -16.8071 N   0  0  0  0  0  0  0  0  0  0  0  0
   42.2121   13.8391  -17.8098 H   0  0  0  0  0  0  0  0  0  0  0  0
   39.9874   12.3930  -17.0284 C   0  0  0  0  0  0  0  0  0  0  0  0
   38.7386   12.1404  -16.5700 C   0  0  0  0  0  0  0  0  0  0  0  0
   38.2140   12.6390  -15.4028 C   0  0  0  0  0  0  0  0  0  0  0  0
   39.0415   13.4511  -14.6676 C   0  0  0  0  0  0  0  0  0  0  0  0
   40.3534   13.7420  -15.1080 C   0  0  0  0  0  0  0  0  0  0  0  0
   40.8513   13.2310  -16.2764 C   0  0  0  0  0  0  0  0  0  0  0  0
   36.8707   12.3526  -14.9276 C   0  0  0  0  0  0  0  0  0  0  0  0
   36.2873   11.4013  -15.5585 O   0  0  0  0  0  0  0  0  0  0  0  0
   36.2425   13.0340  -13.8804 N   0  0  0  0  0  0  0  0  0  0  0  0
   36.7410   13.8019  -13.3887 H   0  0  0  0  0  0  0  0  0  0  0  0
   34.9025   12.7026  -13.4515 C   0  0  0  0  0  0  0  0  0  0  0  0
   33.9372   13.7563  -13.0192 C   0  0  0  0  0  0  0  0  0  0  0  0
   33.7257   13.0388  -14.3043 C   0  0  0  0  0  0  0  0  0  0  0  0
   39.7602   11.0705  -19.0875 C   0  0  0  0  0  0  0  0  0  0  0  0
   40.4877   11.8741  -18.2114 O   0  0  0  0  0  0  0  0  0  0  0  0
   45.4919   15.3123  -13.9253 N   0  0  0  0  0  0  0  0  0  0  0  0
   46.2935   15.8669  -14.3310 H   0  0  0  0  0  0  0  0  0  0  0  0
   45.0477   15.6800  -12.6603 C   0  0  0  0  0  0  0  0  0  0  0  0
   44.0525   15.0890  -11.9348 C   0  0  0  0  0  0  0  0  0  0  0  0
   43.6353   15.5268  -10.6763 C   0  0  0  0  0  0  0  0  0  0  0  0
   44.2474   16.6114  -10.1203 C   0  0  0  0  0  0  0  0  0  0  0  0
   45.2580   17.2465  -10.8089 C   0  0  0  0  0  0  0  0  0  0  0  0
   45.6499   16.7975  -12.0415 C   0  0  0  0  0  0  0  0  0  0  0  0
   46.9295   17.6302  -12.8678 S   0  0  0  0  0  0  0  0  0  0  0  0
   47.9921   16.6727  -13.3514 O   0  0  0  0  0  0  0  0  0  0  0  0
   46.4465   18.4757  -14.0116 O   0  0  0  0  0  0  0  0  0  0  0  0
   47.6820   18.7898  -11.7160 C   0  0  0  0  0  0  0  0  0  0  0  0
   48.1685   19.9916  -12.5355 C   0  0  0  0  0  0  0  0  0  0  0  0
   48.8418   18.1802  -10.9804 C   0  0  0  0  0  0  0  0  0  0  0  0
 23 24  1  0  0  0
 24 10  1  0  0  0
 10 11  2  0  0  0
 11 12  1  0  0  0
 12 13  2  0  0  0
 13 14  1  0  0  0
 14 15  2  0  0  0
 15  8  1  0  0  0
  8  1  1  0  0  0
  1  2  2  0  0  0
  2  3  1  0  0  0
  3  4  2  0  0  0
  4  5  1  0  0  0
  4  6  1  0  0  0
  6 25  1  0  0  0
 25 27  1  0  0  0
 27 28  2  0  0  0
 28 29  1  0  0  0
 29 30  2  0  0  0
 30 31  1  0  0  0
 31 32  2  0  0  0
 32 33  1  0  0  0
 33 34  2  0  0  0
 33 35  2  0  0  0
 33 36  1  0  0  0
 36 37  1  0  0  0
 36 38  1  0  0  0
  6  7  2  0  0  0
 12 16  1  0  0  0
 16 17  2  0  0  0
 16 18  1  0  0  0
 18 20  1  0  0  0
 20 21  1  0  0  0
 21 22  1  0  0  0
 15 10  1  0  0  0
  7  1  1  0  0  0
 22 20  1  0  0  0
 32 27  1  0  0  0
  8  9  1  0  0  0
 25 26  1  0  0  0
 18 19  1  0  0  0
M  END
> <minimizedAffinity>
-7.30285

> <CNNscore>
0.3118650913

> <CNNaffinity>
6.9829926491

> <CNN_VS>
2.1777515411

> <CNNaffinity_variance>
0.1362195909

$$$$
[H]c1nc(N([H])c2c([H])c([H])c(C(=O)N([H])C3([H])C([H])([H])C3([H])[H])c([H])c2OC([H])([H])[H])nc(N([H])c2c([H])c([H])c([H])c([H])c2S(=O)(=O)C([H])(C([H])([H])[H])C([H])([H])[H])c1Cl


 38 41  0  0  0  0  0  0  0  0999 V2000
   35.7710   14.3830  -13.8393 C   0  0  0  0  0  0  0  0  0  0  0  0
   34.5782   13.9906  -14.2841 N   0  0  0  0  0  0  0  0  0  0  0  0
   34.4101   12.8906  -15.0204 C   0  0  0  0  0  0  0  0  0  0  0  0
   35.5196   12.1370  -15.3277 C   0  0  0  0  0  0  0  0  0  0  0  0
   35.3633   10.6859  -16.2895 Cl  0  0  0  0  0  0  0  0  0  0  0  0
   36.8133   12.4959  -14.8886 C   0  0  0  0  0  0  0  0  0  0  0  0
   36.8546   13.6101  -14.1637 N   0  0  0  0  0  0  0  0  0  0  0  0
   36.0319   15.5133  -13.0664 N   0  0  0  0  0  0  0  0  0  0  0  0
   36.6888   16.2313  -13.5220 H   0  0  0  0  0  0  0  0  0  0  0  0
   36.4262   16.3943  -10.8579 C   0  0  0  0  0  0  0  0  0  0  0  0
   36.0006   16.6827   -9.6052 C   0  0  0  0  0  0  0  0  0  0  0  0
   34.7359   16.4380   -9.1291 C   0  0  0  0  0  0  0  0  0  0  0  0
   33.8603   15.8569  -10.0125 C   0  0  0  0  0  0  0  0  0  0  0  0
   34.2616   15.5385  -11.3305 C   0  0  0  0  0  0  0  0  0  0  0  0
   35.5295   15.7936  -11.7793 C   0  0  0  0  0  0  0  0  0  0  0  0
   34.2988   16.7584   -7.7805 C   0  0  0  0  0  0  0  0  0  0  0  0
   35.2257   16.6739   -6.8991 O   0  0  0  0  0  0  0  0  0  0  0  0
   32.9935   17.1285   -7.4414 N   0  0  0  0  0  0  0  0  0  0  0  0
   32.2632   17.1870   -8.1784 H   0  0  0  0  0  0  0  0  0  0  0  0
   32.6186   17.4366   -6.0799 C   0  0  0  0  0  0  0  0  0  0  0  0
   31.1899   17.4508   -5.6467 C   0  0  0  0  0  0  0  0  0  0  0  0
   32.0975   16.3717   -5.1745 C   0  0  0  0  0  0  0  0  0  0  0  0
   38.8612   16.0677  -10.7844 C   0  0  0  0  0  0  0  0  0  0  0  0
   37.7103   16.6539  -11.3084 O   0  0  0  0  0  0  0  0  0  0  0  0
   37.8891   11.6621  -15.2362 N   0  0  0  0  0  0  0  0  0  0  0  0
   38.2179   10.9806  -14.4999 H   0  0  0  0  0  0  0  0  0  0  0  0
   38.5526   11.6386  -16.4578 C   0  0  0  0  0  0  0  0  0  0  0  0
   38.1911   10.9423  -17.5761 C   0  0  0  0  0  0  0  0  0  0  0  0
   38.9199   10.9408  -18.7670 C   0  0  0  0  0  0  0  0  0  0  0  0
   40.0679   11.6740  -18.8373 C   0  0  0  0  0  0  0  0  0  0  0  0
   40.4797   12.3956  -17.7380 C   0  0  0  0  0  0  0  0  0  0  0  0
   39.7470   12.3817  -16.5815 C   0  0  0  0  0  0  0  0  0  0  0  0
   40.3064   13.3095  -15.2251 S   0  0  0  0  0  0  0  0  0  0  0  0
   40.1443   14.7918  -15.4629 O   0  0  0  0  0  0  0  0  0  0  0  0
   39.6477   12.9259  -13.9308 O   0  0  0  0  0  0  0  0  0  0  0  0
   42.0535   12.9541  -14.9824 C   0  0  0  0  0  0  0  0  0  0  0  0
   42.4732   13.6208  -13.6663 C   0  0  0  0  0  0  0  0  0  0  0  0
   42.8976   13.4850  -16.1065 C   0  0  0  0  0  0  0  0  0  0  0  0
 23 24  1  0  0  0
 24 10  1  0  0  0
 10 11  2  0  0  0
 11 12  1  0  0  0
 12 13  2  0  0  0
 13 14  1  0  0  0
 14 15  2  0  0  0
 15  8  1  0  0  0
  8  1  1  0  0  0
  1  2  2  0  0  0
  2  3  1  0  0  0
  3  4  2  0  0  0
  4  5  1  0  0  0
  4  6  1  0  0  0
  6 25  1  0  0  0
 25 27  1  0  0  0
 27 28  2  0  0  0
 28 29  1  0  0  0
 29 30  2  0  0  0
 30 31  1  0  0  0
 31 32  2  0  0  0
 32 33  1  0  0  0
 33 34  2  0  0  0
 33 35  2  0  0  0
 33 36  1  0  0  0
 36 37  1  0  0  0
 36 38  1  0  0  0
  6  7  2  0  0  0
 12 16  1  0  0  0
 16 17  2  0  0  0
 16 18  1  0  0  0
 18 20  1  0  0  0
 20 21  1  0  0  0
 21 22  1  0  0  0
 15 10  1  0  0  0
  7  1  1  0  0  0
 22 20  1  0  0  0
 32 27  1  0  0  0
  8  9  1  0  0  0
 25 26  1  0  0  0
 18 19  1  0  0  0
M  END
> <minimizedAffinity>
-8.33448

> <CNNscore>
0.2562498450

> <CNNaffinity>
7.0335907936

> <CNN_VS>
1.8023566008

> <CNNaffinity_variance>
0.1380721629

$$$$
[H]c1nc(N([H])c2c([H])c([H])c(C(=O)N([H])C3([H])C([H])([H])C3([H])[H])c([H])c2OC([H])([H])[H])nc(N([H])c2c([H])c([H])c([H])c([H])c2S(=O)(=O)C([H])(C([H])([H])[H])C([H])([H])[H])c1Cl


 38 41  0  0  0  0  0  0  0  0999 V2000
   43.6440   13.3546  -16.0743 C   0  0  0  0  0  0  0  0  0  0  0  0
   44.5920   12.5512  -16.5545 N   0  0  0  0  0  0  0  0  0  0  0  0
   45.7881   12.4233  -15.9773 C   0  0  0  0  0  0  0  0  0  0  0  0
   46.0440   13.1546  -14.8402 C   0  0  0  0  0  0  0  0  0  0  0  0
   47.5927   13.0301  -14.0395 Cl  0  0  0  0  0  0  0  0  0  0  0  0
   45.0838   14.0251  -14.2783 C   0  0  0  0  0  0  0  0  0  0  0  0
   43.9316   14.0685  -14.9411 N   0  0  0  0  0  0  0  0  0  0  0  0
   42.3725   13.5438  -16.6134 N   0  0  0  0  0  0  0  0  0  0  0  0
   42.3587   13.9464  -17.6096 H   0  0  0  0  0  0  0  0  0  0  0  0
   40.1913   12.5270  -16.7469 C   0  0  0  0  0  0  0  0  0  0  0  0
   38.9870   12.2333  -16.2021 C   0  0  0  0  0  0  0  0  0  0  0  0
   38.5853   12.5976  -14.9404 C   0  0  0  0  0  0  0  0  0  0  0  0
   39.4943   13.3123  -14.2003 C   0  0  0  0  0  0  0  0  0  0  0  0
   40.7638   13.6415  -14.7291 C   0  0  0  0  0  0  0  0  0  0  0  0
   41.1386   13.2653  -15.9909 C   0  0  0  0  0  0  0  0  0  0  0  0
   37.2878   12.2691  -14.3737 C   0  0  0  0  0  0  0  0  0  0  0  0
   37.3422   11.8220  -13.1736 O   0  0  0  0  0  0  0  0  0  0  0  0
   36.0722   12.4153  -15.0494 N   0  0  0  0  0  0  0  0  0  0  0  0
   36.0605   12.7794  -16.0227 H   0  0  0  0  0  0  0  0  0  0  0  0
   34.8114   12.0716  -14.4317 C   0  0  0  0  0  0  0  0  0  0  0  0
   33.6059   12.9398  -14.5803 C   0  0  0  0  0  0  0  0  0  0  0  0
   33.6567   11.6184  -15.2603 C   0  0  0  0  0  0  0  0  0  0  0  0
   40.0155   11.0682  -18.7171 C   0  0  0  0  0  0  0  0  0  0  0  0
   40.5670   12.1445  -18.0243 O   0  0  0  0  0  0  0  0  0  0  0  0
   45.4233   14.7235  -13.1077 N   0  0  0  0  0  0  0  0  0  0  0  0
   45.4626   14.1615  -12.2148 H   0  0  0  0  0  0  0  0  0  0  0  0
   45.7245   16.0776  -13.0137 C   0  0  0  0  0  0  0  0  0  0  0  0
   46.4810   16.8133  -13.8812 C   0  0  0  0  0  0  0  0  0  0  0  0
   46.7687   18.1692  -13.7131 C   0  0  0  0  0  0  0  0  0  0  0  0
   46.2729   18.8169  -12.6199 C   0  0  0  0  0  0  0  0  0  0  0  0
   45.5033   18.1226  -11.7119 C   0  0  0  0  0  0  0  0  0  0  0  0
   45.2343   16.7933  -11.8994 C   0  0  0  0  0  0  0  0  0  0  0  0
   44.2577   15.9636  -10.7283 S   0  0  0  0  0  0  0  0  0  0  0  0
   44.8430   14.6181  -10.3720 O   0  0  0  0  0  0  0  0  0  0  0  0
   44.0206   16.7632   -9.4791 O   0  0  0  0  0  0  0  0  0  0  0  0
   42.6234   15.7099  -11.4368 C   0  0  0  0  0  0  0  0  0  0  0  0
   42.4819   16.6862  -12.6114 C   0  0  0  0  0  0  0  0  0  0  0  0
   41.5306   15.9641  -10.4373 C   0  0  0  0  0  0  0  0  0  0  0  0
 23 24  1  0  0  0
 24 10  1  0  0  0
 10 11  2  0  0  0
 11 12  1  0  0  0
 12 13  2  0  0  0
 13 14  1  0  0  0
 14 15  2  0  0  0
 15  8  1  0  0  0
  8  1  1  0  0  0
  1  2  2  0  0  0
  2  3  1  0  0  0
  3  4  2  0  0  0
  4  5  1  0  0  0
  4  6  1  0  0  0
  6 25  1  0  0  0
 25 27  1  0  0  0
 27 28  2  0  0  0
 28 29  1  0  0  0
 29 30  2  0  0  0
 30 31  1  0  0  0
 31 32  2  0  0  0
 32 33  1  0  0  0
 33 34  2  0  0  0
 33 35  2  0  0  0
 33 36  1  0  0  0
 36 37  1  0  0  0
 36 38  1  0  0  0
  6  7  2  0  0  0
 12 16  1  0  0  0
 16 17  2  0  0  0
 16 18  1  0  0  0
 18 20  1  0  0  0
 20 21  1  0  0  0
 21 22  1  0  0  0
 15 10  1  0  0  0
  7  1  1  0  0  0
 22 20  1  0  0  0
 32 27  1  0  0  0
  8  9  1  0  0  0
 25 26  1  0  0  0
 18 19  1  0  0  0
M  END
> <minimizedAffinity>
-7.82827

> <CNNscore>
0.2550507784

> <CNNaffinity>
7.0404648781

> <CNN_VS>
1.7956759930

> <CNNaffinity_variance>
0.0354462191

$$$$
[H]c1nc(N([H])c2c([H])c([H])c(C(=O)N([H])C3([H])C([H])([H])C3([H])[H])c([H])c2OC([H])([H])[H])nc(N([H])c2c([H])c([H])c([H])c([H])c2S(=O)(=O)C([H])(C([H])([H])[H])C([H])([H])[H])c1Cl


 38 41  0  0  0  0  0  0  0  0999 V2000
   43.0533   12.7921  -16.1259 C   0  0  0  0  0  0  0  0  0  0  0  0
   44.2335   12.2191  -16.3572 N   0  0  0  0  0  0  0  0  0  0  0  0
   45.3105   12.4598  -15.6072 C   0  0  0  0  0  0  0  0  0  0  0  0
   45.1877   13.3368  -14.5541 C   0  0  0  0  0  0  0  0  0  0  0  0
   46.5632   13.6931  -13.5361 Cl  0  0  0  0  0  0  0  0  0  0  0  0
   43.9660   13.9789  -14.2532 C   0  0  0  0  0  0  0  0  0  0  0  0
   42.9658   13.6602  -15.0697 N   0  0  0  0  0  0  0  0  0  0  0  0
   41.8832   12.5944  -16.8572 N   0  0  0  0  0  0  0  0  0  0  0  0
   42.0274   12.4556  -17.9129 H   0  0  0  0  0  0  0  0  0  0  0  0
   39.6414   11.7273  -17.0354 C   0  0  0  0  0  0  0  0  0  0  0  0
   38.3608   11.6589  -16.6009 C   0  0  0  0  0  0  0  0  0  0  0  0
   37.8583   12.3478  -15.5243 C   0  0  0  0  0  0  0  0  0  0  0  0
   38.7446   13.1583  -14.8592 C   0  0  0  0  0  0  0  0  0  0  0  0
   40.0914   13.2604  -15.2779 C   0  0  0  0  0  0  0  0  0  0  0  0
   40.5661   12.5618  -16.3553 C   0  0  0  0  0  0  0  0  0  0  0  0
   36.4797   12.2575  -15.0729 C   0  0  0  0  0  0  0  0  0  0  0  0
   35.7485   11.4821  -15.7853 O   0  0  0  0  0  0  0  0  0  0  0  0
   35.9657   12.9411  -13.9666 N   0  0  0  0  0  0  0  0  0  0  0  0
   36.5832   13.5638  -13.4091 H   0  0  0  0  0  0  0  0  0  0  0  0
   34.5832   12.8103  -13.5654 C   0  0  0  0  0  0  0  0  0  0  0  0
   33.8170   13.9662  -13.0126 C   0  0  0  0  0  0  0  0  0  0  0  0
   33.4952   13.4426  -14.3666 C   0  0  0  0  0  0  0  0  0  0  0  0
   39.6047   11.1238  -19.4177 C   0  0  0  0  0  0  0  0  0  0  0  0
   40.1181   11.0188  -18.1262 O   0  0  0  0  0  0  0  0  0  0  0  0
   43.9255   14.8491  -13.1512 N   0  0  0  0  0  0  0  0  0  0  0  0
   44.8517   15.2200  -12.8056 H   0  0  0  0  0  0  0  0  0  0  0  0
   42.7854   15.2785  -12.4813 C   0  0  0  0  0  0  0  0  0  0  0  0
   41.5378   15.4517  -13.0102 C   0  0  0  0  0  0  0  0  0  0  0  0
   40.4375   15.9138  -12.2853 C   0  0  0  0  0  0  0  0  0  0  0  0
   40.5989   16.2171  -10.9654 C   0  0  0  0  0  0  0  0  0  0  0  0
   41.8368   16.0611  -10.3805 C   0  0  0  0  0  0  0  0  0  0  0  0
   42.9004   15.6053  -11.1123 C   0  0  0  0  0  0  0  0  0  0  0  0
   44.4389   15.4233  -10.3290 S   0  0  0  0  0  0  0  0  0  0  0  0
   44.8526   13.9733  -10.2504 O   0  0  0  0  0  0  0  0  0  0  0  0
   45.5311   16.2309  -10.9702 O   0  0  0  0  0  0  0  0  0  0  0  0
   44.2992   16.0725   -8.6568 C   0  0  0  0  0  0  0  0  0  0  0  0
   44.9297   17.4708   -8.6592 C   0  0  0  0  0  0  0  0  0  0  0  0
   45.0060   15.2041   -7.6547 C   0  0  0  0  0  0  0  0  0  0  0  0
 23 24  1  0  0  0
 24 10  1  0  0  0
 10 11  2  0  0  0
 11 12  1  0  0  0
 12 13  2  0  0  0
 13 14  1  0  0  0
 14 15  2  0  0  0
 15  8  1  0  0  0
  8  1  1  0  0  0
  1  2  2  0  0  0
  2  3  1  0  0  0
  3  4  2  0  0  0
  4  5  1  0  0  0
  4  6  1  0  0  0
  6 25  1  0  0  0
 25 27  1  0  0  0
 27 28  2  0  0  0
 28 29  1  0  0  0
 29 30  2  0  0  0
 30 31  1  0  0  0
 31 32  2  0  0  0
 32 33  1  0  0  0
 33 34  2  0  0  0
 33 35  2  0  0  0
 33 36  1  0  0  0
 36 37  1  0  0  0
 36 38  1  0  0  0
  6  7  2  0  0  0
 12 16  1  0  0  0
 16 17  2  0  0  0
 16 18  1  0  0  0
 18 20  1  0  0  0
 20 21  1  0  0  0
 21 22  1  0  0  0
 15 10  1  0  0  0
  7  1  1  0  0  0
 22 20  1  0  0  0
 32 27  1  0  0  0
  8  9  1  0  0  0
 25 26  1  0  0  0
 18 19  1  0  0  0
M  END
> <minimizedAffinity>
-8.05368

> <CNNscore>
0.2250693887

> <CNNaffinity>
7.0643358231

> <CNN_VS>
1.5899657011

> <CNNaffinity_variance>
0.0461374670

$$$$
[H]c1nc(N([H])c2c([H])c([H])c(C(=O)N([H])C3([H])C([H])([H])C3([H])[H])c([H])c2OC([H])([H])[H])nc(N([H])c2c([H])c([H])c([H])c([H])c2S(=O)(=O)C([H])(C([H])([H])[H])C([H])([H])[H])c1Cl


 38 41  0  0  0  0  0  0  0  0999 V2000
   43.7121   13.2765  -15.9110 C   0  0  0  0  0  0  0  0  0  0  0  0
   44.8302   12.8656  -16.5073 N   0  0  0  0  0  0  0  0  0  0  0  0
   45.9922   12.7542  -15.8609 C   0  0  0  0  0  0  0  0  0  0  0  0
   46.0275   13.0789  -14.5243 C   0  0  0  0  0  0  0  0  0  0  0  0
   47.5204   12.9540  -13.6238 Cl  0  0  0  0  0  0  0  0  0  0  0  0
   44.8791   13.5213  -13.8309 C   0  0  0  0  0  0  0  0  0  0  0  0
   43.7823   13.5920  -14.5797 N   0  0  0  0  0  0  0  0  0  0  0  0
   42.4619   13.4184  -16.5109 N   0  0  0  0  0  0  0  0  0  0  0  0
   42.4852   13.7501  -17.5326 H   0  0  0  0  0  0  0  0  0  0  0  0
   40.3249   12.3085  -16.6164 C   0  0  0  0  0  0  0  0  0  0  0  0
   39.1031   12.0413  -16.0975 C   0  0  0  0  0  0  0  0  0  0  0  0
   38.6224   12.5506  -14.9161 C   0  0  0  0  0  0  0  0  0  0  0  0
   39.4667   13.3903  -14.2329 C   0  0  0  0  0  0  0  0  0  0  0  0
   40.7516   13.6973  -14.7373 C   0  0  0  0  0  0  0  0  0  0  0  0
   41.2058   13.1752  -15.9185 C   0  0  0  0  0  0  0  0  0  0  0  0
   37.3075   12.2481  -14.3757 C   0  0  0  0  0  0  0  0  0  0  0  0
   37.3283   11.8078  -13.1720 O   0  0  0  0  0  0  0  0  0  0  0  0
   36.1095   12.4111  -15.0783 N   0  0  0  0  0  0  0  0  0  0  0  0
   36.1250   12.7692  -16.0537 H   0  0  0  0  0  0  0  0  0  0  0  0
   34.8299   12.0932  -14.4859 C   0  0  0  0  0  0  0  0  0  0  0  0
   33.6477   12.9899  -14.6512 C   0  0  0  0  0  0  0  0  0  0  0  0
   33.6805   11.6716  -15.3383 C   0  0  0  0  0  0  0  0  0  0  0  0
   39.9716   11.1345  -18.7466 C   0  0  0  0  0  0  0  0  0  0  0  0
   40.7810   11.7782  -17.8121 O   0  0  0  0  0  0  0  0  0  0  0  0
   45.0009   13.8186  -12.4633 N   0  0  0  0  0  0  0  0  0  0  0  0
   45.0305   12.9973  -11.8005 H   0  0  0  0  0  0  0  0  0  0  0  0
   45.0991   15.0862  -11.9009 C   0  0  0  0  0  0  0  0  0  0  0  0
   45.2448   16.2710  -12.5651 C   0  0  0  0  0  0  0  0  0  0  0  0
   45.3653   17.5116  -11.9359 C   0  0  0  0  0  0  0  0  0  0  0  0
   45.3389   17.5640  -10.5732 C   0  0  0  0  0  0  0  0  0  0  0  0
   45.1942   16.3984   -9.8527 C   0  0  0  0  0  0  0  0  0  0  0  0
   45.0769   15.1939  -10.4930 C   0  0  0  0  0  0  0  0  0  0  0  0
   44.8941   13.7540   -9.5406 S   0  0  0  0  0  0  0  0  0  0  0  0
   43.6127   13.0281   -9.8739 O   0  0  0  0  0  0  0  0  0  0  0  0
   46.0586   12.8125   -9.6580 O   0  0  0  0  0  0  0  0  0  0  0  0
   44.8512   14.2286   -7.8056 C   0  0  0  0  0  0  0  0  0  0  0  0
   45.6879   13.2008   -7.0336 C   0  0  0  0  0  0  0  0  0  0  0  0
   43.4506   14.2475   -7.2614 C   0  0  0  0  0  0  0  0  0  0  0  0
 23 24  1  0  0  0
 24 10  1  0  0  0
 10 11  2  0  0  0
 11 12  1  0  0  0
 12 13  2  0  0  0
 13 14  1  0  0  0
 14 15  2  0  0  0
 15  8  1  0  0  0
  8  1  1  0  0  0
  1  2  2  0  0  0
  2  3  1  0  0  0
  3  4  2  0  0  0
  4  5  1  0  0  0
  4  6  1  0  0  0
  6 25  1  0  0  0
 25 27  1  0  0  0
 27 28  2  0  0  0
 28 29  1  0  0  0
 29 30  2  0  0  0
 30 31  1  0  0  0
 31 32  2  0  0  0
 32 33  1  0  0  0
 33 34  2  0  0  0
 33 35  2  0  0  0
 33 36  1  0  0  0
 36 37  1  0  0  0
 36 38  1  0  0  0
  6  7  2  0  0  0
 12 16  1  0  0  0
 16 17  2  0  0  0
 16 18  1  0  0  0
 18 20  1  0  0  0
 20 21  1  0  0  0
 21 22  1  0  0  0
 15 10  1  0  0  0
  7  1  1  0  0  0
 22 20  1  0  0  0
 32 27  1  0  0  0
  8  9  1  0  0  0
 25 26  1  0  0  0
 18 19  1  0  0  0
M  END
> <minimizedAffinity>
-7.58873

> <CNNscore>
0.1170280501

> <CNNaffinity>
6.7437272072

> <CNN_VS>
0.7892052531

> <CNNaffinity_variance>
0.0295887198

$$$$
[H]c1nc(N([H])c2c([H])c([H])c(C(=O)N([H])C3([H])C([H])([H])C3([H])[H])c([H])c2OC([H])([H])[H])nc(N([H])c2c([H])c([H])c([H])c([H])c2S(=O)(=O)C([H])(C([H])([H])[H])C([H])([H])[H])c1Cl


 38 41  0  0  0  0  0  0  0  0999 V2000
   35.5356   13.2364  -13.7249 C   0  0  0  0  0  0  0  0  0  0  0  0
   34.2949   13.7113  -13.8239 N   0  0  0  0  0  0  0  0  0  0  0  0
   33.7394   14.4766  -12.8826 C   0  0  0  0  0  0  0  0  0  0  0  0
   34.4858   14.7827  -11.7679 C   0  0  0  0  0  0  0  0  0  0  0  0
   33.8125   15.7803  -10.5003 Cl  0  0  0  0  0  0  0  0  0  0  0  0
   35.8070   14.3121  -11.5994 C   0  0  0  0  0  0  0  0  0  0  0  0
   36.2509   13.5599  -12.6023 N   0  0  0  0  0  0  0  0  0  0  0  0
   36.1889   12.4351  -14.6599 N   0  0  0  0  0  0  0  0  0  0  0  0
   35.5739   11.6837  -15.1202 H   0  0  0  0  0  0  0  0  0  0  0  0
   37.9066   11.8555  -16.2482 C   0  0  0  0  0  0  0  0  0  0  0  0
   39.1937   11.8953  -16.6668 C   0  0  0  0  0  0  0  0  0  0  0  0
   40.2141   12.5390  -16.0106 C   0  0  0  0  0  0  0  0  0  0  0  0
   39.8726   13.1810  -14.8461 C   0  0  0  0  0  0  0  0  0  0  0  0
   38.5407   13.1657  -14.3712 C   0  0  0  0  0  0  0  0  0  0  0  0
   37.5424   12.5158  -15.0459 C   0  0  0  0  0  0  0  0  0  0  0  0
   41.5894   12.5715  -16.4795 C   0  0  0  0  0  0  0  0  0  0  0  0
   41.7621   12.0215  -17.6244 O   0  0  0  0  0  0  0  0  0  0  0  0
   42.6510   13.1425  -15.7706 N   0  0  0  0  0  0  0  0  0  0  0  0
   42.4798   13.5801  -14.8437 H   0  0  0  0  0  0  0  0  0  0  0  0
   43.9999   13.1448  -16.2901 C   0  0  0  0  0  0  0  0  0  0  0  0
   45.1707   12.8094  -15.4266 C   0  0  0  0  0  0  0  0  0  0  0  0
   44.7399   11.8653  -16.4916 C   0  0  0  0  0  0  0  0  0  0  0  0
   37.1102   10.3559  -18.0252 C   0  0  0  0  0  0  0  0  0  0  0  0
   36.8992   11.1967  -16.9338 O   0  0  0  0  0  0  0  0  0  0  0  0
   36.5025   14.6839  -10.4370 N   0  0  0  0  0  0  0  0  0  0  0  0
   36.0189   14.5014   -9.5164 H   0  0  0  0  0  0  0  0  0  0  0  0
   37.7686   15.2557  -10.3812 C   0  0  0  0  0  0  0  0  0  0  0  0
   38.5831   15.5533  -11.4367 C   0  0  0  0  0  0  0  0  0  0  0  0
   39.8599   16.1039  -11.3093 C   0  0  0  0  0  0  0  0  0  0  0  0
   40.3417   16.3676  -10.0609 C   0  0  0  0  0  0  0  0  0  0  0  0
   39.5618   16.0867   -8.9601 C   0  0  0  0  0  0  0  0  0  0  0  0
   38.3123   15.5476   -9.1110 C   0  0  0  0  0  0  0  0  0  0  0  0
   37.3677   15.2141   -7.6932 S   0  0  0  0  0  0  0  0  0  0  0  0
   36.7776   13.8249   -7.7346 O   0  0  0  0  0  0  0  0  0  0  0  0
   38.1297   15.4063   -6.4131 O   0  0  0  0  0  0  0  0  0  0  0  0
   36.0232   16.4076   -7.6193 C   0  0  0  0  0  0  0  0  0  0  0  0
   36.6107   17.7757   -7.9881 C   0  0  0  0  0  0  0  0  0  0  0  0
   35.4069   16.4775   -6.2507 C   0  0  0  0  0  0  0  0  0  0  0  0
 23 24  1  0  0  0
 24 10  1  0  0  0
 10 11  2  0  0  0
 11 12  1  0  0  0
 12 13  2  0  0  0
 13 14  1  0  0  0
 14 15  2  0  0  0
 15  8  1  0  0  0
  8  1  1  0  0  0
  1  2  2  0  0  0
  2  3  1  0  0  0
  3  4  2  0  0  0
  4  5  1  0  0  0
  4  6  1  0  0  0
  6 25  1  0  0  0
 25 27  1  0  0  0
 27 28  2  0  0  0
 28 29  1  0  0  0
 29 30  2  0  0  0
 30 31  1  0  0  0
 31 32  2  0  0  0
 32 33  1  0  0  0
 33 34  2  0  0  0
 33 35  2  0  0  0
 33 36  1  0  0  0
 36 37  1  0  0  0
 36 38  1  0  0  0
  6  7  2  0  0  0
 12 16  1  0  0  0
 16 17  2  0  0  0
 16 18  1  0  0  0
 18 20  1  0  0  0
 20 21  1  0  0  0
 21 22  1  0  0  0
 15 10  1  0  0  0
  7  1  1  0  0  0
 22 20  1  0  0  0
 32 27  1  0  0  0
  8  9  1  0  0  0
 25 26  1  0  0  0
 18 19  1  0  0  0
M  END
> <minimizedAffinity>
-8.29467

> <CNNscore>
0.1093988642

> <CNNaffinity>
6.8756957054

> <CNN_VS>
0.7521932721

> <CNNaffinity_variance>
0.2394860089

$$$$
[H]c1nc(N([H])c2c([H])c([H])c(C(=O)N([H])C3([H])C([H])([H])C3([H])[H])c([H])c2OC([H])([H])[H])nc(N([H])c2c([H])c([H])c([H])c([H])c2S(=O)(=O)C([H])(C([H])([H])[H])C([H])([H])[H])c1Cl


 38 41  0  0  0  0  0  0  0  0999 V2000
   34.1885   14.0498  -13.8637 C   0  0  0  0  0  0  0  0  0  0  0  0
   33.6818   13.0090  -14.5229 N   0  0  0  0  0  0  0  0  0  0  0  0
   34.4407   12.1507  -15.2068 C   0  0  0  0  0  0  0  0  0  0  0  0
   35.8010   12.3567  -15.2262 C   0  0  0  0  0  0  0  0  0  0  0  0
   36.8472   11.2669  -16.1054 Cl  0  0  0  0  0  0  0  0  0  0  0  0
   36.4037   13.4401  -14.5492 C   0  0  0  0  0  0  0  0  0  0  0  0
   35.5465   14.2260  -13.9039 N   0  0  0  0  0  0  0  0  0  0  0  0
   33.4688   14.9888  -13.1265 N   0  0  0  0  0  0  0  0  0  0  0  0
   32.6637   15.4612  -13.6586 H   0  0  0  0  0  0  0  0  0  0  0  0
   32.5524   15.4629  -10.9482 C   0  0  0  0  0  0  0  0  0  0  0  0
   32.7063   15.8252   -9.6527 C   0  0  0  0  0  0  0  0  0  0  0  0
   33.9080   16.1179   -9.0559 C   0  0  0  0  0  0  0  0  0  0  0  0
   35.0183   16.0275   -9.8583 C   0  0  0  0  0  0  0  0  0  0  0  0
   34.9047   15.6528  -11.2171 C   0  0  0  0  0  0  0  0  0  0  0  0
   33.6932   15.3662  -11.7868 C   0  0  0  0  0  0  0  0  0  0  0  0
   34.0510   16.5024   -7.6615 C   0  0  0  0  0  0  0  0  0  0  0  0
   34.5320   17.6785   -7.4927 O   0  0  0  0  0  0  0  0  0  0  0  0
   33.7052   15.6872   -6.5792 N   0  0  0  0  0  0  0  0  0  0  0  0
   33.3186   14.7375   -6.7481 H   0  0  0  0  0  0  0  0  0  0  0  0
   33.8700   16.1262   -5.2119 C   0  0  0  0  0  0  0  0  0  0  0  0
   32.7006   16.5169   -4.3700 C   0  0  0  0  0  0  0  0  0  0  0  0
   33.4383   15.2594   -4.0771 C   0  0  0  0  0  0  0  0  0  0  0  0
   30.2239   14.6869  -10.8183 C   0  0  0  0  0  0  0  0  0  0  0  0
   31.3247   15.1737  -11.5212 O   0  0  0  0  0  0  0  0  0  0  0  0
   37.8013   13.5681  -14.6099 N   0  0  0  0  0  0  0  0  0  0  0  0
   38.2918   13.0469  -15.3861 H   0  0  0  0  0  0  0  0  0  0  0  0
   38.5978   14.3233  -13.7565 C   0  0  0  0  0  0  0  0  0  0  0  0
   38.1948   15.0003  -12.6407 C   0  0  0  0  0  0  0  0  0  0  0  0
   39.0447   15.7655  -11.8396 C   0  0  0  0  0  0  0  0  0  0  0  0
   40.3633   15.8551  -12.1766 C   0  0  0  0  0  0  0  0  0  0  0  0
   40.8241   15.1920  -13.2932 C   0  0  0  0  0  0  0  0  0  0  0  0
   39.9709   14.4471  -14.0624 C   0  0  0  0  0  0  0  0  0  0  0  0
   40.6005   13.6283  -15.4577 S   0  0  0  0  0  0  0  0  0  0  0  0
   40.0836   12.2126  -15.5497 O   0  0  0  0  0  0  0  0  0  0  0  0
   40.3301   14.3543  -16.7446 O   0  0  0  0  0  0  0  0  0  0  0  0
   42.3937   13.5775  -15.3189 C   0  0  0  0  0  0  0  0  0  0  0  0
   42.8938   12.5057  -16.2954 C   0  0  0  0  0  0  0  0  0  0  0  0
   42.8412   13.2364  -13.9256 C   0  0  0  0  0  0  0  0  0  0  0  0
 23 24  1  0  0  0
 24 10  1  0  0  0
 10 11  2  0  0  0
 11 12  1  0  0  0
 12 13  2  0  0  0
 13 14  1  0  0  0
 14 15  2  0  0  0
 15  8  1  0  0  0
  8  1  1  0  0  0
  1  2  2  0  0  0
  2  3  1  0  0  0
  3  4  2  0  0  0
  4  5  1  0  0  0
  4  6  1  0  0  0
  6 25  1  0  0  0
 25 27  1  0  0  0
 27 28  2  0  0  0
 28 29  1  0  0  0
 29 30  2  0  0  0
 30 31  1  0  0  0
 31 32  2  0  0  0
 32 33  1  0  0  0
 33 34  2  0  0  0
 33 35  2  0  0  0
 33 36  1  0  0  0
 36 37  1  0  0  0
 36 38  1  0  0  0
  6  7  2  0  0  0
 12 16  1  0  0  0
 16 17  2  0  0  0
 16 18  1  0  0  0
 18 20  1  0  0  0
 20 21  1  0  0  0
 21 22  1  0  0  0
 15 10  1  0  0  0
  7  1  1  0  0  0
 22 20  1  0  0  0
 32 27  1  0  0  0
  8  9  1  0  0  0
 25 26  1  0  0  0
 18 19  1  0  0  0
M  END
> <minimizedAffinity>
-8.07183

> <CNNscore>
0.0749966875

> <CNNaffinity>
6.4440240860

> <CNN_VS>
0.4832804501

> <CNNaffinity_variance>
0.2774768770

$$$$
[H]c1nc(N([H])c2c([H])c([H])c(C(=O)N([H])C3([H])C([H])([H])C3([H])[H])c([H])c2OC([H])([H])[H])nc(N([H])c2c([H])c([H])c([H])c([H])c2S(=O)(=O)C([H])(C([H])([H])[H])C([H])([H])[H])c1Cl


 38 41  0  0  0  0  0  0  0  0999 V2000
   34.5202   14.2629  -13.0138 C   0  0  0  0  0  0  0  0  0  0  0  0
   34.4672   13.1480  -13.7410 N   0  0  0  0  0  0  0  0  0  0  0  0
   35.5568   12.4556  -14.0784 C   0  0  0  0  0  0  0  0  0  0  0  0
   36.7805   12.9194  -13.6533 C   0  0  0  0  0  0  0  0  0  0  0  0
   38.2438   12.0562  -14.0642 Cl  0  0  0  0  0  0  0  0  0  0  0  0
   36.9081   14.0944  -12.8797 C   0  0  0  0  0  0  0  0  0  0  0  0
   35.7543   14.6970  -12.6072 N   0  0  0  0  0  0  0  0  0  0  0  0
   33.4339   15.0416  -12.6180 N   0  0  0  0  0  0  0  0  0  0  0  0
   32.7929   15.3639  -13.4178 H   0  0  0  0  0  0  0  0  0  0  0  0
   31.7292   15.4787  -10.9711 C   0  0  0  0  0  0  0  0  0  0  0  0
   31.3560   15.8536   -9.7246 C   0  0  0  0  0  0  0  0  0  0  0  0
   32.2210   16.2078   -8.7185 C   0  0  0  0  0  0  0  0  0  0  0  0
   33.5575   16.1692   -9.0300 C   0  0  0  0  0  0  0  0  0  0  0  0
   33.9927   15.7837  -10.3190 C   0  0  0  0  0  0  0  0  0  0  0  0
   33.1081   15.4352  -11.3040 C   0  0  0  0  0  0  0  0  0  0  0  0
   31.7988   16.6047   -7.3855 C   0  0  0  0  0  0  0  0  0  0  0  0
   30.7348   17.3194   -7.3679 O   0  0  0  0  0  0  0  0  0  0  0  0
   32.4696   16.2558   -6.2092 N   0  0  0  0  0  0  0  0  0  0  0  0
   33.3308   15.6760   -6.2559 H   0  0  0  0  0  0  0  0  0  0  0  0
   31.9998   16.6807   -4.9099 C   0  0  0  0  0  0  0  0  0  0  0  0
   32.8971   16.6829   -3.7167 C   0  0  0  0  0  0  0  0  0  0  0  0
   32.4605   17.9705   -4.3187 C   0  0  0  0  0  0  0  0  0  0  0  0
   29.5612   14.6028  -11.7286 C   0  0  0  0  0  0  0  0  0  0  0  0
   30.8310   15.1267  -11.9653 O   0  0  0  0  0  0  0  0  0  0  0  0
   38.1945   14.4890  -12.4763 N   0  0  0  0  0  0  0  0  0  0  0  0
   38.9759   14.3389  -13.1703 H   0  0  0  0  0  0  0  0  0  0  0  0
   38.5353   15.0686  -11.2594 C   0  0  0  0  0  0  0  0  0  0  0  0
   37.8133   15.0309  -10.1004 C   0  0  0  0  0  0  0  0  0  0  0  0
   38.2011   15.6599   -8.9157 C   0  0  0  0  0  0  0  0  0  0  0  0
   39.3706   16.3614   -8.8950 C   0  0  0  0  0  0  0  0  0  0  0  0
   40.1387   16.4325  -10.0368 C   0  0  0  0  0  0  0  0  0  0  0  0
   39.7373   15.8062  -11.1862 C   0  0  0  0  0  0  0  0  0  0  0  0
   40.7413   15.9233  -12.5977 S   0  0  0  0  0  0  0  0  0  0  0  0
   40.0315   15.4081  -13.8268 O   0  0  0  0  0  0  0  0  0  0  0  0
   41.2524   17.3132  -12.8492 O   0  0  0  0  0  0  0  0  0  0  0  0
   42.2144   14.9270  -12.3246 C   0  0  0  0  0  0  0  0  0  0  0  0
   43.4010   15.8927  -12.2152 C   0  0  0  0  0  0  0  0  0  0  0  0
   42.4558   13.9590  -13.4484 C   0  0  0  0  0  0  0  0  0  0  0  0
 23 24  1  0  0  0
 24 10  1  0  0  0
 10 11  2  0  0  0
 11 12  1  0  0  0
 12 13  2  0  0  0
 13 14  1  0  0  0
 14 15  2  0  0  0
 15  8  1  0  0  0
  8  1  1  0  0  0
  1  2  2  0  0  0
  2  3  1  0  0  0
  3  4  2  0  0  0
  4  5  1  0  0  0
  4  6  1  0  0  0
  6 25  1  0  0  0
 25 27  1  0  0  0
 27 28  2  0  0  0
 28 29  1  0  0  0
 29 30  2  0  0  0
 30 31  1  0  0  0
 31 32  2  0  0  0
 32 33  1  0  0  0
 33 34  2  0  0  0
 33 35  2  0  0  0
 33 36  1  0  0  0
 36 37  1  0  0  0
 36 38  1  0  0  0
  6  7  2  0  0  0
 12 16  1  0  0  0
 16 17  2  0  0  0
 16 18  1  0  0  0
 18 20  1  0  0  0
 20 21  1  0  0  0
 21 22  1  0  0  0
 15 10  1  0  0  0
  7  1  1  0  0  0
 22 20  1  0  0  0
 32 27  1  0  0  0
  8  9  1  0  0  0
 25 26  1  0  0  0
 18 19  1  0  0  0
M  END
> <minimizedAffinity>
-7.79846

> <CNNscore>
0.0628890395

> <CNNaffinity>
6.2158670425

> <CNN_VS>
0.3909099102

> <CNNaffinity_variance>
0.3362452686

$$$$
[H]N=C(N([H])[H])N([H])C([H])([H])C([H])([H])C([H])([H])[C@@]([H])(C(=O)c1nc([H])c([H])s1)N([H])C(=O)[C@@]([H])(N([H])C(=O)[C@@]1([H])N(C(=O)[C@]([H])(N([H])C(=O)OC([H])([H])c2c([H])c([H])c([H])c([H])c2[H])C([H])([H])c2c([H])c([H])c([H])c([H])c2[H])C([H])([H])C([H])([H])C1([H])[H])C([H])([H])C([H])([H])C([H])([H])N([H])C(=N[H])N([H])[H]


 66 69  0  0  0  0  0  0  0  0999 V2000
   39.1519   15.9348  -10.5349 C   0  0  0  0  0  0  0  0  0  0  0  0
   40.0138   15.2667   -9.6566 N   0  0  0  0  0  0  0  0  0  0  0  0
   39.4292   14.5049   -8.5922 C   0  0  0  0  0  0  0  0  0  0  0  0
   38.1557   14.5143   -8.5697 O   0  0  0  0  0  0  0  0  0  0  0  0
   41.0676   15.3001   -9.7406 H   0  0  0  0  0  0  0  0  0  0  0  0
   40.1207   13.7577   -7.5723 C   0  0  0  0  0  0  0  0  0  0  0  0
   39.1976   13.6559   -6.3093 C   0  0  0  0  0  0  0  0  0  0  0  0
   39.2978   15.0292   -5.6754 C   0  0  0  0  0  0  0  0  0  0  0  0
   40.5009   15.6542   -6.3640 C   0  0  0  0  0  0  0  0  0  0  0  0
   41.1952   14.5001   -6.9292 N   0  0  0  0  0  0  0  0  0  0  0  0
   42.5126   14.1351   -6.7424 C   0  0  0  0  0  0  0  0  0  0  0  0
   43.3454   14.9374   -6.3037 O   0  0  0  0  0  0  0  0  0  0  0  0
   42.9936   12.7292   -7.0472 C   0  0  0  0  0  0  0  0  0  0  0  0
   43.3087   12.7955   -8.4744 N   0  0  0  0  0  0  0  0  0  0  0  0
   44.6723   12.6619   -8.9149 C   0  0  0  0  0  0  0  0  0  0  0  0
   45.5879   12.4835   -8.0858 O   0  0  0  0  0  0  0  0  0  0  0  0
   42.5825   12.9423   -9.1736 H   0  0  0  0  0  0  0  0  0  0  0  0
   45.0046   12.7378  -10.2534 O   0  0  0  0  0  0  0  0  0  0  0  0
   44.2106   13.3534  -11.2116 C   0  0  0  0  0  0  0  0  0  0  0  0
   44.5394   13.2297  -12.6108 C   0  0  0  0  0  0  0  0  0  0  0  0
   45.8034   12.7909  -12.9529 C   0  0  0  0  0  0  0  0  0  0  0  0
   46.2201   12.6554  -14.2793 C   0  0  0  0  0  0  0  0  0  0  0  0
   45.3410   12.9702  -15.2865 C   0  0  0  0  0  0  0  0  0  0  0  0
   44.0605   13.4166  -14.9228 C   0  0  0  0  0  0  0  0  0  0  0  0
   43.6704   13.5426  -13.6149 C   0  0  0  0  0  0  0  0  0  0  0  0
   42.0538   11.6656   -6.6986 C   0  0  0  0  0  0  0  0  0  0  0  0
   42.4599   10.7849   -5.5623 C   0  0  0  0  0  0  0  0  0  0  0  0
   43.5180    9.9391   -5.7429 C   0  0  0  0  0  0  0  0  0  0  0  0
   43.9422    9.1033   -4.7538 C   0  0  0  0  0  0  0  0  0  0  0  0
   43.2991    9.0793   -3.4987 C   0  0  0  0  0  0  0  0  0  0  0  0
   42.2365    9.9478   -3.3613 C   0  0  0  0  0  0  0  0  0  0  0  0
   41.8086   10.7956   -4.3638 C   0  0  0  0  0  0  0  0  0  0  0  0
   39.2984   15.6268  -11.9857 C   0  0  0  0  0  0  0  0  0  0  0  0
   39.9935   16.3796  -12.6990 O   0  0  0  0  0  0  0  0  0  0  0  0
   38.6665   14.5125  -12.5187 N   0  0  0  0  0  0  0  0  0  0  0  0
   38.1215   13.9282  -11.7856 H   0  0  0  0  0  0  0  0  0  0  0  0
   38.5997   13.9754  -13.9003 C   0  0  0  0  0  0  0  0  0  0  0  0
   37.6034   12.9174  -13.8240 C   0  0  0  0  0  0  0  0  0  0  0  0
   37.2219   12.4613  -12.6847 O   0  0  0  0  0  0  0  0  0  0  0  0
   36.9549   12.3139  -14.9798 C   0  0  0  0  0  0  0  0  0  0  0  0
   37.4865   11.6951  -16.0388 N   0  0  0  0  0  0  0  0  0  0  0  0
   36.7174   11.2369  -16.9672 C   0  0  0  0  0  0  0  0  0  0  0  0
   35.3694   11.3990  -16.8431 C   0  0  0  0  0  0  0  0  0  0  0  0
   35.2696   12.2266  -15.3498 S   0  0  0  0  0  0  0  0  0  0  0  0
   39.9894   13.6625  -14.2991 C   0  0  0  0  0  0  0  0  0  0  0  0
   40.5147   13.0762  -15.4962 C   0  0  0  0  0  0  0  0  0  0  0  0
   40.3502   13.5417  -16.8683 C   0  0  0  0  0  0  0  0  0  0  0  0
   40.6410   12.8574  -18.0400 N   0  0  0  0  0  0  0  0  0  0  0  0
   41.4338   13.2971  -18.6440 H   0  0  0  0  0  0  0  0  0  0  0  0
   40.1087   11.6941  -18.6126 C   0  0  0  0  0  0  0  0  0  0  0  0
   39.8888   10.5132  -17.8150 N   0  0  0  0  0  0  0  0  0  0  0  0
   39.8137   11.5972  -19.8424 N   0  0  0  0  0  0  0  0  0  0  0  0
   39.4363    9.6629  -18.1882 H   0  0  0  0  0  0  0  0  0  0  0  0
   40.2091   10.5532  -16.8109 H   0  0  0  0  0  0  0  0  0  0  0  0
   39.9608   12.3985  -20.5101 H   0  0  0  0  0  0  0  0  0  0  0  0
   39.1569   17.4330  -10.2564 C   0  0  0  0  0  0  0  0  0  0  0  0
   37.7454   17.9575  -10.1317 C   0  0  0  0  0  0  0  0  0  0  0  0
   36.7375   16.8751  -10.0471 C   0  0  0  0  0  0  0  0  0  0  0  0
   35.8763   16.7963  -11.1908 N   0  0  0  0  0  0  0  0  0  0  0  0
   35.4782   17.5709  -11.7046 H   0  0  0  0  0  0  0  0  0  0  0  0
   35.7554   14.4852  -10.5448 N   0  0  0  0  0  0  0  0  0  0  0  0
   35.5627   15.4472  -11.6350 C   0  0  0  0  0  0  0  0  0  0  0  0
   35.2339   15.1238  -12.7472 N   0  0  0  0  0  0  0  0  0  0  0  0
   35.6039   13.4916  -10.7666 H   0  0  0  0  0  0  0  0  0  0  0  0
   36.0201   14.7716   -9.5987 H   0  0  0  0  0  0  0  0  0  0  0  0
   34.9884   14.8871  -13.5794 H   0  0  0  0  0  0  0  0  0  0  0  0
 61 62  1  0  0  0
 62 63  2  0  0  0
 62 59  1  0  0  0
 59 58  1  0  0  0
 58 57  1  0  0  0
 57 56  1  0  0  0
 56  1  1  0  0  0
  1  2  1  0  0  0
  2  3  1  0  0  0
  3  4  2  0  0  0
  3  6  1  0  0  0
  6  7  1  0  0  0
  7  8  1  0  0  0
  8  9  1  0  0  0
  9 10  1  0  0  0
 10 11  1  0  0  0
 11 12  2  0  0  0
 11 13  1  0  0  0
 13 26  1  0  0  0
 26 27  1  0  0  0
 27 28  2  0  0  0
 28 29  1  0  0  0
 29 30  2  0  0  0
 30 31  1  0  0  0
 31 32  2  0  0  0
 13 14  1  0  0  0
 14 15  1  0  0  0
 15 16  2  0  0  0
 15 18  1  0  0  0
 18 19  1  0  0  0
 19 20  1  0  0  0
 20 21  2  0  0  0
 21 22  1  0  0  0
 22 23  2  0  0  0
 23 24  1  0  0  0
 24 25  2  0  0  0
  1 33  1  0  0  0
 33 34  2  0  0  0
 33 35  1  0  0  0
 35 37  1  0  0  0
 37 45  1  0  0  0
 45 46  1  0  0  0
 46 47  1  0  0  0
 47 48  1  0  0  0
 48 50  1  0  0  0
 50 51  1  0  0  0
 50 52  2  0  0  0
 37 38  1  0  0  0
 38 39  2  0  0  0
 38 40  1  0  0  0
 40 41  2  0  0  0
 41 42  1  0  0  0
 42 43  2  0  0  0
 43 44  1  0  0  0
 10  6  1  0  0  0
 32 27  1  0  0  0
 25 20  1  0  0  0
 44 40  1  0  0  0
 61 64  1  0  0  0
 61 65  1  0  0  0
 63 66  1  0  0  0
 59 60  1  0  0  0
  2  5  1  0  0  0
 14 17  1  0  0  0
 35 36  1  0  0  0
 48 49  1  0  0  0
 51 53  1  0  0  0
 51 54  1  0  0  0
 52 55  1  0  0  0
M  END
> <minimizedAffinity>
-8.24644

> <CNNscore>
0.4506868422

> <CNNaffinity>
7.5039100647

> <CNN_VS>
3.3819134235

> <CNNaffinity_variance>
0.7489858866

$$$$
[H]N=C(N([H])[H])N([H])C([H])([H])C([H])([H])C([H])([H])[C@@]([H])(C(=O)c1nc([H])c([H])s1)N([H])C(=O)[C@@]([H])(N([H])C(=O)[C@@]1([H])N(C(=O)[C@]([H])(N([H])C(=O)OC([H])([H])c2c([H])c([H])c([H])c([H])c2[H])C([H])([H])c2c([H])c([H])c([H])c([H])c2[H])C([H])([H])C([H])([H])C1([H])[H])C([H])([H])C([H])([H])C([H])([H])N([H])C(=N[H])N([H])[H]


 66 69  0  0  0  0  0  0  0  0999 V2000
   38.8746   15.5601  -11.0928 C   0  0  0  0  0  0  0  0  0  0  0  0
   39.4971   15.9816   -9.9114 N   0  0  0  0  0  0  0  0  0  0  0  0
   39.0450   15.4141   -8.6751 C   0  0  0  0  0  0  0  0  0  0  0  0
   38.1079   14.5596   -8.7942 O   0  0  0  0  0  0  0  0  0  0  0  0
   40.2774   16.6953   -9.8896 H   0  0  0  0  0  0  0  0  0  0  0  0
   39.5281   15.7116   -7.3504 C   0  0  0  0  0  0  0  0  0  0  0  0
   41.0290   16.1535   -7.4492 C   0  0  0  0  0  0  0  0  0  0  0  0
   41.7767   14.8524   -7.6641 C   0  0  0  0  0  0  0  0  0  0  0  0
   40.7519   13.7876   -7.3058 C   0  0  0  0  0  0  0  0  0  0  0  0
   39.7599   14.5299   -6.5323 N   0  0  0  0  0  0  0  0  0  0  0  0
   39.2982   14.2477   -5.2631 C   0  0  0  0  0  0  0  0  0  0  0  0
   39.4625   13.1332   -4.7528 O   0  0  0  0  0  0  0  0  0  0  0  0
   38.5871   15.2970   -4.4299 C   0  0  0  0  0  0  0  0  0  0  0  0
   39.6922   15.9888   -3.7658 N   0  0  0  0  0  0  0  0  0  0  0  0
   39.8746   17.4028   -3.9619 C   0  0  0  0  0  0  0  0  0  0  0  0
   39.0909   18.0442   -4.6913 O   0  0  0  0  0  0  0  0  0  0  0  0
   40.3485   15.4908   -3.1666 H   0  0  0  0  0  0  0  0  0  0  0  0
   40.9181   18.0815   -3.3636 O   0  0  0  0  0  0  0  0  0  0  0  0
   41.9373   18.7064   -4.0696 C   0  0  0  0  0  0  0  0  0  0  0  0
   42.9135   17.9172   -4.7805 C   0  0  0  0  0  0  0  0  0  0  0  0
   43.2835   16.6963   -4.2514 C   0  0  0  0  0  0  0  0  0  0  0  0
   44.2323   15.8693   -4.8574 C   0  0  0  0  0  0  0  0  0  0  0  0
   44.8233   16.2830   -6.0261 C   0  0  0  0  0  0  0  0  0  0  0  0
   44.4380   17.5271   -6.5505 C   0  0  0  0  0  0  0  0  0  0  0  0
   43.5046   18.3242   -5.9407 C   0  0  0  0  0  0  0  0  0  0  0  0
   37.5784   14.7757   -3.5097 C   0  0  0  0  0  0  0  0  0  0  0  0
   36.1569   14.9564   -3.9319 C   0  0  0  0  0  0  0  0  0  0  0  0
   35.5440   13.9348   -4.6015 C   0  0  0  0  0  0  0  0  0  0  0  0
   34.2514   14.0296   -5.0223 C   0  0  0  0  0  0  0  0  0  0  0  0
   33.4936   15.1946   -4.7815 C   0  0  0  0  0  0  0  0  0  0  0  0
   34.1519   16.1995   -4.1041 C   0  0  0  0  0  0  0  0  0  0  0  0
   35.4613   16.1017   -3.6768 C   0  0  0  0  0  0  0  0  0  0  0  0
   39.7084   15.5555  -12.3280 C   0  0  0  0  0  0  0  0  0  0  0  0
   40.3278   16.5918  -12.6463 O   0  0  0  0  0  0  0  0  0  0  0  0
   39.7864   14.4053  -13.1001 N   0  0  0  0  0  0  0  0  0  0  0  0
   39.2264   13.5698  -12.6950 H   0  0  0  0  0  0  0  0  0  0  0  0
   40.4918   14.1093  -14.3714 C   0  0  0  0  0  0  0  0  0  0  0  0
   39.5813   13.2287  -15.0879 C   0  0  0  0  0  0  0  0  0  0  0  0
   39.9134   12.7332  -16.2262 O   0  0  0  0  0  0  0  0  0  0  0  0
   38.2716   12.8243  -14.5963 C   0  0  0  0  0  0  0  0  0  0  0  0
   37.9318   12.2099  -13.4587 N   0  0  0  0  0  0  0  0  0  0  0  0
   36.6943   11.9321  -13.2243 C   0  0  0  0  0  0  0  0  0  0  0  0
   35.7568   12.2745  -14.1530 C   0  0  0  0  0  0  0  0  0  0  0  0
   36.7300   13.0040  -15.3554 S   0  0  0  0  0  0  0  0  0  0  0  0
   41.8459   13.6409  -14.0036 C   0  0  0  0  0  0  0  0  0  0  0  0
   43.0407   14.3686  -13.6941 C   0  0  0  0  0  0  0  0  0  0  0  0
   44.3218   14.3242  -14.3891 C   0  0  0  0  0  0  0  0  0  0  0  0
   44.5649   13.9492  -15.7029 N   0  0  0  0  0  0  0  0  0  0  0  0
   44.2045   14.6502  -16.4548 H   0  0  0  0  0  0  0  0  0  0  0  0
   45.1912   12.8289  -16.2661 C   0  0  0  0  0  0  0  0  0  0  0  0
   44.6373   12.1809  -17.4290 N   0  0  0  0  0  0  0  0  0  0  0  0
   46.2464   12.3101  -15.7902 N   0  0  0  0  0  0  0  0  0  0  0  0
   45.1079   11.3967  -17.9092 H   0  0  0  0  0  0  0  0  0  0  0  0
   43.7149   12.5501  -17.7829 H   0  0  0  0  0  0  0  0  0  0  0  0
   46.7121   12.6982  -14.9289 H   0  0  0  0  0  0  0  0  0  0  0  0
   37.5493   16.2860  -11.2899 C   0  0  0  0  0  0  0  0  0  0  0  0
   36.6041   15.4540  -12.1251 C   0  0  0  0  0  0  0  0  0  0  0  0
   35.1806   15.7749  -11.8700 C   0  0  0  0  0  0  0  0  0  0  0  0
   34.3602   14.6216  -11.6400 N   0  0  0  0  0  0  0  0  0  0  0  0
   34.5242   13.8853  -10.9667 H   0  0  0  0  0  0  0  0  0  0  0  0
   33.5121   14.7825  -13.8823 N   0  0  0  0  0  0  0  0  0  0  0  0
   33.1742   14.5313  -12.4774 C   0  0  0  0  0  0  0  0  0  0  0  0
   32.0500   14.3276  -12.0975 N   0  0  0  0  0  0  0  0  0  0  0  0
   32.7340   14.7874  -14.5560 H   0  0  0  0  0  0  0  0  0  0  0  0
   34.4729   14.9395  -14.1976 H   0  0  0  0  0  0  0  0  0  0  0  0
   31.2120   14.1750  -11.8088 H   0  0  0  0  0  0  0  0  0  0  0  0
 61 62  1  0  0  0
 62 63  2  0  0  0
 62 59  1  0  0  0
 59 58  1  0  0  0
 58 57  1  0  0  0
 57 56  1  0  0  0
 56  1  1  0  0  0
  1  2  1  0  0  0
  2  3  1  0  0  0
  3  4  2  0  0  0
  3  6  1  0  0  0
  6  7  1  0  0  0
  7  8  1  0  0  0
  8  9  1  0  0  0
  9 10  1  0  0  0
 10 11  1  0  0  0
 11 12  2  0  0  0
 11 13  1  0  0  0
 13 26  1  0  0  0
 26 27  1  0  0  0
 27 28  2  0  0  0
 28 29  1  0  0  0
 29 30  2  0  0  0
 30 31  1  0  0  0
 31 32  2  0  0  0
 13 14  1  0  0  0
 14 15  1  0  0  0
 15 16  2  0  0  0
 15 18  1  0  0  0
 18 19  1  0  0  0
 19 20  1  0  0  0
 20 21  2  0  0  0
 21 22  1  0  0  0
 22 23  2  0  0  0
 23 24  1  0  0  0
 24 25  2  0  0  0
  1 33  1  0  0  0
 33 34  2  0  0  0
 33 35  1  0  0  0
 35 37  1  0  0  0
 37 45  1  0  0  0
 45 46  1  0  0  0
 46 47  1  0  0  0
 47 48  1  0  0  0
 48 50  1  0  0  0
 50 51  1  0  0  0
 50 52  2  0  0  0
 37 38  1  0  0  0
 38 39  2  0  0  0
 38 40  1  0  0  0
 40 41  2  0  0  0
 41 42  1  0  0  0
 42 43  2  0  0  0
 43 44  1  0  0  0
 10  6  1  0  0  0
 32 27  1  0  0  0
 25 20  1  0  0  0
 44 40  1  0  0  0
 61 64  1  0  0  0
 61 65  1  0  0  0
 63 66  1  0  0  0
 59 60  1  0  0  0
  2  5  1  0  0  0
 14 17  1  0  0  0
 35 36  1  0  0  0
 48 49  1  0  0  0
 51 53  1  0  0  0
 51 54  1  0  0  0
 52 55  1  0  0  0
M  END
> <minimizedAffinity>
-7.25114

> <CNNscore>
0.4084620774

> <CNNaffinity>
7.1634697914

> <CNN_VS>
2.9260058403

> <CNNaffinity_variance>
0.6996718645

$$$$
[H]N=C(N([H])[H])N([H])C([H])([H])C([H])([H])C([H])([H])[C@@]([H])(C(=O)c1nc([H])c([H])s1)N([H])C(=O)[C@@]([H])(N([H])C(=O)[C@@]1([H])N(C(=O)[C@]([H])(N([H])C(=O)OC([H])([H])c2c([H])c([H])c([H])c([H])c2[H])C([H])([H])c2c([H])c([H])c([H])c([H])c2[H])C([H])([H])C([H])([H])C1([H])[H])C([H])([H])C([H])([H])C([H])([H])N([H])C(=N[H])N([H])[H]


 66 69  0  0  0  0  0  0  0  0999 V2000
   36.8439   15.3507  -11.0263 C   0  0  0  0  0  0  0  0  0  0  0  0
   37.7846   15.8554  -10.1202 N   0  0  0  0  0  0  0  0  0  0  0  0
   37.7725   15.3394   -8.7828 C   0  0  0  0  0  0  0  0  0  0  0  0
   36.8887   14.4484   -8.5653 O   0  0  0  0  0  0  0  0  0  0  0  0
   38.4961   16.5955  -10.3747 H   0  0  0  0  0  0  0  0  0  0  0  0
   38.6323   15.7234   -7.6918 C   0  0  0  0  0  0  0  0  0  0  0  0
   40.0295   16.1340   -8.2723 C   0  0  0  0  0  0  0  0  0  0  0  0
   40.6860   14.8096   -8.6082 C   0  0  0  0  0  0  0  0  0  0  0  0
   39.8255   13.7889   -7.8800 C   0  0  0  0  0  0  0  0  0  0  0  0
   39.1094   14.5997   -6.8987 N   0  0  0  0  0  0  0  0  0  0  0  0
   39.0561   14.4161   -5.5322 C   0  0  0  0  0  0  0  0  0  0  0  0
   39.3751   13.3385   -5.0160 O   0  0  0  0  0  0  0  0  0  0  0  0
   38.6235   15.5330   -4.6015 C   0  0  0  0  0  0  0  0  0  0  0  0
   39.8980   16.0886   -4.1458 N   0  0  0  0  0  0  0  0  0  0  0  0
   40.2838   17.4174   -4.5415 C   0  0  0  0  0  0  0  0  0  0  0  0
   39.5335   18.1017   -5.2670 O   0  0  0  0  0  0  0  0  0  0  0  0
   40.5314   15.5525   -3.5547 H   0  0  0  0  0  0  0  0  0  0  0  0
   41.4880   17.9636   -4.1428 O   0  0  0  0  0  0  0  0  0  0  0  0
   42.6970   17.2825   -4.1892 C   0  0  0  0  0  0  0  0  0  0  0  0
   43.1836   16.7582   -5.4420 C   0  0  0  0  0  0  0  0  0  0  0  0
   43.3843   15.3962   -5.5513 C   0  0  0  0  0  0  0  0  0  0  0  0
   43.8684   14.7974   -6.7168 C   0  0  0  0  0  0  0  0  0  0  0  0
   44.1578   15.5911   -7.7996 C   0  0  0  0  0  0  0  0  0  0  0  0
   43.9503   16.9739   -7.6725 C   0  0  0  0  0  0  0  0  0  0  0  0
   43.4741   17.5424   -6.5199 C   0  0  0  0  0  0  0  0  0  0  0  0
   37.7358   15.1230   -3.5152 C   0  0  0  0  0  0  0  0  0  0  0  0
   36.3002   15.5069   -3.6680 C   0  0  0  0  0  0  0  0  0  0  0  0
   36.0091   16.7610   -4.1264 C   0  0  0  0  0  0  0  0  0  0  0  0
   34.7234   17.1833   -4.2862 C   0  0  0  0  0  0  0  0  0  0  0  0
   33.6381   16.3358   -3.9810 C   0  0  0  0  0  0  0  0  0  0  0  0
   33.9781   15.0808   -3.5211 C   0  0  0  0  0  0  0  0  0  0  0  0
   35.2814   14.6534   -3.3610 C   0  0  0  0  0  0  0  0  0  0  0  0
   37.2921   15.1822  -12.4376 C   0  0  0  0  0  0  0  0  0  0  0  0
   36.9292   16.0155  -13.2935 O   0  0  0  0  0  0  0  0  0  0  0  0
   38.1042   14.1097  -12.7772 N   0  0  0  0  0  0  0  0  0  0  0  0
   38.3703   13.4807  -11.9349 H   0  0  0  0  0  0  0  0  0  0  0  0
   38.6732   13.6672  -14.0741 C   0  0  0  0  0  0  0  0  0  0  0  0
   38.1109   12.3402  -14.2762 C   0  0  0  0  0  0  0  0  0  0  0  0
   37.9897   11.5257  -13.2897 O   0  0  0  0  0  0  0  0  0  0  0  0
   37.6323   11.8364  -15.5560 C   0  0  0  0  0  0  0  0  0  0  0  0
   36.3834   11.6809  -16.0066 N   0  0  0  0  0  0  0  0  0  0  0  0
   36.1820   11.2003  -17.1864 C   0  0  0  0  0  0  0  0  0  0  0  0
   37.2591   10.8589  -17.9493 C   0  0  0  0  0  0  0  0  0  0  0  0
   38.5500   11.2597  -16.9014 S   0  0  0  0  0  0  0  0  0  0  0  0
   40.1380   13.8484  -13.9761 C   0  0  0  0  0  0  0  0  0  0  0  0
   41.2163   13.1512  -14.6118 C   0  0  0  0  0  0  0  0  0  0  0  0
   41.6069   13.1949  -16.0160 C   0  0  0  0  0  0  0  0  0  0  0  0
   42.6901   12.5706  -16.6181 N   0  0  0  0  0  0  0  0  0  0  0  0
   42.4391   11.9254  -17.4591 H   0  0  0  0  0  0  0  0  0  0  0  0
   44.0665   12.6036  -16.3554 C   0  0  0  0  0  0  0  0  0  0  0  0
   44.7096   13.8260  -15.9418 N   0  0  0  0  0  0  0  0  0  0  0  0
   44.8225   11.5930  -16.4822 N   0  0  0  0  0  0  0  0  0  0  0  0
   45.7065   13.8706  -15.6751 H   0  0  0  0  0  0  0  0  0  0  0  0
   44.1084   14.6922  -15.9151 H   0  0  0  0  0  0  0  0  0  0  0  0
   44.4495   10.6613  -16.8020 H   0  0  0  0  0  0  0  0  0  0  0  0
   35.5319   16.1187  -10.9219 C   0  0  0  0  0  0  0  0  0  0  0  0
   34.3591   15.1673  -10.8695 C   0  0  0  0  0  0  0  0  0  0  0  0
   33.5194   15.2257  -12.0884 C   0  0  0  0  0  0  0  0  0  0  0  0
   33.2867   13.9460  -12.6920 N   0  0  0  0  0  0  0  0  0  0  0  0
   32.4186   13.4274  -12.6984 H   0  0  0  0  0  0  0  0  0  0  0  0
   34.7844   14.1226  -14.5625 N   0  0  0  0  0  0  0  0  0  0  0  0
   34.4389   13.3596  -13.3585 C   0  0  0  0  0  0  0  0  0  0  0  0
   35.0220   12.3611  -13.0226 N   0  0  0  0  0  0  0  0  0  0  0  0
   35.5605   13.7642  -15.1356 H   0  0  0  0  0  0  0  0  0  0  0  0
   34.2925   14.9787  -14.8314 H   0  0  0  0  0  0  0  0  0  0  0  0
   35.4545   11.6150  -12.7675 H   0  0  0  0  0  0  0  0  0  0  0  0
 61 62  1  0  0  0
 62 63  2  0  0  0
 62 59  1  0  0  0
 59 58  1  0  0  0
 58 57  1  0  0  0
 57 56  1  0  0  0
 56  1  1  0  0  0
  1  2  1  0  0  0
  2  3  1  0  0  0
  3  4  2  0  0  0
  3  6  1  0  0  0
  6  7  1  0  0  0
  7  8  1  0  0  0
  8  9  1  0  0  0
  9 10  1  0  0  0
 10 11  1  0  0  0
 11 12  2  0  0  0
 11 13  1  0  0  0
 13 26  1  0  0  0
 26 27  1  0  0  0
 27 28  2  0  0  0
 28 29  1  0  0  0
 29 30  2  0  0  0
 30 31  1  0  0  0
 31 32  2  0  0  0
 13 14  1  0  0  0
 14 15  1  0  0  0
 15 16  2  0  0  0
 15 18  1  0  0  0
 18 19  1  0  0  0
 19 20  1  0  0  0
 20 21  2  0  0  0
 21 22  1  0  0  0
 22 23  2  0  0  0
 23 24  1  0  0  0
 24 25  2  0  0  0
  1 33  1  0  0  0
 33 34  2  0  0  0
 33 35  1  0  0  0
 35 37  1  0  0  0
 37 45  1  0  0  0
 45 46  1  0  0  0
 46 47  1  0  0  0
 47 48  1  0  0  0
 48 50  1  0  0  0
 50 51  1  0  0  0
 50 52  2  0  0  0
 37 38  1  0  0  0
 38 39  2  0  0  0
 38 40  1  0  0  0
 40 41  2  0  0  0
 41 42  1  0  0  0
 42 43  2  0  0  0
 43 44  1  0  0  0
 10  6  1  0  0  0
 32 27  1  0  0  0
 25 20  1  0  0  0
 44 40  1  0  0  0
 61 64  1  0  0  0
 61 65  1  0  0  0
 63 66  1  0  0  0
 59 60  1  0  0  0
  2  5  1  0  0  0
 14 17  1  0  0  0
 35 36  1  0  0  0
 48 49  1  0  0  0
 51 53  1  0  0  0
 51 54  1  0  0  0
 52 55  1  0  0  0
M  END
> <minimizedAffinity>
-7.06761

> <CNNscore>
0.2804040313

> <CNNaffinity>
7.2183732986

> <CNN_VS>
2.0240609646

> <CNNaffinity_variance>
0.3819344640

$$$$
[H]N=C(N([H])[H])N([H])C([H])([H])C([H])([H])C([H])([H])[C@@]([H])(C(=O)c1nc([H])c([H])s1)N([H])C(=O)[C@@]([H])(N([H])C(=O)[C@@]1([H])N(C(=O)[C@]([H])(N([H])C(=O)OC([H])([H])c2c([H])c([H])c([H])c([H])c2[H])C([H])([H])c2c([H])c([H])c([H])c([H])c2[H])C([H])([H])C([H])([H])C1([H])[H])C([H])([H])C([H])([H])C([H])([H])N([H])C(=N[H])N([H])[H]


 66 69  0  0  0  0  0  0  0  0999 V2000
   34.2799   15.4264   -9.8704 C   0  0  0  0  0  0  0  0  0  0  0  0
   35.0105   15.8330   -8.7473 N   0  0  0  0  0  0  0  0  0  0  0  0
   36.1606   15.0605   -8.3788 C   0  0  0  0  0  0  0  0  0  0  0  0
   36.4006   14.0688   -9.1411 O   0  0  0  0  0  0  0  0  0  0  0  0
   34.7534   16.6756   -8.1618 H   0  0  0  0  0  0  0  0  0  0  0  0
   37.0411   15.2860   -7.2605 C   0  0  0  0  0  0  0  0  0  0  0  0
   37.6562   13.9132   -6.8191 C   0  0  0  0  0  0  0  0  0  0  0  0
   36.5266   13.2339   -6.0704 C   0  0  0  0  0  0  0  0  0  0  0  0
   35.5360   14.3599   -5.8190 C   0  0  0  0  0  0  0  0  0  0  0  0
   36.3441   15.5610   -6.0124 N   0  0  0  0  0  0  0  0  0  0  0  0
   36.5190   16.6093   -5.1324 C   0  0  0  0  0  0  0  0  0  0  0  0
   35.7478   16.7854   -4.1818 O   0  0  0  0  0  0  0  0  0  0  0  0
   37.6755   17.5796   -5.2798 C   0  0  0  0  0  0  0  0  0  0  0  0
   38.7553   16.9116   -4.5527 N   0  0  0  0  0  0  0  0  0  0  0  0
   39.9760   16.5713   -5.2348 C   0  0  0  0  0  0  0  0  0  0  0  0
   40.1213   16.8485   -6.4429 O   0  0  0  0  0  0  0  0  0  0  0  0
   38.6640   16.6713   -3.5670 H   0  0  0  0  0  0  0  0  0  0  0  0
   41.0067   15.9246   -4.5813 O   0  0  0  0  0  0  0  0  0  0  0  0
   42.1315   15.4226   -5.2220 C   0  0  0  0  0  0  0  0  0  0  0  0
   42.2648   14.0031   -5.4420 C   0  0  0  0  0  0  0  0  0  0  0  0
   41.2679   13.3492   -6.1390 C   0  0  0  0  0  0  0  0  0  0  0  0
   41.2995   11.9748   -6.3871 C   0  0  0  0  0  0  0  0  0  0  0  0
   42.3625   11.2407   -5.9208 C   0  0  0  0  0  0  0  0  0  0  0  0
   43.3670   11.9193   -5.2125 C   0  0  0  0  0  0  0  0  0  0  0  0
   43.3178   13.2691   -4.9796 C   0  0  0  0  0  0  0  0  0  0  0  0
   37.4042   18.9390   -4.8166 C   0  0  0  0  0  0  0  0  0  0  0  0
   37.1620   19.9545   -5.8851 C   0  0  0  0  0  0  0  0  0  0  0  0
   37.7831   19.7882   -7.0911 C   0  0  0  0  0  0  0  0  0  0  0  0
   37.6139   20.6760   -8.1109 C   0  0  0  0  0  0  0  0  0  0  0  0
   36.7867   21.8081   -7.9576 C   0  0  0  0  0  0  0  0  0  0  0  0
   36.1813   21.9364   -6.7250 C   0  0  0  0  0  0  0  0  0  0  0  0
   36.3522   21.0351   -5.6928 C   0  0  0  0  0  0  0  0  0  0  0  0
   34.9844   15.4691  -11.1830 C   0  0  0  0  0  0  0  0  0  0  0  0
   35.5414   16.5282  -11.5390 O   0  0  0  0  0  0  0  0  0  0  0  0
   35.0137   14.3367  -11.9842 N   0  0  0  0  0  0  0  0  0  0  0  0
   34.5194   13.4781  -11.5435 H   0  0  0  0  0  0  0  0  0  0  0  0
   35.5944   14.0852  -13.3263 C   0  0  0  0  0  0  0  0  0  0  0  0
   34.5223   13.4318  -14.0622 C   0  0  0  0  0  0  0  0  0  0  0  0
   33.2936   13.7134  -13.8125 O   0  0  0  0  0  0  0  0  0  0  0  0
   34.7293   12.4538  -15.1211 C   0  0  0  0  0  0  0  0  0  0  0  0
   35.7667   12.2873  -15.9476 N   0  0  0  0  0  0  0  0  0  0  0  0
   35.7381   11.3495  -16.8326 C   0  0  0  0  0  0  0  0  0  0  0  0
   34.6390   10.5460  -16.9030 C   0  0  0  0  0  0  0  0  0  0  0  0
   33.6699   11.1969  -15.6530 S   0  0  0  0  0  0  0  0  0  0  0  0
   36.8798   13.3870  -13.1059 C   0  0  0  0  0  0  0  0  0  0  0  0
   38.1846   13.8937  -12.7999 C   0  0  0  0  0  0  0  0  0  0  0  0
   38.5302   15.1863  -12.2203 C   0  0  0  0  0  0  0  0  0  0  0  0
   38.6997   15.4998  -10.8791 N   0  0  0  0  0  0  0  0  0  0  0  0
   38.7148   14.6436  -10.2057 H   0  0  0  0  0  0  0  0  0  0  0  0
   38.8567   16.7188  -10.2055 C   0  0  0  0  0  0  0  0  0  0  0  0
   37.9561   17.8181  -10.4497 N   0  0  0  0  0  0  0  0  0  0  0  0
   39.7898   16.9386   -9.3748 N   0  0  0  0  0  0  0  0  0  0  0  0
   38.0012   18.7053   -9.9226 H   0  0  0  0  0  0  0  0  0  0  0  0
   37.2285   17.6768  -11.2001 H   0  0  0  0  0  0  0  0  0  0  0  0
   40.5109   16.2050   -9.1480 H   0  0  0  0  0  0  0  0  0  0  0  0
   32.9279   16.1280   -9.9144 C   0  0  0  0  0  0  0  0  0  0  0  0
   32.0623   15.6921   -8.7552 C   0  0  0  0  0  0  0  0  0  0  0  0
   30.7022   15.2845   -9.1775 C   0  0  0  0  0  0  0  0  0  0  0  0
   30.6832   14.1364  -10.0364 N   0  0  0  0  0  0  0  0  0  0  0  0
   30.9938   13.2019   -9.8065 H   0  0  0  0  0  0  0  0  0  0  0  0
   28.7446   14.7711  -11.3060 N   0  0  0  0  0  0  0  0  0  0  0  0
   30.1546   14.3729  -11.3708 C   0  0  0  0  0  0  0  0  0  0  0  0
   30.7498   14.2260  -12.4071 N   0  0  0  0  0  0  0  0  0  0  0  0
   28.2595   14.9190  -12.2017 H   0  0  0  0  0  0  0  0  0  0  0  0
   28.2517   14.9081  -10.4197 H   0  0  0  0  0  0  0  0  0  0  0  0
   31.1986   14.1151  -13.1785 H   0  0  0  0  0  0  0  0  0  0  0  0
 61 62  1  0  0  0
 62 63  2  0  0  0
 62 59  1  0  0  0
 59 58  1  0  0  0
 58 57  1  0  0  0
 57 56  1  0  0  0
 56  1  1  0  0  0
  1  2  1  0  0  0
  2  3  1  0  0  0
  3  4  2  0  0  0
  3  6  1  0  0  0
  6  7  1  0  0  0
  7  8  1  0  0  0
  8  9  1  0  0  0
  9 10  1  0  0  0
 10 11  1  0  0  0
 11 12  2  0  0  0
 11 13  1  0  0  0
 13 26  1  0  0  0
 26 27  1  0  0  0
 27 28  2  0  0  0
 28 29  1  0  0  0
 29 30  2  0  0  0
 30 31  1  0  0  0
 31 32  2  0  0  0
 13 14  1  0  0  0
 14 15  1  0  0  0
 15 16  2  0  0  0
 15 18  1  0  0  0
 18 19  1  0  0  0
 19 20  1  0  0  0
 20 21  2  0  0  0
 21 22  1  0  0  0
 22 23  2  0  0  0
 23 24  1  0  0  0
 24 25  2  0  0  0
  1 33  1  0  0  0
 33 34  2  0  0  0
 33 35  1  0  0  0
 35 37  1  0  0  0
 37 45  1  0  0  0
 45 46  1  0  0  0
 46 47  1  0  0  0
 47 48  1  0  0  0
 48 50  1  0  0  0
 50 51  1  0  0  0
 50 52  2  0  0  0
 37 38  1  0  0  0
 38 39  2  0  0  0
 38 40  1  0  0  0
 40 41  2  0  0  0
 41 42  1  0  0  0
 42 43  2  0  0  0
 43 44  1  0  0  0
 10  6  1  0  0  0
 32 27  1  0  0  0
 25 20  1  0  0  0
 44 40  1  0  0  0
 61 64  1  0  0  0
 61 65  1  0  0  0
 63 66  1  0  0  0
 59 60  1  0  0  0
  2  5  1  0  0  0
 14 17  1  0  0  0
 35 36  1  0  0  0
 48 49  1  0  0  0
 51 53  1  0  0  0
 51 54  1  0  0  0
 52 55  1  0  0  0
M  END
> <minimizedAffinity>
-7.61432

> <CNNscore>
0.2774673402

> <CNNaffinity>
7.3182077408

> <CNN_VS>
2.0305635929

> <CNNaffinity_variance>
0.5491412878

$$$$
[H]N=C(N([H])[H])N([H])C([H])([H])C([H])([H])C([H])([H])[C@@]([H])(C(=O)c1nc([H])c([H])s1)N([H])C(=O)[C@@]([H])(N([H])C(=O)[C@@]1([H])N(C(=O)[C@]([H])(N([H])C(=O)OC([H])([H])c2c([H])c([H])c([H])c([H])c2[H])C([H])([H])c2c([H])c([H])c([H])c([H])c2[H])C([H])([H])C([H])([H])C1([H])[H])C([H])([H])C([H])([H])C([H])([H])N([H])C(=N[H])N([H])[H]


 66 69  0  0  0  0  0  0  0  0999 V2000
   38.6686   14.7933  -12.8894 C   0  0  0  0  0  0  0  0  0  0  0  0
   38.5476   14.7437  -11.4953 N   0  0  0  0  0  0  0  0  0  0  0  0
   37.3963   15.3556  -10.8992 C   0  0  0  0  0  0  0  0  0  0  0  0
   36.5856   15.8822  -11.7285 O   0  0  0  0  0  0  0  0  0  0  0  0
   39.2621   14.2815  -10.8670 H   0  0  0  0  0  0  0  0  0  0  0  0
   37.0795   15.4360   -9.4957 C   0  0  0  0  0  0  0  0  0  0  0  0
   36.0365   16.5863   -9.2800 C   0  0  0  0  0  0  0  0  0  0  0  0
   36.8647   17.8515   -9.3868 C   0  0  0  0  0  0  0  0  0  0  0  0
   38.2967   17.3520   -9.2752 C   0  0  0  0  0  0  0  0  0  0  0  0
   38.1392   16.0237   -8.6888 N   0  0  0  0  0  0  0  0  0  0  0  0
   38.7362   15.5310   -7.5466 C   0  0  0  0  0  0  0  0  0  0  0  0
   39.7281   16.0800   -7.0523 O   0  0  0  0  0  0  0  0  0  0  0  0
   38.1910   14.3071   -6.8355 C   0  0  0  0  0  0  0  0  0  0  0  0
   39.1622   13.2694   -7.1831 N   0  0  0  0  0  0  0  0  0  0  0  0
   39.9843   12.6836   -6.1573 C   0  0  0  0  0  0  0  0  0  0  0  0
   39.8691   13.0519   -4.9705 O   0  0  0  0  0  0  0  0  0  0  0  0
   39.2794   12.9505   -8.1435 H   0  0  0  0  0  0  0  0  0  0  0  0
   40.9225   11.7150   -6.4557 O   0  0  0  0  0  0  0  0  0  0  0  0
   42.2193   11.7185   -5.9597 C   0  0  0  0  0  0  0  0  0  0  0  0
   42.6495   10.6813   -5.0541 C   0  0  0  0  0  0  0  0  0  0  0  0
   43.9751   10.2946   -5.0793 C   0  0  0  0  0  0  0  0  0  0  0  0
   44.4820    9.2885   -4.2534 C   0  0  0  0  0  0  0  0  0  0  0  0
   43.6316    8.6558   -3.3799 C   0  0  0  0  0  0  0  0  0  0  0  0
   42.2867    9.0587   -3.3673 C   0  0  0  0  0  0  0  0  0  0  0  0
   41.8086   10.0486   -4.1859 C   0  0  0  0  0  0  0  0  0  0  0  0
   36.8113   13.9611   -7.1709 C   0  0  0  0  0  0  0  0  0  0  0  0
   35.8015   14.1961   -6.0954 C   0  0  0  0  0  0  0  0  0  0  0  0
   34.5233   14.5107   -6.4628 C   0  0  0  0  0  0  0  0  0  0  0  0
   33.5502   14.7436   -5.5378 C   0  0  0  0  0  0  0  0  0  0  0  0
   33.8289   14.6692   -4.1571 C   0  0  0  0  0  0  0  0  0  0  0  0
   35.1307   14.3500   -3.8323 C   0  0  0  0  0  0  0  0  0  0  0  0
   36.1156   14.1126   -4.7707 C   0  0  0  0  0  0  0  0  0  0  0  0
   38.4658   13.5150  -13.6283 C   0  0  0  0  0  0  0  0  0  0  0  0
   37.7625   12.6211  -13.1133 O   0  0  0  0  0  0  0  0  0  0  0  0
   39.0554   13.3392  -14.8719 N   0  0  0  0  0  0  0  0  0  0  0  0
   39.6129   14.2033  -15.2159 H   0  0  0  0  0  0  0  0  0  0  0  0
   39.0632   12.1925  -15.8134 C   0  0  0  0  0  0  0  0  0  0  0  0
   40.2625   12.3950  -16.6124 C   0  0  0  0  0  0  0  0  0  0  0  0
   40.2058   12.3564  -17.8957 O   0  0  0  0  0  0  0  0  0  0  0  0
   41.5815   12.6701  -16.0601 C   0  0  0  0  0  0  0  0  0  0  0  0
   41.9278   13.2953  -14.9304 N   0  0  0  0  0  0  0  0  0  0  0  0
   43.1745   13.4408  -14.6337 C   0  0  0  0  0  0  0  0  0  0  0  0
   44.1152   12.9494  -15.4895 C   0  0  0  0  0  0  0  0  0  0  0  0
   43.1309   12.2792  -16.7172 S   0  0  0  0  0  0  0  0  0  0  0  0
   37.7328   12.1680  -16.4598 C   0  0  0  0  0  0  0  0  0  0  0  0
   36.5632   11.3910  -16.1749 C   0  0  0  0  0  0  0  0  0  0  0  0
   35.3071   11.8449  -15.5896 C   0  0  0  0  0  0  0  0  0  0  0  0
   35.0513   13.0513  -14.9535 N   0  0  0  0  0  0  0  0  0  0  0  0
   35.5245   13.9202  -15.4094 H   0  0  0  0  0  0  0  0  0  0  0  0
   34.2939   13.3814  -13.8213 C   0  0  0  0  0  0  0  0  0  0  0  0
   34.8858   13.3630  -12.5066 N   0  0  0  0  0  0  0  0  0  0  0  0
   33.0643   13.6885  -13.8732 N   0  0  0  0  0  0  0  0  0  0  0  0
   34.3768   13.6654  -11.6602 H   0  0  0  0  0  0  0  0  0  0  0  0
   35.8834   13.0271  -12.4408 H   0  0  0  0  0  0  0  0  0  0  0  0
   32.5380   13.7067  -14.7854 H   0  0  0  0  0  0  0  0  0  0  0  0
   39.9586   15.4977  -13.2918 C   0  0  0  0  0  0  0  0  0  0  0  0
   40.6613   16.0593  -12.0777 C   0  0  0  0  0  0  0  0  0  0  0  0
   42.1369   15.9842  -12.1842 C   0  0  0  0  0  0  0  0  0  0  0  0
   42.7390   15.0819  -11.2464 N   0  0  0  0  0  0  0  0  0  0  0  0
   43.2216   14.2192  -11.4592 H   0  0  0  0  0  0  0  0  0  0  0  0
   41.6843   14.6105   -9.1397 N   0  0  0  0  0  0  0  0  0  0  0  0
   42.6288   15.4781   -9.8512 C   0  0  0  0  0  0  0  0  0  0  0  0
   43.1842   16.4115   -9.3316 N   0  0  0  0  0  0  0  0  0  0  0  0
   41.4976   14.8340   -8.1525 H   0  0  0  0  0  0  0  0  0  0  0  0
   41.2288   13.8102   -9.5860 H   0  0  0  0  0  0  0  0  0  0  0  0
   43.6016   17.1098   -8.9480 H   0  0  0  0  0  0  0  0  0  0  0  0
 61 62  1  0  0  0
 62 63  2  0  0  0
 62 59  1  0  0  0
 59 58  1  0  0  0
 58 57  1  0  0  0
 57 56  1  0  0  0
 56  1  1  0  0  0
  1  2  1  0  0  0
  2  3  1  0  0  0
  3  4  2  0  0  0
  3  6  1  0  0  0
  6  7  1  0  0  0
  7  8  1  0  0  0
  8  9  1  0  0  0
  9 10  1  0  0  0
 10 11  1  0  0  0
 11 12  2  0  0  0
 11 13  1  0  0  0
 13 26  1  0  0  0
 26 27  1  0  0  0
 27 28  2  0  0  0
 28 29  1  0  0  0
 29 30  2  0  0  0
 30 31  1  0  0  0
 31 32  2  0  0  0
 13 14  1  0  0  0
 14 15  1  0  0  0
 15 16  2  0  0  0
 15 18  1  0  0  0
 18 19  1  0  0  0
 19 20  1  0  0  0
 20 21  2  0  0  0
 21 22  1  0  0  0
 22 23  2  0  0  0
 23 24  1  0  0  0
 24 25  2  0  0  0
  1 33  1  0  0  0
 33 34  2  0  0  0
 33 35  1  0  0  0
 35 37  1  0  0  0
 37 45  1  0  0  0
 45 46  1  0  0  0
 46 47  1  0  0  0
 47 48  1  0  0  0
 48 50  1  0  0  0
 50 51  1  0  0  0
 50 52  2  0  0  0
 37 38  1  0  0  0
 38 39  2  0  0  0
 38 40  1  0  0  0
 40 41  2  0  0  0
 41 42  1  0  0  0
 42 43  2  0  0  0
 43 44  1  0  0  0
 10  6  1  0  0  0
 32 27  1  0  0  0
 25 20  1  0  0  0
 44 40  1  0  0  0
 61 64  1  0  0  0
 61 65  1  0  0  0
 63 66  1  0  0  0
 59 60  1  0  0  0
  2  5  1  0  0  0
 14 17  1  0  0  0
 35 36  1  0  0  0
 48 49  1  0  0  0
 51 53  1  0  0  0
 51 54  1  0  0  0
 52 55  1  0  0  0
M  END
> <minimizedAffinity>
-8.26903

> <CNNscore>
0.2733412683

> <CNNaffinity>
7.1800765991

> <CNN_VS>
1.9626111984

> <CNNaffinity_variance>
0.5425649881

$$$$
[H]N=C(N([H])[H])N([H])C([H])([H])C([H])([H])C([H])([H])[C@@]([H])(C(=O)c1nc([H])c([H])s1)N([H])C(=O)[C@@]([H])(N([H])C(=O)[C@@]1([H])N(C(=O)[C@]([H])(N([H])C(=O)OC([H])([H])c2c([H])c([H])c([H])c([H])c2[H])C([H])([H])c2c([H])c([H])c([H])c([H])c2[H])C([H])([H])C([H])([H])C1([H])[H])C([H])([H])C([H])([H])C([H])([H])N([H])C(=N[H])N([H])[H]


 66 69  0  0  0  0  0  0  0  0999 V2000
   38.7267   15.4251  -11.2008 C   0  0  0  0  0  0  0  0  0  0  0  0
   39.3419   15.8782  -10.0275 N   0  0  0  0  0  0  0  0  0  0  0  0
   38.9268   15.2973   -8.7844 C   0  0  0  0  0  0  0  0  0  0  0  0
   38.0262   14.4029   -8.8907 O   0  0  0  0  0  0  0  0  0  0  0  0
   40.0910   16.6249  -10.0163 H   0  0  0  0  0  0  0  0  0  0  0  0
   39.4096   15.6212   -7.4658 C   0  0  0  0  0  0  0  0  0  0  0  0
   40.8746   16.1663   -7.5857 C   0  0  0  0  0  0  0  0  0  0  0  0
   41.7067   14.9211   -7.8201 C   0  0  0  0  0  0  0  0  0  0  0  0
   40.7639   13.7862   -7.4519 C   0  0  0  0  0  0  0  0  0  0  0  0
   39.7357   14.4545   -6.6584 N   0  0  0  0  0  0  0  0  0  0  0  0
   39.3152   14.1350   -5.3837 C   0  0  0  0  0  0  0  0  0  0  0  0
   39.5643   13.0321   -4.8827 O   0  0  0  0  0  0  0  0  0  0  0  0
   38.5469   15.1286   -4.5332 C   0  0  0  0  0  0  0  0  0  0  0  0
   39.6103   15.8379   -3.8213 N   0  0  0  0  0  0  0  0  0  0  0  0
   39.7748   17.2558   -4.0054 C   0  0  0  0  0  0  0  0  0  0  0  0
   39.0109   17.8855   -4.7653 O   0  0  0  0  0  0  0  0  0  0  0  0
   40.2498   15.3498   -3.1964 H   0  0  0  0  0  0  0  0  0  0  0  0
   40.7797   17.9511   -3.3618 O   0  0  0  0  0  0  0  0  0  0  0  0
   41.8151   18.5985   -4.0225 C   0  0  0  0  0  0  0  0  0  0  0  0
   42.7842   17.8354   -4.7706 C   0  0  0  0  0  0  0  0  0  0  0  0
   43.1775   16.6073   -4.2763 C   0  0  0  0  0  0  0  0  0  0  0  0
   44.1218   15.8038   -4.9198 C   0  0  0  0  0  0  0  0  0  0  0  0
   44.6841   16.2492   -6.0911 C   0  0  0  0  0  0  0  0  0  0  0  0
   44.2754   17.5003   -6.5799 C   0  0  0  0  0  0  0  0  0  0  0  0
   43.3468   18.2739   -5.9335 C   0  0  0  0  0  0  0  0  0  0  0  0
   37.5385   14.5397   -3.6543 C   0  0  0  0  0  0  0  0  0  0  0  0
   36.1198   14.8882   -3.9664 C   0  0  0  0  0  0  0  0  0  0  0  0
   35.3245   13.9293   -4.5281 C   0  0  0  0  0  0  0  0  0  0  0  0
   34.0223   14.1757   -4.8448 C   0  0  0  0  0  0  0  0  0  0  0  0
   33.4437   15.4393   -4.6039 C   0  0  0  0  0  0  0  0  0  0  0  0
   34.2824   16.3762   -4.0373 C   0  0  0  0  0  0  0  0  0  0  0  0
   35.6015   16.1247   -3.7154 C   0  0  0  0  0  0  0  0  0  0  0  0
   39.5561   15.4259  -12.4390 C   0  0  0  0  0  0  0  0  0  0  0  0
   40.2448   16.4319  -12.7078 O   0  0  0  0  0  0  0  0  0  0  0  0
   39.5534   14.3136  -13.2685 N   0  0  0  0  0  0  0  0  0  0  0  0
   38.9380   13.4990  -12.9031 H   0  0  0  0  0  0  0  0  0  0  0  0
   40.2346   14.0346  -14.5568 C   0  0  0  0  0  0  0  0  0  0  0  0
   39.2622   13.2611  -15.3143 C   0  0  0  0  0  0  0  0  0  0  0  0
   38.0450   13.1701  -14.9124 O   0  0  0  0  0  0  0  0  0  0  0  0
   39.5561   12.5632  -16.5582 C   0  0  0  0  0  0  0  0  0  0  0  0
   40.4037   12.8793  -17.5424 N   0  0  0  0  0  0  0  0  0  0  0  0
   40.5016   12.1136  -18.5756 C   0  0  0  0  0  0  0  0  0  0  0  0
   39.7292   10.9919  -18.6376 C   0  0  0  0  0  0  0  0  0  0  0  0
   38.8738   11.0945  -17.1601 S   0  0  0  0  0  0  0  0  0  0  0  0
   41.5515   13.4508  -14.2201 C   0  0  0  0  0  0  0  0  0  0  0  0
   42.7743   14.0686  -13.8008 C   0  0  0  0  0  0  0  0  0  0  0  0
   44.0500   14.0997  -14.5066 C   0  0  0  0  0  0  0  0  0  0  0  0
   45.1670   14.8688  -14.2125 N   0  0  0  0  0  0  0  0  0  0  0  0
   46.0642   14.3010  -13.9685 H   0  0  0  0  0  0  0  0  0  0  0  0
   45.3754   16.2540  -14.1642 C   0  0  0  0  0  0  0  0  0  0  0  0
   46.2537   16.9011  -15.1070 N   0  0  0  0  0  0  0  0  0  0  0  0
   44.8376   17.0078  -13.2974 N   0  0  0  0  0  0  0  0  0  0  0  0
   46.3773   17.9260  -15.1432 H   0  0  0  0  0  0  0  0  0  0  0  0
   46.7727   16.2747  -15.7783 H   0  0  0  0  0  0  0  0  0  0  0  0
   44.1992   16.6245  -12.5525 H   0  0  0  0  0  0  0  0  0  0  0  0
   37.3822   16.1136  -11.4026 C   0  0  0  0  0  0  0  0  0  0  0  0
   36.3529   15.1344  -11.9171 C   0  0  0  0  0  0  0  0  0  0  0  0
   34.9770   15.6826  -11.8898 C   0  0  0  0  0  0  0  0  0  0  0  0
   33.9769   14.7171  -11.5382 N   0  0  0  0  0  0  0  0  0  0  0  0
   33.9070   14.2056  -10.6687 H   0  0  0  0  0  0  0  0  0  0  0  0
   33.5461   14.6227  -13.9001 N   0  0  0  0  0  0  0  0  0  0  0  0
   32.9708   14.4712  -12.5595 C   0  0  0  0  0  0  0  0  0  0  0  0
   31.8086   14.2225  -12.3667 N   0  0  0  0  0  0  0  0  0  0  0  0
   32.9052   14.5144  -14.6982 H   0  0  0  0  0  0  0  0  0  0  0  0
   34.5385   14.8191  -14.0540 H   0  0  0  0  0  0  0  0  0  0  0  0
   30.9414   14.0367  -12.2176 H   0  0  0  0  0  0  0  0  0  0  0  0
 61 62  1  0  0  0
 62 63  2  0  0  0
 62 59  1  0  0  0
 59 58  1  0  0  0
 58 57  1  0  0  0
 57 56  1  0  0  0
 56  1  1  0  0  0
  1  2  1  0  0  0
  2  3  1  0  0  0
  3  4  2  0  0  0
  3  6  1  0  0  0
  6  7  1  0  0  0
  7  8  1  0  0  0
  8  9  1  0  0  0
  9 10  1  0  0  0
 10 11  1  0  0  0
 11 12  2  0  0  0
 11 13  1  0  0  0
 13 26  1  0  0  0
 26 27  1  0  0  0
 27 28  2  0  0  0
 28 29  1  0  0  0
 29 30  2  0  0  0
 30 31  1  0  0  0
 31 32  2  0  0  0
 13 14  1  0  0  0
 14 15  1  0  0  0
 15 16  2  0  0  0
 15 18  1  0  0  0
 18 19  1  0  0  0
 19 20  1  0  0  0
 20 21  2  0  0  0
 21 22  1  0  0  0
 22 23  2  0  0  0
 23 24  1  0  0  0
 24 25  2  0  0  0
  1 33  1  0  0  0
 33 34  2  0  0  0
 33 35  1  0  0  0
 35 37  1  0  0  0
 37 45  1  0  0  0
 45 46  1  0  0  0
 46 47  1  0  0  0
 47 48  1  0  0  0
 48 50  1  0  0  0
 50 51  1  0  0  0
 50 52  2  0  0  0
 37 38  1  0  0  0
 38 39  2  0  0  0
 38 40  1  0  0  0
 40 41  2  0  0  0
 41 42  1  0  0  0
 42 43  2  0  0  0
 43 44  1  0  0  0
 10  6  1  0  0  0
 32 27  1  0  0  0
 25 20  1  0  0  0
 44 40  1  0  0  0
 61 64  1  0  0  0
 61 65  1  0  0  0
 63 66  1  0  0  0
 59 60  1  0  0  0
  2  5  1  0  0  0
 14 17  1  0  0  0
 35 36  1  0  0  0
 48 49  1  0  0  0
 51 53  1  0  0  0
 51 54  1  0  0  0
 52 55  1  0  0  0
M  END
> <minimizedAffinity>
-7.02301

> <CNNscore>
0.2690972090

> <CNNaffinity>
7.0199003220

> <CNN_VS>
1.8890355825

> <CNNaffinity_variance>
0.6368071437

$$$$
[H]N=C(N([H])[H])N([H])C([H])([H])C([H])([H])C([H])([H])[C@@]([H])(C(=O)c1nc([H])c([H])s1)N([H])C(=O)[C@@]([H])(N([H])C(=O)[C@@]1([H])N(C(=O)[C@]([H])(N([H])C(=O)OC([H])([H])c2c([H])c([H])c([H])c([H])c2[H])C([H])([H])c2c([H])c([H])c([H])c([H])c2[H])C([H])([H])C([H])([H])C1([H])[H])C([H])([H])C([H])([H])C([H])([H])N([H])C(=N[H])N([H])[H]


 66 69  0  0  0  0  0  0  0  0999 V2000
   36.4708   15.5797   -8.9797 C   0  0  0  0  0  0  0  0  0  0  0  0
   36.9398   15.0314  -10.1797 N   0  0  0  0  0  0  0  0  0  0  0  0
   36.1643   15.2492  -11.3656 C   0  0  0  0  0  0  0  0  0  0  0  0
   35.1112   15.9440  -11.1913 O   0  0  0  0  0  0  0  0  0  0  0  0
   37.8314   14.4667  -10.2501 H   0  0  0  0  0  0  0  0  0  0  0  0
   36.4481   14.7680  -12.6940 C   0  0  0  0  0  0  0  0  0  0  0  0
   35.1278   14.8118  -13.5382 C   0  0  0  0  0  0  0  0  0  0  0  0
   34.3391   13.6169  -13.0401 C   0  0  0  0  0  0  0  0  0  0  0  0
   35.3690   12.8037  -12.2716 C   0  0  0  0  0  0  0  0  0  0  0  0
   36.6398   13.3267  -12.7664 N   0  0  0  0  0  0  0  0  0  0  0  0
   37.6847   12.6160  -13.3204 C   0  0  0  0  0  0  0  0  0  0  0  0
   37.7763   11.3911  -13.1761 O   0  0  0  0  0  0  0  0  0  0  0  0
   38.7556   13.3017  -14.1473 C   0  0  0  0  0  0  0  0  0  0  0  0
   39.0154   14.5272  -13.3913 N   0  0  0  0  0  0  0  0  0  0  0  0
   40.3304   15.1117  -13.4023 C   0  0  0  0  0  0  0  0  0  0  0  0
   41.2502   14.5818  -14.0587 O   0  0  0  0  0  0  0  0  0  0  0  0
   38.2846   14.9805  -12.8451 H   0  0  0  0  0  0  0  0  0  0  0  0
   40.6122   16.2578  -12.6850 O   0  0  0  0  0  0  0  0  0  0  0  0
   41.7249   16.4020  -11.8673 C   0  0  0  0  0  0  0  0  0  0  0  0
   41.6070   16.1999  -10.4438 C   0  0  0  0  0  0  0  0  0  0  0  0
   40.3484   16.2376   -9.8764 C   0  0  0  0  0  0  0  0  0  0  0  0
   40.1348   16.0701   -8.5061 C   0  0  0  0  0  0  0  0  0  0  0  0
   41.2167   15.8594   -7.6868 C   0  0  0  0  0  0  0  0  0  0  0  0
   42.4897   15.8256   -8.2781 C   0  0  0  0  0  0  0  0  0  0  0  0
   42.6785   15.9920   -9.6254 C   0  0  0  0  0  0  0  0  0  0  0  0
   38.4017   13.5343  -15.5461 C   0  0  0  0  0  0  0  0  0  0  0  0
   39.0541   12.6311  -16.5413 C   0  0  0  0  0  0  0  0  0  0  0  0
   38.3884   11.5015  -16.9266 C   0  0  0  0  0  0  0  0  0  0  0  0
   38.9228   10.6283  -17.8260 C   0  0  0  0  0  0  0  0  0  0  0  0
   40.1924   10.8595  -18.3953 C   0  0  0  0  0  0  0  0  0  0  0  0
   40.8280   12.0099  -17.9773 C   0  0  0  0  0  0  0  0  0  0  0  0
   40.2848   12.8948  -17.0670 C   0  0  0  0  0  0  0  0  0  0  0  0
   35.3291   14.8830   -8.3225 C   0  0  0  0  0  0  0  0  0  0  0  0
   35.5255   13.7776   -7.7763 O   0  0  0  0  0  0  0  0  0  0  0  0
   34.0724   15.4710   -8.3243 N   0  0  0  0  0  0  0  0  0  0  0  0
   34.0467   16.4429   -8.8044 H   0  0  0  0  0  0  0  0  0  0  0  0
   32.7635   15.0174   -7.7925 C   0  0  0  0  0  0  0  0  0  0  0  0
   31.7900   15.8505   -8.4824 C   0  0  0  0  0  0  0  0  0  0  0  0
   31.6035   17.0701   -8.1229 O   0  0  0  0  0  0  0  0  0  0  0  0
   30.9832   15.4087   -9.6113 C   0  0  0  0  0  0  0  0  0  0  0  0
   29.7146   14.9888   -9.6500 N   0  0  0  0  0  0  0  0  0  0  0  0
   29.1916   14.6294  -10.7728 C   0  0  0  0  0  0  0  0  0  0  0  0
   29.9546   14.6867  -11.9012 C   0  0  0  0  0  0  0  0  0  0  0  0
   31.4331   15.2747  -11.2740 S   0  0  0  0  0  0  0  0  0  0  0  0
   32.8692   15.0610   -6.3176 C   0  0  0  0  0  0  0  0  0  0  0  0
   33.4882   16.0159   -5.4471 C   0  0  0  0  0  0  0  0  0  0  0  0
   34.1396   15.7696   -4.1660 C   0  0  0  0  0  0  0  0  0  0  0  0
   34.6501   14.5714   -3.6871 N   0  0  0  0  0  0  0  0  0  0  0  0
   34.0590   14.1015   -2.9019 H   0  0  0  0  0  0  0  0  0  0  0  0
   35.7947   13.8324   -4.0161 C   0  0  0  0  0  0  0  0  0  0  0  0
   37.0597   14.1102   -3.3823 N   0  0  0  0  0  0  0  0  0  0  0  0
   35.7996   12.9095   -4.8863 N   0  0  0  0  0  0  0  0  0  0  0  0
   37.9058   13.5422   -3.5506 H   0  0  0  0  0  0  0  0  0  0  0  0
   37.0878   14.9306   -2.7201 H   0  0  0  0  0  0  0  0  0  0  0  0
   34.9295   12.6495   -5.4199 H   0  0  0  0  0  0  0  0  0  0  0  0
   36.2273   17.0763   -9.1320 C   0  0  0  0  0  0  0  0  0  0  0  0
   36.8557   17.8384   -7.9886 C   0  0  0  0  0  0  0  0  0  0  0  0
   35.9923   18.9323   -7.4864 C   0  0  0  0  0  0  0  0  0  0  0  0
   36.0953   20.1448   -8.2448 N   0  0  0  0  0  0  0  0  0  0  0  0
   35.4757   20.4534   -8.9820 H   0  0  0  0  0  0  0  0  0  0  0  0
   36.7856   22.0788   -6.9975 N   0  0  0  0  0  0  0  0  0  0  0  0
   37.2179   20.9998   -7.8918 C   0  0  0  0  0  0  0  0  0  0  0  0
   38.3468   20.8934   -8.2966 N   0  0  0  0  0  0  0  0  0  0  0  0
   37.4967   22.7702   -6.7223 H   0  0  0  0  0  0  0  0  0  0  0  0
   35.8271   22.1520   -6.6466 H   0  0  0  0  0  0  0  0  0  0  0  0
   39.1887   20.8096   -8.6016 H   0  0  0  0  0  0  0  0  0  0  0  0
 61 62  1  0  0  0
 62 63  2  0  0  0
 62 59  1  0  0  0
 59 58  1  0  0  0
 58 57  1  0  0  0
 57 56  1  0  0  0
 56  1  1  0  0  0
  1  2  1  0  0  0
  2  3  1  0  0  0
  3  4  2  0  0  0
  3  6  1  0  0  0
  6  7  1  0  0  0
  7  8  1  0  0  0
  8  9  1  0  0  0
  9 10  1  0  0  0
 10 11  1  0  0  0
 11 12  2  0  0  0
 11 13  1  0  0  0
 13 26  1  0  0  0
 26 27  1  0  0  0
 27 28  2  0  0  0
 28 29  1  0  0  0
 29 30  2  0  0  0
 30 31  1  0  0  0
 31 32  2  0  0  0
 13 14  1  0  0  0
 14 15  1  0  0  0
 15 16  2  0  0  0
 15 18  1  0  0  0
 18 19  1  0  0  0
 19 20  1  0  0  0
 20 21  2  0  0  0
 21 22  1  0  0  0
 22 23  2  0  0  0
 23 24  1  0  0  0
 24 25  2  0  0  0
  1 33  1  0  0  0
 33 34  2  0  0  0
 33 35  1  0  0  0
 35 37  1  0  0  0
 37 45  1  0  0  0
 45 46  1  0  0  0
 46 47  1  0  0  0
 47 48  1  0  0  0
 48 50  1  0  0  0
 50 51  1  0  0  0
 50 52  2  0  0  0
 37 38  1  0  0  0
 38 39  2  0  0  0
 38 40  1  0  0  0
 40 41  2  0  0  0
 41 42  1  0  0  0
 42 43  2  0  0  0
 43 44  1  0  0  0
 10  6  1  0  0  0
 32 27  1  0  0  0
 25 20  1  0  0  0
 44 40  1  0  0  0
 61 64  1  0  0  0
 61 65  1  0  0  0
 63 66  1  0  0  0
 59 60  1  0  0  0
  2  5  1  0  0  0
 14 17  1  0  0  0
 35 36  1  0  0  0
 48 49  1  0  0  0
 51 53  1  0  0  0
 51 54  1  0  0  0
 52 55  1  0  0  0
M  END
> <minimizedAffinity>
-7.97678

> <CNNscore>
0.2426348627

> <CNNaffinity>
7.2647857666

> <CNN_VS>
1.7626903057

> <CNNaffinity_variance>
0.5989961028

$$$$
[H]N=C(N([H])[H])N([H])C([H])([H])C([H])([H])C([H])([H])[C@@]([H])(C(=O)c1nc([H])c([H])s1)N([H])C(=O)[C@@]([H])(N([H])C(=O)[C@@]1([H])N(C(=O)[C@]([H])(N([H])C(=O)OC([H])([H])c2c([H])c([H])c([H])c([H])c2[H])C([H])([H])c2c([H])c([H])c([H])c([H])c2[H])C([H])([H])C([H])([H])C1([H])[H])C([H])([H])C([H])([H])C([H])([H])N([H])C(=N[H])N([H])[H]


 66 69  0  0  0  0  0  0  0  0999 V2000
   37.8788   15.4323   -9.2794 C   0  0  0  0  0  0  0  0  0  0  0  0
   38.1712   14.8011  -10.4945 N   0  0  0  0  0  0  0  0  0  0  0  0
   37.5923   15.3429  -11.6888 C   0  0  0  0  0  0  0  0  0  0  0  0
   36.8639   16.3717  -11.5064 O   0  0  0  0  0  0  0  0  0  0  0  0
   38.7927   13.9485  -10.5706 H   0  0  0  0  0  0  0  0  0  0  0  0
   37.7442   14.8484  -13.0339 C   0  0  0  0  0  0  0  0  0  0  0  0
   36.4749   15.2469  -13.8633 C   0  0  0  0  0  0  0  0  0  0  0  0
   35.4139   14.2714  -13.3936 C   0  0  0  0  0  0  0  0  0  0  0  0
   36.2097   13.2031  -12.6603 C   0  0  0  0  0  0  0  0  0  0  0  0
   37.5698   13.4079  -13.1516 N   0  0  0  0  0  0  0  0  0  0  0  0
   38.4030   12.4769  -13.7370 C   0  0  0  0  0  0  0  0  0  0  0  0
   38.1862   11.2640  -13.6306 O   0  0  0  0  0  0  0  0  0  0  0  0
   39.6096   12.8996  -14.5534 C   0  0  0  0  0  0  0  0  0  0  0  0
   40.2792   13.8568  -13.6725 N   0  0  0  0  0  0  0  0  0  0  0  0
   41.7124   13.9833  -13.7079 C   0  0  0  0  0  0  0  0  0  0  0  0
   42.3876   13.2845  -14.4911 O   0  0  0  0  0  0  0  0  0  0  0  0
   39.7542   14.4387  -13.0218 H   0  0  0  0  0  0  0  0  0  0  0  0
   42.3756   14.8646  -12.8767 O   0  0  0  0  0  0  0  0  0  0  0  0
   43.7578   14.9209  -12.7576 C   0  0  0  0  0  0  0  0  0  0  0  0
   44.4356   16.1936  -12.7982 C   0  0  0  0  0  0  0  0  0  0  0  0
   43.7159   17.3101  -13.1763 C   0  0  0  0  0  0  0  0  0  0  0  0
   44.2881   18.5816  -13.2620 C   0  0  0  0  0  0  0  0  0  0  0  0
   45.6194   18.7318  -12.9593 C   0  0  0  0  0  0  0  0  0  0  0  0
   46.3379   17.5874  -12.5784 C   0  0  0  0  0  0  0  0  0  0  0  0
   45.7579   16.3480  -12.5001 C   0  0  0  0  0  0  0  0  0  0  0  0
   39.3026   13.4318  -15.8795 C   0  0  0  0  0  0  0  0  0  0  0  0
   39.2666   12.4325  -16.9894 C   0  0  0  0  0  0  0  0  0  0  0  0
   40.3280   12.3786  -17.8486 C   0  0  0  0  0  0  0  0  0  0  0  0
   40.3633   11.4969  -18.8870 C   0  0  0  0  0  0  0  0  0  0  0  0
   39.2972   10.6021  -19.1155 C   0  0  0  0  0  0  0  0  0  0  0  0
   38.2476   10.6922  -18.2254 C   0  0  0  0  0  0  0  0  0  0  0  0
   38.2137   11.5850  -17.1725 C   0  0  0  0  0  0  0  0  0  0  0  0
   36.4562   15.4116   -8.8356 C   0  0  0  0  0  0  0  0  0  0  0  0
   35.8965   14.3124   -8.6423 O   0  0  0  0  0  0  0  0  0  0  0  0
   35.7794   16.6072   -8.6419 N   0  0  0  0  0  0  0  0  0  0  0  0
   36.3900   17.4865   -8.8144 H   0  0  0  0  0  0  0  0  0  0  0  0
   34.3811   16.9029   -8.2435 C   0  0  0  0  0  0  0  0  0  0  0  0
   34.4223   16.9287   -6.7890 C   0  0  0  0  0  0  0  0  0  0  0  0
   35.4360   16.4556   -6.1565 O   0  0  0  0  0  0  0  0  0  0  0  0
   33.3743   17.4878   -5.9467 C   0  0  0  0  0  0  0  0  0  0  0  0
   32.9936   18.7579   -5.7762 N   0  0  0  0  0  0  0  0  0  0  0  0
   32.0337   19.0362   -4.9610 C   0  0  0  0  0  0  0  0  0  0  0  0
   31.4280   18.0176   -4.2871 C   0  0  0  0  0  0  0  0  0  0  0  0
   32.2937   16.6661   -4.8780 S   0  0  0  0  0  0  0  0  0  0  0  0
   33.5254   15.9226   -8.9471 C   0  0  0  0  0  0  0  0  0  0  0  0
   32.2319   16.0634   -9.5469 C   0  0  0  0  0  0  0  0  0  0  0  0
   31.0975   15.1519   -9.4538 C   0  0  0  0  0  0  0  0  0  0  0  0
   30.5844   14.3274  -10.4450 N   0  0  0  0  0  0  0  0  0  0  0  0
   30.0909   13.4262  -10.0829 H   0  0  0  0  0  0  0  0  0  0  0  0
   30.5750   14.4228  -11.8434 C   0  0  0  0  0  0  0  0  0  0  0  0
   31.7857   14.2355  -12.6038 N   0  0  0  0  0  0  0  0  0  0  0  0
   29.5336   14.6952  -12.5143 N   0  0  0  0  0  0  0  0  0  0  0  0
   31.8021   14.2315  -13.6366 H   0  0  0  0  0  0  0  0  0  0  0  0
   32.6739   14.0930  -12.0531 H   0  0  0  0  0  0  0  0  0  0  0  0
   28.6064   14.8720  -12.0468 H   0  0  0  0  0  0  0  0  0  0  0  0
   38.4773   16.8332   -9.2442 C   0  0  0  0  0  0  0  0  0  0  0  0
   39.1893   17.0768   -7.9339 C   0  0  0  0  0  0  0  0  0  0  0  0
   40.1968   16.0352   -7.6273 C   0  0  0  0  0  0  0  0  0  0  0  0
   41.5423   16.4239   -7.9347 N   0  0  0  0  0  0  0  0  0  0  0  0
   42.1454   17.0139   -7.3773 H   0  0  0  0  0  0  0  0  0  0  0  0
   43.4068   16.4295   -9.4502 N   0  0  0  0  0  0  0  0  0  0  0  0
   42.0664   15.8966   -9.1850 C   0  0  0  0  0  0  0  0  0  0  0  0
   41.4888   15.1614   -9.9436 N   0  0  0  0  0  0  0  0  0  0  0  0
   43.8518   16.1541  -10.3365 H   0  0  0  0  0  0  0  0  0  0  0  0
   43.8958   17.0417   -8.7919 H   0  0  0  0  0  0  0  0  0  0  0  0
   41.0534   14.6120  -10.5071 H   0  0  0  0  0  0  0  0  0  0  0  0
 61 62  1  0  0  0
 62 63  2  0  0  0
 62 59  1  0  0  0
 59 58  1  0  0  0
 58 57  1  0  0  0
 57 56  1  0  0  0
 56  1  1  0  0  0
  1  2  1  0  0  0
  2  3  1  0  0  0
  3  4  2  0  0  0
  3  6  1  0  0  0
  6  7  1  0  0  0
  7  8  1  0  0  0
  8  9  1  0  0  0
  9 10  1  0  0  0
 10 11  1  0  0  0
 11 12  2  0  0  0
 11 13  1  0  0  0
 13 26  1  0  0  0
 26 27  1  0  0  0
 27 28  2  0  0  0
 28 29  1  0  0  0
 29 30  2  0  0  0
 30 31  1  0  0  0
 31 32  2  0  0  0
 13 14  1  0  0  0
 14 15  1  0  0  0
 15 16  2  0  0  0
 15 18  1  0  0  0
 18 19  1  0  0  0
 19 20  1  0  0  0
 20 21  2  0  0  0
 21 22  1  0  0  0
 22 23  2  0  0  0
 23 24  1  0  0  0
 24 25  2  0  0  0
  1 33  1  0  0  0
 33 34  2  0  0  0
 33 35  1  0  0  0
 35 37  1  0  0  0
 37 45  1  0  0  0
 45 46  1  0  0  0
 46 47  1  0  0  0
 47 48  1  0  0  0
 48 50  1  0  0  0
 50 51  1  0  0  0
 50 52  2  0  0  0
 37 38  1  0  0  0
 38 39  2  0  0  0
 38 40  1  0  0  0
 40 41  2  0  0  0
 41 42  1  0  0  0
 42 43  2  0  0  0
 43 44  1  0  0  0
 10  6  1  0  0  0
 32 27  1  0  0  0
 25 20  1  0  0  0
 44 40  1  0  0  0
 61 64  1  0  0  0
 61 65  1  0  0  0
 63 66  1  0  0  0
 59 60  1  0  0  0
  2  5  1  0  0  0
 14 17  1  0  0  0
 35 36  1  0  0  0
 48 49  1  0  0  0
 51 53  1  0  0  0
 51 54  1  0  0  0
 52 55  1  0  0  0
M  END
> <minimizedAffinity>
-7.66701

> <CNNscore>
0.2390676141

> <CNNaffinity>
7.3907976151

> <CNN_VS>
1.7669003010

> <CNNaffinity_variance>
0.3863776326

$$$$
[H]N=C(N([H])[H])N([H])C([H])([H])C([H])([H])C([H])([H])[C@@]([H])(C(=O)c1nc([H])c([H])s1)N([H])C(=O)[C@@]([H])(N([H])C(=O)[C@@]1([H])N(C(=O)[C@]([H])(N([H])C(=O)OC([H])([H])c2c([H])c([H])c([H])c([H])c2[H])C([H])([H])c2c([H])c([H])c([H])c([H])c2[H])C([H])([H])C([H])([H])C1([H])[H])C([H])([H])C([H])([H])C([H])([H])N([H])C(=N[H])N([H])[H]


 66 69  0  0  0  0  0  0  0  0999 V2000
   38.6997   15.8045  -11.0357 C   0  0  0  0  0  0  0  0  0  0  0  0
   39.3520   16.1871   -9.8573 N   0  0  0  0  0  0  0  0  0  0  0  0
   39.0458   15.4667   -8.6563 C   0  0  0  0  0  0  0  0  0  0  0  0
   38.1979   14.5275   -8.8019 O   0  0  0  0  0  0  0  0  0  0  0  0
   40.0526   16.9782   -9.8126 H   0  0  0  0  0  0  0  0  0  0  0  0
   39.5824   15.6987   -7.3391 C   0  0  0  0  0  0  0  0  0  0  0  0
   41.0734   16.1630   -7.4773 C   0  0  0  0  0  0  0  0  0  0  0  0
   41.8235   14.8842   -7.7935 C   0  0  0  0  0  0  0  0  0  0  0  0
   40.8253   13.7897   -7.4502 C   0  0  0  0  0  0  0  0  0  0  0  0
   39.8603   14.4777   -6.5965 N   0  0  0  0  0  0  0  0  0  0  0  0
   39.4562   14.1226   -5.3259 C   0  0  0  0  0  0  0  0  0  0  0  0
   39.6529   12.9844   -4.8840 O   0  0  0  0  0  0  0  0  0  0  0  0
   38.7715   15.1173   -4.4080 C   0  0  0  0  0  0  0  0  0  0  0  0
   39.8974   15.7868   -3.7561 N   0  0  0  0  0  0  0  0  0  0  0  0
   40.1015   17.1984   -3.9481 C   0  0  0  0  0  0  0  0  0  0  0  0
   39.3190   17.8568   -4.6635 O   0  0  0  0  0  0  0  0  0  0  0  0
   40.5533   15.2746   -3.1684 H   0  0  0  0  0  0  0  0  0  0  0  0
   41.1648   17.8560   -3.3611 O   0  0  0  0  0  0  0  0  0  0  0  0
   42.1515   18.5200   -4.0775 C   0  0  0  0  0  0  0  0  0  0  0  0
   43.1293   17.7696   -4.8270 C   0  0  0  0  0  0  0  0  0  0  0  0
   43.5681   18.2813   -6.0324 C   0  0  0  0  0  0  0  0  0  0  0  0
   44.4993   17.6202   -6.8370 C   0  0  0  0  0  0  0  0  0  0  0  0
   45.0010   16.4128   -6.4163 C   0  0  0  0  0  0  0  0  0  0  0  0
   44.5439   15.9049   -5.1898 C   0  0  0  0  0  0  0  0  0  0  0  0
   43.6295   16.5692   -4.4145 C   0  0  0  0  0  0  0  0  0  0  0  0
   37.8093   14.5355   -3.4744 C   0  0  0  0  0  0  0  0  0  0  0  0
   36.3728   14.6405   -3.8707 C   0  0  0  0  0  0  0  0  0  0  0  0
   35.8649   13.7020   -4.7244 C   0  0  0  0  0  0  0  0  0  0  0  0
   34.5656   13.7363   -5.1338 C   0  0  0  0  0  0  0  0  0  0  0  0
   33.6914   14.7500   -4.6893 C   0  0  0  0  0  0  0  0  0  0  0  0
   34.2463   15.6757   -3.8305 C   0  0  0  0  0  0  0  0  0  0  0  0
   35.5627   15.6389   -3.4151 C   0  0  0  0  0  0  0  0  0  0  0  0
   39.5392   15.6863  -12.2614 C   0  0  0  0  0  0  0  0  0  0  0  0
   40.2846   16.6355  -12.5807 O   0  0  0  0  0  0  0  0  0  0  0  0
   39.4828   14.5283  -13.0238 N   0  0  0  0  0  0  0  0  0  0  0  0
   38.8202   13.7717  -12.6186 H   0  0  0  0  0  0  0  0  0  0  0  0
   40.1593   14.1363  -14.2848 C   0  0  0  0  0  0  0  0  0  0  0  0
   39.1582   13.3592  -15.0001 C   0  0  0  0  0  0  0  0  0  0  0  0
   37.9340   13.3547  -14.6093 O   0  0  0  0  0  0  0  0  0  0  0  0
   39.4305   12.5629  -16.1885 C   0  0  0  0  0  0  0  0  0  0  0  0
   38.8302   11.4566  -16.6389 N   0  0  0  0  0  0  0  0  0  0  0  0
   39.2444   10.8988  -17.7255 C   0  0  0  0  0  0  0  0  0  0  0  0
   40.2947   11.4573  -18.3916 C   0  0  0  0  0  0  0  0  0  0  0  0
   40.6460   12.8006  -17.3931 S   0  0  0  0  0  0  0  0  0  0  0  0
   41.4464   13.5179  -13.8987 C   0  0  0  0  0  0  0  0  0  0  0  0
   42.7466   14.0905  -13.7132 C   0  0  0  0  0  0  0  0  0  0  0  0
   43.2266   14.8751  -12.5817 C   0  0  0  0  0  0  0  0  0  0  0  0
   44.2327   14.5471  -11.6841 N   0  0  0  0  0  0  0  0  0  0  0  0
   45.2095   14.9712  -11.9140 H   0  0  0  0  0  0  0  0  0  0  0  0
   44.2445   13.7646  -10.5213 C   0  0  0  0  0  0  0  0  0  0  0  0
   45.2148   14.0027   -9.4816 N   0  0  0  0  0  0  0  0  0  0  0  0
   43.4387   12.8058  -10.3207 N   0  0  0  0  0  0  0  0  0  0  0  0
   45.2095   13.4911   -8.5843 H   0  0  0  0  0  0  0  0  0  0  0  0
   45.9436   14.7406   -9.6736 H   0  0  0  0  0  0  0  0  0  0  0  0
   42.7092   12.5399  -11.0325 H   0  0  0  0  0  0  0  0  0  0  0  0
   37.4575   16.6573  -11.2632 C   0  0  0  0  0  0  0  0  0  0  0  0
   36.2037   15.8481  -11.0260 C   0  0  0  0  0  0  0  0  0  0  0  0
   36.1693   14.5988  -11.8212 C   0  0  0  0  0  0  0  0  0  0  0  0
   35.5780   14.7551  -13.1181 N   0  0  0  0  0  0  0  0  0  0  0  0
   35.8173   15.4485  -13.8142 H   0  0  0  0  0  0  0  0  0  0  0  0
   33.5060   14.4183  -14.2872 N   0  0  0  0  0  0  0  0  0  0  0  0
   34.5283   13.7998  -13.4367 C   0  0  0  0  0  0  0  0  0  0  0  0
   34.4535   12.6667  -13.0364 N   0  0  0  0  0  0  0  0  0  0  0  0
   32.6917   13.8395  -14.5344 H   0  0  0  0  0  0  0  0  0  0  0  0
   33.5862   15.3774  -14.6348 H   0  0  0  0  0  0  0  0  0  0  0  0
   34.4022   11.8209  -12.7350 H   0  0  0  0  0  0  0  0  0  0  0  0
 61 62  1  0  0  0
 62 63  2  0  0  0
 62 59  1  0  0  0
 59 58  1  0  0  0
 58 57  1  0  0  0
 57 56  1  0  0  0
 56  1  1  0  0  0
  1  2  1  0  0  0
  2  3  1  0  0  0
  3  4  2  0  0  0
  3  6  1  0  0  0
  6  7  1  0  0  0
  7  8  1  0  0  0
  8  9  1  0  0  0
  9 10  1  0  0  0
 10 11  1  0  0  0
 11 12  2  0  0  0
 11 13  1  0  0  0
 13 26  1  0  0  0
 26 27  1  0  0  0
 27 28  2  0  0  0
 28 29  1  0  0  0
 29 30  2  0  0  0
 30 31  1  0  0  0
 31 32  2  0  0  0
 13 14  1  0  0  0
 14 15  1  0  0  0
 15 16  2  0  0  0
 15 18  1  0  0  0
 18 19  1  0  0  0
 19 20  1  0  0  0
 20 21  2  0  0  0
 21 22  1  0  0  0
 22 23  2  0  0  0
 23 24  1  0  0  0
 24 25  2  0  0  0
  1 33  1  0  0  0
 33 34  2  0  0  0
 33 35  1  0  0  0
 35 37  1  0  0  0
 37 45  1  0  0  0
 45 46  1  0  0  0
 46 47  1  0  0  0
 47 48  1  0  0  0
 48 50  1  0  0  0
 50 51  1  0  0  0
 50 52  2  0  0  0
 37 38  1  0  0  0
 38 39  2  0  0  0
 38 40  1  0  0  0
 40 41  2  0  0  0
 41 42  1  0  0  0
 42 43  2  0  0  0
 43 44  1  0  0  0
 10  6  1  0  0  0
 32 27  1  0  0  0
 25 20  1  0  0  0
 44 40  1  0  0  0
 61 64  1  0  0  0
 61 65  1  0  0  0
 63 66  1  0  0  0
 59 60  1  0  0  0
  2  5  1  0  0  0
 14 17  1  0  0  0
 35 36  1  0  0  0
 48 49  1  0  0  0
 51 53  1  0  0  0
 51 54  1  0  0  0
 52 55  1  0  0  0
M  END
> <minimizedAffinity>
-6.74893

> <CNNscore>
0.2305946052

> <CNNaffinity>
6.9430365562

> <CNN_VS>
1.6010267735

> <CNNaffinity_variance>
0.7704067826

$$$$
[H]c1c([H])c([H])c(S(=O)(=O)N2C([H])([H])C([H])([H])N(C(=O)C([H])([H])Sc3c([H])c([H])c([N+](=O)[O-])c([H])c3[H])C([H])([H])C2([H])[H])c([H])c1[H]


 28 30  0  0  0  0  0  0  0  0999 V2000
   35.7144   14.7449  -12.0006 C   0  0  0  0  0  0  0  0  0  0  0  0
   34.5379   14.5620  -12.3567 O   0  0  0  0  0  0  0  0  0  0  0  0
   36.0463   15.3506  -10.7633 N   0  0  0  0  0  0  0  0  0  0  0  0
   37.4006   15.5587  -10.3730 C   0  0  0  0  0  0  0  0  0  0  0  0
   37.6794   14.9969   -8.9921 C   0  0  0  0  0  0  0  0  0  0  0  0
   36.4769   14.6042   -8.3282 N   0  0  0  0  0  0  0  0  0  0  0  0
   35.4046   15.5338   -8.4489 C   0  0  0  0  0  0  0  0  0  0  0  0
   34.9796   15.7621   -9.8826 C   0  0  0  0  0  0  0  0  0  0  0  0
   36.7463   14.0471   -6.7435 S   0  0  0  0  0  0  0  0  0  0  0  0
   38.0589   14.5983   -6.2044 O   0  0  0  0  0  0  0  0  0  0  0  0
   36.8639   12.5518   -6.6656 O   0  0  0  0  0  0  0  0  0  0  0  0
   35.4852   14.6377   -5.6892 C   0  0  0  0  0  0  0  0  0  0  0  0
   35.6763   15.7178   -4.8357 C   0  0  0  0  0  0  0  0  0  0  0  0
   34.6792   16.1746   -4.0142 C   0  0  0  0  0  0  0  0  0  0  0  0
   33.4416   15.5799   -3.9998 C   0  0  0  0  0  0  0  0  0  0  0  0
   33.2485   14.5087   -4.8444 C   0  0  0  0  0  0  0  0  0  0  0  0
   34.2556   14.0381   -5.6823 C   0  0  0  0  0  0  0  0  0  0  0  0
   36.8326   14.3235  -12.8836 C   0  0  0  0  0  0  0  0  0  0  0  0
   36.7265   12.5522  -13.1564 S   0  0  0  0  0  0  0  0  0  0  0  0
   38.4089   11.4110  -17.2898 C   0  0  0  0  0  0  0  0  0  0  0  0
   39.2018   11.8738  -16.2646 C   0  0  0  0  0  0  0  0  0  0  0  0
   38.6702   12.2163  -15.0520 C   0  0  0  0  0  0  0  0  0  0  0  0
   37.3013   12.1221  -14.7704 C   0  0  0  0  0  0  0  0  0  0  0  0
   36.4999   11.6588  -15.7897 C   0  0  0  0  0  0  0  0  0  0  0  0
   37.0642   11.3157  -17.0188 C   0  0  0  0  0  0  0  0  0  0  0  0
   40.2717   11.2309  -18.8694 O   0  0  0  0  0  0  0  0  0  0  0  0
   38.9560   11.0532  -18.5587 N   0  0  0  0  0  0  0  0  0  0  0  0
   38.1910   10.5597  -19.4079 O   0  0  0  0  0  0  0  0  0  0  0  0
 26 27  1  0  0  0
 27 28  2  0  0  0
 27 20  1  0  0  0
 20 21  2  0  0  0
 21 22  1  0  0  0
 22 23  2  0  0  0
 23 19  1  0  0  0
 19 18  1  0  0  0
 18  1  1  0  0  0
  1  2  2  0  0  0
  1  3  1  0  0  0
  3  4  1  0  0  0
  4  5  1  0  0  0
  5  6  1  0  0  0
  6  7  1  0  0  0
  7  8  1  0  0  0
  6  9  1  0  0  0
  9 10  2  0  0  0
  9 11  2  0  0  0
  9 12  1  0  0  0
 12 13  2  0  0  0
 13 14  1  0  0  0
 14 15  2  0  0  0
 15 16  1  0  0  0
 16 17  2  0  0  0
 23 24  1  0  0  0
 24 25  2  0  0  0
 25 20  1  0  0  0
  8  3  1  0  0  0
 17 12  1  0  0  0
M  CHG 1  26  -1
M  CHG 1  27   1
M  END
> <minimizedAffinity>
-8.01432

> <CNNscore>
0.3149519861

> <CNNaffinity>
5.4028677940

> <CNN_VS>
1.7016439438

> <CNNaffinity_variance>
0.2496679574

$$$$
[H]c1c([H])c([H])c(S(=O)(=O)N2C([H])([H])C([H])([H])N(C(=O)C([H])([H])Sc3c([H])c([H])c([N+](=O)[O-])c([H])c3[H])C([H])([H])C2([H])[H])c([H])c1[H]


 28 30  0  0  0  0  0  0  0  0999 V2000
   35.1065   15.2693  -11.4810 C   0  0  0  0  0  0  0  0  0  0  0  0
   33.8927   15.3340  -11.7393 O   0  0  0  0  0  0  0  0  0  0  0  0
   35.6366   15.6634  -10.2273 N   0  0  0  0  0  0  0  0  0  0  0  0
   37.0320   15.5888   -9.9496 C   0  0  0  0  0  0  0  0  0  0  0  0
   37.3088   14.8335   -8.6638 C   0  0  0  0  0  0  0  0  0  0  0  0
   36.1091   14.5812   -7.9300 N   0  0  0  0  0  0  0  0  0  0  0  0
   35.2178   15.6895   -7.8555 C   0  0  0  0  0  0  0  0  0  0  0  0
   34.7331   16.1498   -9.2125 C   0  0  0  0  0  0  0  0  0  0  0  0
   36.3931   13.8089   -6.4410 S   0  0  0  0  0  0  0  0  0  0  0  0
   37.0087   12.4349   -6.6660 O   0  0  0  0  0  0  0  0  0  0  0  0
   35.1326   13.5732   -5.6592 O   0  0  0  0  0  0  0  0  0  0  0  0
   37.5506   14.7293   -5.5116 C   0  0  0  0  0  0  0  0  0  0  0  0
   38.9042   14.4148   -5.4906 C   0  0  0  0  0  0  0  0  0  0  0  0
   39.8042   15.1451   -4.7596 C   0  0  0  0  0  0  0  0  0  0  0  0
   39.4035   16.2249   -4.0121 C   0  0  0  0  0  0  0  0  0  0  0  0
   38.0622   16.5396   -4.0303 C   0  0  0  0  0  0  0  0  0  0  0  0
   37.1410   15.8034   -4.7700 C   0  0  0  0  0  0  0  0  0  0  0  0
   36.0586   14.7647  -12.5039 C   0  0  0  0  0  0  0  0  0  0  0  0
   35.8407   12.9915  -12.6813 S   0  0  0  0  0  0  0  0  0  0  0  0
   37.7750   11.4437  -16.5647 C   0  0  0  0  0  0  0  0  0  0  0  0
   38.5087   11.7845  -15.4512 C   0  0  0  0  0  0  0  0  0  0  0  0
   37.9056   12.2530  -14.3168 C   0  0  0  0  0  0  0  0  0  0  0  0
   36.5188   12.4173  -14.2080 C   0  0  0  0  0  0  0  0  0  0  0  0
   35.7760   12.0778  -15.3165 C   0  0  0  0  0  0  0  0  0  0  0  0
   36.4129   11.6023  -16.4633 C   0  0  0  0  0  0  0  0  0  0  0  0
   37.6867   10.4593  -18.8054 O   0  0  0  0  0  0  0  0  0  0  0  0
   38.3974   10.9557  -17.7529 N   0  0  0  0  0  0  0  0  0  0  0  0
   39.6401   10.9897  -17.8192 O   0  0  0  0  0  0  0  0  0  0  0  0
 26 27  1  0  0  0
 27 28  2  0  0  0
 27 20  1  0  0  0
 20 21  2  0  0  0
 21 22  1  0  0  0
 22 23  2  0  0  0
 23 19  1  0  0  0
 19 18  1  0  0  0
 18  1  1  0  0  0
  1  2  2  0  0  0
  1  3  1  0  0  0
  3  4  1  0  0  0
  4  5  1  0  0  0
  5  6  1  0  0  0
  6  7  1  0  0  0
  7  8  1  0  0  0
  6  9  1  0  0  0
  9 10  2  0  0  0
  9 11  2  0  0  0
  9 12  1  0  0  0
 12 13  2  0  0  0
 13 14  1  0  0  0
 14 15  2  0  0  0
 15 16  1  0  0  0
 16 17  2  0  0  0
 23 24  1  0  0  0
 24 25  2  0  0  0
 25 20  1  0  0  0
  8  3  1  0  0  0
 17 12  1  0  0  0
M  CHG 1  26  -1
M  CHG 1  27   1
M  END
> <minimizedAffinity>
-7.76122

> <CNNscore>
0.3094723821

> <CNNaffinity>
5.4361577034

> <CNN_VS>
1.6823406219

> <CNNaffinity_variance>
0.3308961987

$$$$
[H]c1c([H])c([H])c(S(=O)(=O)N2C([H])([H])C([H])([H])N(C(=O)C([H])([H])Sc3c([H])c([H])c([N+](=O)[O-])c([H])c3[H])C([H])([H])C2([H])[H])c([H])c1[H]


 28 30  0  0  0  0  0  0  0  0999 V2000
   36.2835   15.8623  -11.3978 C   0  0  0  0  0  0  0  0  0  0  0  0
   35.0901   16.1793  -11.5376 O   0  0  0  0  0  0  0  0  0  0  0  0
   36.9946   16.0990  -10.1952 N   0  0  0  0  0  0  0  0  0  0  0  0
   38.3647   15.7350  -10.0536 C   0  0  0  0  0  0  0  0  0  0  0  0
   38.5972   14.8967   -8.8112 C   0  0  0  0  0  0  0  0  0  0  0  0
   37.4432   14.8671   -7.9696 N   0  0  0  0  0  0  0  0  0  0  0  0
   36.8073   16.1294   -7.7940 C   0  0  0  0  0  0  0  0  0  0  0  0
   36.3054   16.7233   -9.0915 C   0  0  0  0  0  0  0  0  0  0  0  0
   37.6977   14.0038   -6.5259 S   0  0  0  0  0  0  0  0  0  0  0  0
   37.0958   12.6094   -6.6296 O   0  0  0  0  0  0  0  0  0  0  0  0
   37.0411   14.6494   -5.3395 O   0  0  0  0  0  0  0  0  0  0  0  0
   39.4110   13.7904   -6.2617 C   0  0  0  0  0  0  0  0  0  0  0  0
   40.2005   14.7743   -5.6784 C   0  0  0  0  0  0  0  0  0  0  0  0
   41.5436   14.5956   -5.4735 C   0  0  0  0  0  0  0  0  0  0  0  0
   42.1695   13.4294   -5.8388 C   0  0  0  0  0  0  0  0  0  0  0  0
   41.3901   12.4517   -6.4176 C   0  0  0  0  0  0  0  0  0  0  0  0
   40.0251   12.6246   -6.6293 C   0  0  0  0  0  0  0  0  0  0  0  0
   37.0155   15.2107  -12.5144 C   0  0  0  0  0  0  0  0  0  0  0  0
   36.5382   13.4819  -12.5964 S   0  0  0  0  0  0  0  0  0  0  0  0
   37.9219   11.5757  -16.5549 C   0  0  0  0  0  0  0  0  0  0  0  0
   38.8013   12.0064  -15.5879 C   0  0  0  0  0  0  0  0  0  0  0  0
   38.3595   12.5799  -14.4278 C   0  0  0  0  0  0  0  0  0  0  0  0
   37.0005   12.7675  -14.1443 C   0  0  0  0  0  0  0  0  0  0  0  0
   36.1127   12.3386  -15.1055 C   0  0  0  0  0  0  0  0  0  0  0  0
   36.5864   11.7567  -16.2818 C   0  0  0  0  0  0  0  0  0  0  0  0
   39.6899   10.9518  -18.1305 O   0  0  0  0  0  0  0  0  0  0  0  0
   38.3754   10.9778  -17.7690 N   0  0  0  0  0  0  0  0  0  0  0  0
   37.5271   10.4621  -18.5203 O   0  0  0  0  0  0  0  0  0  0  0  0
 26 27  1  0  0  0
 27 28  2  0  0  0
 27 20  1  0  0  0
 20 21  2  0  0  0
 21 22  1  0  0  0
 22 23  2  0  0  0
 23 19  1  0  0  0
 19 18  1  0  0  0
 18  1  1  0  0  0
  1  2  2  0  0  0
  1  3  1  0  0  0
  3  4  1  0  0  0
  4  5  1  0  0  0
  5  6  1  0  0  0
  6  7  1  0  0  0
  7  8  1  0  0  0
  6  9  1  0  0  0
  9 10  2  0  0  0
  9 11  2  0  0  0
  9 12  1  0  0  0
 12 13  2  0  0  0
 13 14  1  0  0  0
 14 15  2  0  0  0
 15 16  1  0  0  0
 16 17  2  0  0  0
 23 24  1  0  0  0
 24 25  2  0  0  0
 25 20  1  0  0  0
  8  3  1  0  0  0
 17 12  1  0  0  0
M  CHG 1  26  -1
M  CHG 1  27   1
M  END
> <minimizedAffinity>
-7.61387

> <CNNscore>
0.1920602173

> <CNNaffinity>
5.3138570786

> <CNN_VS>
1.0205805302

> <CNNaffinity_variance>
0.1605628729

$$$$
[H]c1c([H])c([H])c(S(=O)(=O)N2C([H])([H])C([H])([H])N(C(=O)C([H])([H])Sc3c([H])c([H])c([N+](=O)[O-])c([H])c3[H])C([H])([H])C2([H])[H])c([H])c1[H]


 28 30  0  0  0  0  0  0  0  0999 V2000
   37.3189   16.2672  -11.0038 C   0  0  0  0  0  0  0  0  0  0  0  0
   36.4006   17.0997  -11.0940 O   0  0  0  0  0  0  0  0  0  0  0  0
   38.2718   16.3006   -9.9556 N   0  0  0  0  0  0  0  0  0  0  0  0
   39.3223   15.3421   -9.8705 C   0  0  0  0  0  0  0  0  0  0  0  0
   39.3750   14.6870   -8.5036 C   0  0  0  0  0  0  0  0  0  0  0  0
   38.5174   15.3442   -7.5688 N   0  0  0  0  0  0  0  0  0  0  0  0
   38.5758   16.7666   -7.6121 C   0  0  0  0  0  0  0  0  0  0  0  0
   38.1669   17.3338   -8.9535 C   0  0  0  0  0  0  0  0  0  0  0  0
   38.6157   14.6861   -6.0031 S   0  0  0  0  0  0  0  0  0  0  0  0
   37.6934   13.4817   -5.8760 O   0  0  0  0  0  0  0  0  0  0  0  0
   38.1814   15.6524   -4.9385 O   0  0  0  0  0  0  0  0  0  0  0  0
   40.2372   14.1076   -5.7081 C   0  0  0  0  0  0  0  0  0  0  0  0
   40.5718   12.7613   -5.7917 C   0  0  0  0  0  0  0  0  0  0  0  0
   41.8478   12.3183   -5.5606 C   0  0  0  0  0  0  0  0  0  0  0  0
   42.8554   13.1921   -5.2342 C   0  0  0  0  0  0  0  0  0  0  0  0
   42.5275   14.5276   -5.1501 C   0  0  0  0  0  0  0  0  0  0  0  0
   41.2340   14.9864   -5.3835 C   0  0  0  0  0  0  0  0  0  0  0  0
   37.4460   15.1877  -12.0167 C   0  0  0  0  0  0  0  0  0  0  0  0
   36.2066   13.9306  -11.6902 S   0  0  0  0  0  0  0  0  0  0  0  0
   34.9994   11.8491  -15.6181 C   0  0  0  0  0  0  0  0  0  0  0  0
   36.3078   12.1260  -15.2931 C   0  0  0  0  0  0  0  0  0  0  0  0
   36.6332   12.7566  -14.1242 C   0  0  0  0  0  0  0  0  0  0  0  0
   35.6730   13.1600  -13.1874 C   0  0  0  0  0  0  0  0  0  0  0  0
   34.3610   12.8861  -13.5031 C   0  0  0  0  0  0  0  0  0  0  0  0
   34.0524   12.2422  -14.7018 C   0  0  0  0  0  0  0  0  0  0  0  0
   33.3606   11.0385  -17.2475 O   0  0  0  0  0  0  0  0  0  0  0  0
   34.6517   11.1928  -16.8369 N   0  0  0  0  0  0  0  0  0  0  0  0
   35.5733   10.7474  -17.5456 O   0  0  0  0  0  0  0  0  0  0  0  0
 26 27  1  0  0  0
 27 28  2  0  0  0
 27 20  1  0  0  0
 20 21  2  0  0  0
 21 22  1  0  0  0
 22 23  2  0  0  0
 23 19  1  0  0  0
 19 18  1  0  0  0
 18  1  1  0  0  0
  1  2  2  0  0  0
  1  3  1  0  0  0
  3  4  1  0  0  0
  4  5  1  0  0  0
  5  6  1  0  0  0
  6  7  1  0  0  0
  7  8  1  0  0  0
  6  9  1  0  0  0
  9 10  2  0  0  0
  9 11  2  0  0  0
  9 12  1  0  0  0
 12 13  2  0  0  0
 13 14  1  0  0  0
 14 15  2  0  0  0
 15 16  1  0  0  0
 16 17  2  0  0  0
 23 24  1  0  0  0
 24 25  2  0  0  0
 25 20  1  0  0  0
  8  3  1  0  0  0
 17 12  1  0  0  0
M  CHG 1  26  -1
M  CHG 1  27   1
M  END
> <minimizedAffinity>
-6.88586

> <CNNscore>
0.1742010713

> <CNNaffinity>
5.3214645386

> <CNN_VS>
0.9270048141

> <CNNaffinity_variance>
0.1456314623

$$$$
[H]c1c([H])c([H])c(S(=O)(=O)N2C([H])([H])C([H])([H])N(C(=O)C([H])([H])Sc3c([H])c([H])c([N+](=O)[O-])c([H])c3[H])C([H])([H])C2([H])[H])c([H])c1[H]


 28 30  0  0  0  0  0  0  0  0999 V2000
   37.4337   16.2665  -10.8547 C   0  0  0  0  0  0  0  0  0  0  0  0
   36.6692   17.1914  -11.1781 O   0  0  0  0  0  0  0  0  0  0  0  0
   38.1472   16.2661   -9.6304 N   0  0  0  0  0  0  0  0  0  0  0  0
   39.0248   15.2006   -9.2778 C   0  0  0  0  0  0  0  0  0  0  0  0
   38.7104   14.6466   -7.9014 C   0  0  0  0  0  0  0  0  0  0  0  0
   37.7715   15.4664   -7.2032 N   0  0  0  0  0  0  0  0  0  0  0  0
   38.0211   16.8652   -7.3009 C   0  0  0  0  0  0  0  0  0  0  0  0
   37.9733   17.3756   -8.7241 C   0  0  0  0  0  0  0  0  0  0  0  0
   37.4601   14.9188   -5.6229 S   0  0  0  0  0  0  0  0  0  0  0  0
   37.9817   15.9211   -4.6027 O   0  0  0  0  0  0  0  0  0  0  0  0
   38.1462   13.6194   -5.3126 O   0  0  0  0  0  0  0  0  0  0  0  0
   35.7360   14.7993   -5.3701 C   0  0  0  0  0  0  0  0  0  0  0  0
   35.1357   15.1526   -4.1674 C   0  0  0  0  0  0  0  0  0  0  0  0
   33.7816   15.0571   -3.9805 C   0  0  0  0  0  0  0  0  0  0  0  0
   32.9560   14.6050   -4.9801 C   0  0  0  0  0  0  0  0  0  0  0  0
   33.5475   14.2535   -6.1738 C   0  0  0  0  0  0  0  0  0  0  0  0
   34.9221   14.3475   -6.3726 C   0  0  0  0  0  0  0  0  0  0  0  0
   37.6255   15.1078  -11.7646 C   0  0  0  0  0  0  0  0  0  0  0  0
   36.1965   14.0275  -11.6448 S   0  0  0  0  0  0  0  0  0  0  0  0
   35.2938   11.8336  -15.5932 C   0  0  0  0  0  0  0  0  0  0  0  0
   34.3118   12.1885  -14.6966 C   0  0  0  0  0  0  0  0  0  0  0  0
   34.6133   12.8286  -13.5264 C   0  0  0  0  0  0  0  0  0  0  0  0
   35.9234   13.1641  -13.1614 C   0  0  0  0  0  0  0  0  0  0  0  0
   36.9129   12.8142  -14.0527 C   0  0  0  0  0  0  0  0  0  0  0  0
   36.5818   12.1611  -15.2404 C   0  0  0  0  0  0  0  0  0  0  0  0
   33.7119   10.8526  -17.1847 O   0  0  0  0  0  0  0  0  0  0  0  0
   34.9871   11.1639  -16.8157 N   0  0  0  0  0  0  0  0  0  0  0  0
   35.9307   10.8565  -17.5675 O   0  0  0  0  0  0  0  0  0  0  0  0
 26 27  1  0  0  0
 27 28  2  0  0  0
 27 20  1  0  0  0
 20 21  2  0  0  0
 21 22  1  0  0  0
 22 23  2  0  0  0
 23 19  1  0  0  0
 19 18  1  0  0  0
 18  1  1  0  0  0
  1  2  2  0  0  0
  1  3  1  0  0  0
  3  4  1  0  0  0
  4  5  1  0  0  0
  5  6  1  0  0  0
  6  7  1  0  0  0
  7  8  1  0  0  0
  6  9  1  0  0  0
  9 10  2  0  0  0
  9 11  2  0  0  0
  9 12  1  0  0  0
 12 13  2  0  0  0
 13 14  1  0  0  0
 14 15  2  0  0  0
 15 16  1  0  0  0
 16 17  2  0  0  0
 23 24  1  0  0  0
 24 25  2  0  0  0
 25 20  1  0  0  0
  8  3  1  0  0  0
 17 12  1  0  0  0
M  CHG 1  26  -1
M  CHG 1  27   1
M  END
> <minimizedAffinity>
-7.20141

> <CNNscore>
0.1622005850

> <CNNaffinity>
5.2303023338

> <CNN_VS>
0.8483580947

> <CNNaffinity_variance>
0.2020380944

$$$$
[H]c1c([H])c([H])c(S(=O)(=O)N2C([H])([H])C([H])([H])N(C(=O)C([H])([H])Sc3c([H])c([H])c([N+](=O)[O-])c([H])c3[H])C([H])([H])C2([H])[H])c([H])c1[H]


 28 30  0  0  0  0  0  0  0  0999 V2000
   36.3097   13.9376  -11.9139 C   0  0  0  0  0  0  0  0  0  0  0  0
   35.7159   12.9026  -11.5668 O   0  0  0  0  0  0  0  0  0  0  0  0
   36.6565   14.9574  -10.9931 N   0  0  0  0  0  0  0  0  0  0  0  0
   37.3318   16.1409  -11.4088 C   0  0  0  0  0  0  0  0  0  0  0  0
   38.5732   16.4004  -10.5770 C   0  0  0  0  0  0  0  0  0  0  0  0
   38.6403   15.5344   -9.4427 N   0  0  0  0  0  0  0  0  0  0  0  0
   37.4088   15.3791   -8.7442 C   0  0  0  0  0  0  0  0  0  0  0  0
   36.3144   14.7834   -9.6019 C   0  0  0  0  0  0  0  0  0  0  0  0
   39.9780   15.8555   -8.4419 S   0  0  0  0  0  0  0  0  0  0  0  0
   39.6655   17.0034   -7.4922 O   0  0  0  0  0  0  0  0  0  0  0  0
   41.1936   16.2793   -9.2154 O   0  0  0  0  0  0  0  0  0  0  0  0
   40.3168   14.4610   -7.4463 C   0  0  0  0  0  0  0  0  0  0  0  0
   40.9996   13.3514   -7.9302 C   0  0  0  0  0  0  0  0  0  0  0  0
   41.2622   12.2634   -7.1397 C   0  0  0  0  0  0  0  0  0  0  0  0
   40.8586   12.2237   -5.8279 C   0  0  0  0  0  0  0  0  0  0  0  0
   40.1812   13.3217   -5.3446 C   0  0  0  0  0  0  0  0  0  0  0  0
   39.9102   14.4313   -6.1404 C   0  0  0  0  0  0  0  0  0  0  0  0
   36.6815   14.1395  -13.3381 C   0  0  0  0  0  0  0  0  0  0  0  0
   36.1762   12.6996  -14.2840 S   0  0  0  0  0  0  0  0  0  0  0  0
   39.4233   11.7321  -17.4048 C   0  0  0  0  0  0  0  0  0  0  0  0
   39.6460   12.5639  -16.3311 C   0  0  0  0  0  0  0  0  0  0  0  0
   38.6573   12.8415  -15.4281 C   0  0  0  0  0  0  0  0  0  0  0  0
   37.3662   12.3074  -15.5292 C   0  0  0  0  0  0  0  0  0  0  0  0
   37.1340   11.4730  -16.5996 C   0  0  0  0  0  0  0  0  0  0  0  0
   38.1578   11.2043  -17.5087 C   0  0  0  0  0  0  0  0  0  0  0  0
   40.1863   10.9205  -19.5857 O   0  0  0  0  0  0  0  0  0  0  0  0
   40.4496   11.4390  -18.3524 N   0  0  0  0  0  0  0  0  0  0  0  0
   41.6291   11.6704  -18.0282 O   0  0  0  0  0  0  0  0  0  0  0  0
 26 27  1  0  0  0
 27 28  2  0  0  0
 27 20  1  0  0  0
 20 21  2  0  0  0
 21 22  1  0  0  0
 22 23  2  0  0  0
 23 19  1  0  0  0
 19 18  1  0  0  0
 18  1  1  0  0  0
  1  2  2  0  0  0
  1  3  1  0  0  0
  3  4  1  0  0  0
  4  5  1  0  0  0
  5  6  1  0  0  0
  6  7  1  0  0  0
  7  8  1  0  0  0
  6  9  1  0  0  0
  9 10  2  0  0  0
  9 11  2  0  0  0
  9 12  1  0  0  0
 12 13  2  0  0  0
 13 14  1  0  0  0
 14 15  2  0  0  0
 15 16  1  0  0  0
 16 17  2  0  0  0
 23 24  1  0  0  0
 24 25  2  0  0  0
 25 20  1  0  0  0
  8  3  1  0  0  0
 17 12  1  0  0  0
M  CHG 1  26  -1
M  CHG 1  27   1
M  END
> <minimizedAffinity>
-6.94498

> <CNNscore>
0.1574705094

> <CNNaffinity>
5.4636793137

> <CNN_VS>
0.8603683710

> <CNNaffinity_variance>
0.1302649677

$$$$
[H]c1c([H])c([H])c(S(=O)(=O)N2C([H])([H])C([H])([H])N(C(=O)C([H])([H])Sc3c([H])c([H])c([N+](=O)[O-])c([H])c3[H])C([H])([H])C2([H])[H])c([H])c1[H]


 28 30  0  0  0  0  0  0  0  0999 V2000
   36.9921   15.6568  -11.4669 C   0  0  0  0  0  0  0  0  0  0  0  0
   36.0271   16.2429  -11.9860 O   0  0  0  0  0  0  0  0  0  0  0  0
   37.7644   16.2388  -10.4312 N   0  0  0  0  0  0  0  0  0  0  0  0
   38.8719   15.5556   -9.8512 C   0  0  0  0  0  0  0  0  0  0  0  0
   38.7718   15.5068   -8.3386 C   0  0  0  0  0  0  0  0  0  0  0  0
   37.7237   16.3462   -7.8506 N   0  0  0  0  0  0  0  0  0  0  0  0
   37.6584   17.6286   -8.4668 C   0  0  0  0  0  0  0  0  0  0  0  0
   37.4121   17.5557   -9.9575 C   0  0  0  0  0  0  0  0  0  0  0  0
   37.6380   16.3797   -6.1519 S   0  0  0  0  0  0  0  0  0  0  0  0
   37.2280   15.0153   -5.6153 O   0  0  0  0  0  0  0  0  0  0  0  0
   36.6112   17.3494   -5.6411 O   0  0  0  0  0  0  0  0  0  0  0  0
   39.2170   16.7237   -5.4893 C   0  0  0  0  0  0  0  0  0  0  0  0
   39.9870   15.7514   -4.8622 C   0  0  0  0  0  0  0  0  0  0  0  0
   41.2258   16.0317   -4.3478 C   0  0  0  0  0  0  0  0  0  0  0  0
   41.7612   17.2933   -4.4305 C   0  0  0  0  0  0  0  0  0  0  0  0
   41.0006   18.2600   -5.0513 C   0  0  0  0  0  0  0  0  0  0  0  0
   39.7414   17.9842   -5.5769 C   0  0  0  0  0  0  0  0  0  0  0  0
   37.3722   14.2969  -11.9290 C   0  0  0  0  0  0  0  0  0  0  0  0
   37.6798   14.3449  -13.6972 S   0  0  0  0  0  0  0  0  0  0  0  0
   34.9701   11.4496  -16.0409 C   0  0  0  0  0  0  0  0  0  0  0  0
   36.2665   11.7233  -16.4134 C   0  0  0  0  0  0  0  0  0  0  0  0
   37.0420   12.5977  -15.7034 C   0  0  0  0  0  0  0  0  0  0  0  0
   36.5800   13.2674  -14.5632 C   0  0  0  0  0  0  0  0  0  0  0  0
   35.2844   12.9991  -14.1818 C   0  0  0  0  0  0  0  0  0  0  0  0
   34.5115   12.1037  -14.9218 C   0  0  0  0  0  0  0  0  0  0  0  0
   33.0883   10.9460  -17.5251 O   0  0  0  0  0  0  0  0  0  0  0  0
   34.1539   10.5396  -16.7778 N   0  0  0  0  0  0  0  0  0  0  0  0
   34.4363    9.3281  -16.7284 O   0  0  0  0  0  0  0  0  0  0  0  0
 26 27  1  0  0  0
 27 28  2  0  0  0
 27 20  1  0  0  0
 20 21  2  0  0  0
 21 22  1  0  0  0
 22 23  2  0  0  0
 23 19  1  0  0  0
 19 18  1  0  0  0
 18  1  1  0  0  0
  1  2  2  0  0  0
  1  3  1  0  0  0
  3  4  1  0  0  0
  4  5  1  0  0  0
  5  6  1  0  0  0
  6  7  1  0  0  0
  7  8  1  0  0  0
  6  9  1  0  0  0
  9 10  2  0  0  0
  9 11  2  0  0  0
  9 12  1  0  0  0
 12 13  2  0  0  0
 13 14  1  0  0  0
 14 15  2  0  0  0
 15 16  1  0  0  0
 16 17  2  0  0  0
 23 24  1  0  0  0
 24 25  2  0  0  0
 25 20  1  0  0  0
  8  3  1  0  0  0
 17 12  1  0  0  0
M  CHG 1  26  -1
M  CHG 1  27   1
M  END
> <minimizedAffinity>
-6.74391

> <CNNscore>
0.1465828121

> <CNNaffinity>
5.3491144180

> <CNN_VS>
0.7840882540

> <CNNaffinity_variance>
0.2029982805

$$$$
[H]c1c([H])c([H])c(S(=O)(=O)N2C([H])([H])C([H])([H])N(C(=O)C([H])([H])Sc3c([H])c([H])c([N+](=O)[O-])c([H])c3[H])C([H])([H])C2([H])[H])c([H])c1[H]


 28 30  0  0  0  0  0  0  0  0999 V2000
   35.5927   13.3956  -12.5766 C   0  0  0  0  0  0  0  0  0  0  0  0
   35.8203   12.2127  -12.2710 O   0  0  0  0  0  0  0  0  0  0  0  0
   35.6072   14.4415  -11.6208 N   0  0  0  0  0  0  0  0  0  0  0  0
   35.3377   15.7917  -11.9869 C   0  0  0  0  0  0  0  0  0  0  0  0
   36.4253   16.7321  -11.5040 C   0  0  0  0  0  0  0  0  0  0  0  0
   37.3301   16.0800  -10.6111 N   0  0  0  0  0  0  0  0  0  0  0  0
   36.7040   15.2524   -9.6356 C   0  0  0  0  0  0  0  0  0  0  0  0
   35.9048   14.1221  -10.2453 C   0  0  0  0  0  0  0  0  0  0  0  0
   38.5143   17.1286   -9.9848 S   0  0  0  0  0  0  0  0  0  0  0  0
   38.4813   17.1159   -8.4629 O   0  0  0  0  0  0  0  0  0  0  0  0
   38.2971   18.5583  -10.3902 O   0  0  0  0  0  0  0  0  0  0  0  0
   40.1017   16.5724  -10.4552 C   0  0  0  0  0  0  0  0  0  0  0  0
   41.0874   16.2666   -9.5243 C   0  0  0  0  0  0  0  0  0  0  0  0
   42.3290   15.8287   -9.9043 C   0  0  0  0  0  0  0  0  0  0  0  0
   42.6533   15.6731  -11.2294 C   0  0  0  0  0  0  0  0  0  0  0  0
   41.6788   15.9755  -12.1553 C   0  0  0  0  0  0  0  0  0  0  0  0
   40.4148   16.4208  -11.7783 C   0  0  0  0  0  0  0  0  0  0  0  0
   35.2917   13.7545  -13.9866 C   0  0  0  0  0  0  0  0  0  0  0  0
   35.1596   12.2501  -14.9575 S   0  0  0  0  0  0  0  0  0  0  0  0
   39.0683   11.6172  -17.3112 C   0  0  0  0  0  0  0  0  0  0  0  0
   38.9925   12.4172  -16.1939 C   0  0  0  0  0  0  0  0  0  0  0  0
   37.8139   12.5949  -15.5237 C   0  0  0  0  0  0  0  0  0  0  0  0
   36.6168   11.9848  -15.9200 C   0  0  0  0  0  0  0  0  0  0  0  0
   36.6828   11.1813  -17.0363 C   0  0  0  0  0  0  0  0  0  0  0  0
   37.8963   11.0150  -17.7044 C   0  0  0  0  0  0  0  0  0  0  0  0
   41.5038   11.7895  -17.5012 O   0  0  0  0  0  0  0  0  0  0  0  0
   40.2944   11.4282  -18.0170 N   0  0  0  0  0  0  0  0  0  0  0  0
   40.2448   10.9115  -19.1486 O   0  0  0  0  0  0  0  0  0  0  0  0
 26 27  1  0  0  0
 27 28  2  0  0  0
 27 20  1  0  0  0
 20 21  2  0  0  0
 21 22  1  0  0  0
 22 23  2  0  0  0
 23 19  1  0  0  0
 19 18  1  0  0  0
 18  1  1  0  0  0
  1  2  2  0  0  0
  1  3  1  0  0  0
  3  4  1  0  0  0
  4  5  1  0  0  0
  5  6  1  0  0  0
  6  7  1  0  0  0
  7  8  1  0  0  0
  6  9  1  0  0  0
  9 10  2  0  0  0
  9 11  2  0  0  0
  9 12  1  0  0  0
 12 13  2  0  0  0
 13 14  1  0  0  0
 14 15  2  0  0  0
 15 16  1  0  0  0
 16 17  2  0  0  0
 23 24  1  0  0  0
 24 25  2  0  0  0
 25 20  1  0  0  0
  8  3  1  0  0  0
 17 12  1  0  0  0
M  CHG 1  26  -1
M  CHG 1  27   1
M  END
> <minimizedAffinity>
-8.08640

> <CNNscore>
0.1430566907

> <CNNaffinity>
5.5117793083

> <CNN_VS>
0.7884969115

> <CNNaffinity_variance>
0.2731778026

$$$$
[H]c1c([H])c([H])c(S(=O)(=O)N2C([H])([H])C([H])([H])N(C(=O)C([H])([H])Sc3c([H])c([H])c([N+](=O)[O-])c([H])c3[H])C([H])([H])C2([H])[H])c([H])c1[H]


 28 30  0  0  0  0  0  0  0  0999 V2000
   37.0051   15.4146  -11.6224 C   0  0  0  0  0  0  0  0  0  0  0  0
   35.9016   15.6628  -12.1371 O   0  0  0  0  0  0  0  0  0  0  0  0
   37.3238   15.7916  -10.2941 N   0  0  0  0  0  0  0  0  0  0  0  0
   38.5964   15.5049   -9.7213 C   0  0  0  0  0  0  0  0  0  0  0  0
   38.4645   14.7941   -8.3880 C   0  0  0  0  0  0  0  0  0  0  0  0
   37.1135   14.7882   -7.9232 N   0  0  0  0  0  0  0  0  0  0  0  0
   36.4330   16.0308   -8.0691 C   0  0  0  0  0  0  0  0  0  0  0  0
   36.3282   16.4812   -9.5094 C   0  0  0  0  0  0  0  0  0  0  0  0
   36.9434   14.0718   -6.3896 S   0  0  0  0  0  0  0  0  0  0  0  0
   38.1141   14.4529   -5.4943 O   0  0  0  0  0  0  0  0  0  0  0  0
   36.9393   12.5710   -6.4467 O   0  0  0  0  0  0  0  0  0  0  0  0
   35.5015   14.6787   -5.6128 C   0  0  0  0  0  0  0  0  0  0  0  0
   35.5279   15.7576   -4.7372 C   0  0  0  0  0  0  0  0  0  0  0  0
   34.3902   16.2272   -4.1349 C   0  0  0  0  0  0  0  0  0  0  0  0
   33.1686   15.6471   -4.3726 C   0  0  0  0  0  0  0  0  0  0  0  0
   33.1385   14.5770   -5.2399 C   0  0  0  0  0  0  0  0  0  0  0  0
   34.2892   14.0935   -5.8564 C   0  0  0  0  0  0  0  0  0  0  0  0
   38.0461   14.6986  -12.4042 C   0  0  0  0  0  0  0  0  0  0  0  0
   37.2651   13.3973  -13.3633 S   0  0  0  0  0  0  0  0  0  0  0  0
   39.7696   12.0547  -16.9887 C   0  0  0  0  0  0  0  0  0  0  0  0
   38.4789   11.6271  -16.7752 C   0  0  0  0  0  0  0  0  0  0  0  0
   37.7653   12.0343  -15.6821 C   0  0  0  0  0  0  0  0  0  0  0  0
   38.2885   12.9027  -14.7155 C   0  0  0  0  0  0  0  0  0  0  0  0
   39.5789   13.3370  -14.9210 C   0  0  0  0  0  0  0  0  0  0  0  0
   40.2882   12.9080  -16.0433 C   0  0  0  0  0  0  0  0  0  0  0  0
   39.9454   11.0385  -19.2099 O   0  0  0  0  0  0  0  0  0  0  0  0
   40.5213   11.6328  -18.1263 N   0  0  0  0  0  0  0  0  0  0  0  0
   41.7521   11.8205  -18.1171 O   0  0  0  0  0  0  0  0  0  0  0  0
 26 27  1  0  0  0
 27 28  2  0  0  0
 27 20  1  0  0  0
 20 21  2  0  0  0
 21 22  1  0  0  0
 22 23  2  0  0  0
 23 19  1  0  0  0
 19 18  1  0  0  0
 18  1  1  0  0  0
  1  2  2  0  0  0
  1  3  1  0  0  0
  3  4  1  0  0  0
  4  5  1  0  0  0
  5  6  1  0  0  0
  6  7  1  0  0  0
  7  8  1  0  0  0
  6  9  1  0  0  0
  9 10  2  0  0  0
  9 11  2  0  0  0
  9 12  1  0  0  0
 12 13  2  0  0  0
 13 14  1  0  0  0
 14 15  2  0  0  0
 15 16  1  0  0  0
 16 17  2  0  0  0
 23 24  1  0  0  0
 24 25  2  0  0  0
 25 20  1  0  0  0
  8  3  1  0  0  0
 17 12  1  0  0  0
M  CHG 1  26  -1
M  CHG 1  27   1
M  END
> <minimizedAffinity>
-7.69963

> <CNNscore>
0.1420110613

> <CNNaffinity>
5.2036781311

> <CNN_VS>
0.7389798760

> <CNNaffinity_variance>
0.1224398613

$$$$
[H]Oc1c([H])c([H])c(C([H])([H])[C@@]2([H])C(=O)N([H])[C@@]([H])([C@@]([H])(C([H])([H])[H])C([H])([H])C([H])([H])[H])C(=O)N3C([H])([H])C([H])([H])C([H])([H])[C@@]3([H])C(=O)N3C([H])([H])C([H])([H])C([H])([H])[C@@]3([H])C(=O)N([H])[C@@]([H])(C([H])([H])c3c([H])nc([H])n3[H])C(=O)N([H])[C@@]([H])(C([H])([H])c3c([H])nc([H])n3[H])C(=O)N3C([H])([H])C([H])([H])C([H])([H])[C@@]3([H])C(=O)N2[H])c([H])c1[H]


 68 74  0  0  0  0  0  0  0  0999 V2000
   45.1665   14.3037  -12.0212 C   0  0  0  0  0  0  0  0  0  0  0  0
   45.1026   14.6407  -10.6314 N   0  0  0  0  0  0  0  0  0  0  0  0
   44.8494   13.9939   -9.4575 C   0  0  0  0  0  0  0  0  0  0  0  0
   43.7568   14.5054   -8.8307 O   0  0  0  0  0  0  0  0  0  0  0  0
   45.3401   12.9321   -8.6135 C   0  0  0  0  0  0  0  0  0  0  0  0
   44.1625   12.0692   -8.2358 N   0  0  0  0  0  0  0  0  0  0  0  0
   44.0119   11.3391   -7.0654 C   0  0  0  0  0  0  0  0  0  0  0  0
   43.3820   10.2438   -7.2176 O   0  0  0  0  0  0  0  0  0  0  0  0
   44.4207   11.5609   -5.7047 C   0  0  0  0  0  0  0  0  0  0  0  0
   44.2508   10.3053   -4.8890 C   0  0  0  0  0  0  0  0  0  0  0  0
   42.9941   10.5187   -4.1543 C   0  0  0  0  0  0  0  0  0  0  0  0
   42.6359   11.9344   -4.3755 C   0  0  0  0  0  0  0  0  0  0  0  0
   43.8476   12.5866   -4.9180 N   0  0  0  0  0  0  0  0  0  0  0  0
   44.2244   13.8994   -4.6581 C   0  0  0  0  0  0  0  0  0  0  0  0
   43.2582   14.7460   -4.5273 O   0  0  0  0  0  0  0  0  0  0  0  0
   45.5513   14.4954   -4.5074 C   0  0  0  0  0  0  0  0  0  0  0  0
   45.3731   15.7968   -3.8629 N   0  0  0  0  0  0  0  0  0  0  0  0
   45.8721   17.0363   -4.2027 C   0  0  0  0  0  0  0  0  0  0  0  0
   46.7223   17.5438   -3.3646 O   0  0  0  0  0  0  0  0  0  0  0  0
   45.6065   17.9000   -5.3642 C   0  0  0  0  0  0  0  0  0  0  0  0
   45.3004   17.2122   -6.5911 N   0  0  0  0  0  0  0  0  0  0  0  0
   45.8108   17.4326   -7.8808 C   0  0  0  0  0  0  0  0  0  0  0  0
   44.9880   17.9008   -8.7515 O   0  0  0  0  0  0  0  0  0  0  0  0
   47.1802   17.1961   -8.3848 C   0  0  0  0  0  0  0  0  0  0  0  0
   48.2689   17.6264   -7.4285 C   0  0  0  0  0  0  0  0  0  0  0  0
   48.5375   19.0662   -7.6858 C   0  0  0  0  0  0  0  0  0  0  0  0
   47.6162   19.3949   -8.8406 C   0  0  0  0  0  0  0  0  0  0  0  0
   47.4283   18.0786   -9.5041 N   0  0  0  0  0  0  0  0  0  0  0  0
   47.4609   17.7061  -10.8720 C   0  0  0  0  0  0  0  0  0  0  0  0
   47.2171   18.6334  -11.6772 O   0  0  0  0  0  0  0  0  0  0  0  0
   47.7576   16.3374  -11.2750 C   0  0  0  0  0  0  0  0  0  0  0  0
   49.2721   16.3895  -11.6576 C   0  0  0  0  0  0  0  0  0  0  0  0
   49.1424   17.1072  -12.9957 C   0  0  0  0  0  0  0  0  0  0  0  0
   47.7908   16.7599  -13.5361 C   0  0  0  0  0  0  0  0  0  0  0  0
   47.2016   15.8683  -12.5167 N   0  0  0  0  0  0  0  0  0  0  0  0
   46.3327   14.7950  -12.7574 C   0  0  0  0  0  0  0  0  0  0  0  0
   46.5733   14.0781  -13.8248 O   0  0  0  0  0  0  0  0  0  0  0  0
   45.2890   15.7094  -10.5162 H   0  0  0  0  0  0  0  0  0  0  0  0
   43.4530   12.0850   -8.9950 H   0  0  0  0  0  0  0  0  0  0  0  0
   44.7512   15.7018   -2.9859 H   0  0  0  0  0  0  0  0  0  0  0  0
   44.5678   16.4404   -6.4742 H   0  0  0  0  0  0  0  0  0  0  0  0
   43.8782   14.6326  -12.7755 C   0  0  0  0  0  0  0  0  0  0  0  0
   43.0881   13.3909  -13.0915 C   0  0  0  0  0  0  0  0  0  0  0  0
   43.1446   17.0185  -12.4924 C   0  0  0  0  0  0  0  0  0  0  0  0
   42.9992   15.5764  -12.0464 C   0  0  0  0  0  0  0  0  0  0  0  0
   46.5450   12.1641   -8.7863 C   0  0  0  0  0  0  0  0  0  0  0  0
   46.7632   11.1726   -9.8093 C   0  0  0  0  0  0  0  0  0  0  0  0
   46.6676   11.4457  -11.1528 C   0  0  0  0  0  0  0  0  0  0  0  0
   46.8575   10.5604  -12.1580 C   0  0  0  0  0  0  0  0  0  0  0  0
   47.1788    9.2513  -11.8362 C   0  0  0  0  0  0  0  0  0  0  0  0
   47.3926    8.2709  -12.7969 O   0  0  0  0  0  0  0  0  0  0  0  0
   47.2900    8.9105  -10.5082 C   0  0  0  0  0  0  0  0  0  0  0  0
   47.0905    9.8352   -9.5223 C   0  0  0  0  0  0  0  0  0  0  0  0
   48.3571    8.1722  -13.1244 H   0  0  0  0  0  0  0  0  0  0  0  0
   46.5279   13.7674   -3.6263 C   0  0  0  0  0  0  0  0  0  0  0  0
   47.6666   13.1720   -4.3591 C   0  0  0  0  0  0  0  0  0  0  0  0
   48.1778   11.9195   -4.1521 C   0  0  0  0  0  0  0  0  0  0  0  0
   49.2238   11.7350   -4.9776 N   0  0  0  0  0  0  0  0  0  0  0  0
   49.3642   12.8514   -5.6888 C   0  0  0  0  0  0  0  0  0  0  0  0
   48.4244   13.7236   -5.3191 N   0  0  0  0  0  0  0  0  0  0  0  0
   48.2316   14.7073   -5.6684 H   0  0  0  0  0  0  0  0  0  0  0  0
   44.3177   18.6958   -5.0509 C   0  0  0  0  0  0  0  0  0  0  0  0
   44.7318   19.9939   -4.4903 C   0  0  0  0  0  0  0  0  0  0  0  0
   45.9776   20.3290   -4.0208 C   0  0  0  0  0  0  0  0  0  0  0  0
   45.9284   21.6141   -3.6240 N   0  0  0  0  0  0  0  0  0  0  0  0
   44.6885   22.0471   -3.8454 C   0  0  0  0  0  0  0  0  0  0  0  0
   43.9391   21.0713   -4.3758 N   0  0  0  0  0  0  0  0  0  0  0  0
   42.9348   21.1522   -4.6424 H   0  0  0  0  0  0  0  0  0  0  0  0
 44 45  1  0  0  0
 45 42  1  0  0  0
 42 43  1  0  0  0
 42  1  1  0  0  0
  1  2  1  0  0  0
  2  3  1  0  0  0
  3  4  2  0  0  0
  3  5  1  0  0  0
  5 46  1  0  0  0
 46 47  1  0  0  0
 47 48  2  0  0  0
 48 49  1  0  0  0
 49 50  2  0  0  0
 50 51  1  0  0  0
 50 52  1  0  0  0
 52 53  2  0  0  0
  5  6  1  0  0  0
  6  7  1  0  0  0
  7  8  2  0  0  0
  7  9  1  0  0  0
  9 10  1  0  0  0
 10 11  1  0  0  0
 11 12  1  0  0  0
 12 13  1  0  0  0
 13 14  1  0  0  0
 14 15  2  0  0  0
 14 16  1  0  0  0
 16 55  1  0  0  0
 55 56  1  0  0  0
 56 57  2  0  0  0
 57 58  1  0  0  0
 58 59  2  0  0  0
 59 60  1  0  0  0
 16 17  1  0  0  0
 17 18  1  0  0  0
 18 19  2  0  0  0
 18 20  1  0  0  0
 20 62  1  0  0  0
 62 63  1  0  0  0
 63 64  2  0  0  0
 64 65  1  0  0  0
 65 66  2  0  0  0
 66 67  1  0  0  0
 20 21  1  0  0  0
 21 22  1  0  0  0
 22 23  2  0  0  0
 22 24  1  0  0  0
 24 25  1  0  0  0
 25 26  1  0  0  0
 26 27  1  0  0  0
 27 28  1  0  0  0
 28 29  1  0  0  0
 29 30  2  0  0  0
 29 31  1  0  0  0
 31 32  1  0  0  0
 32 33  1  0  0  0
 33 34  1  0  0  0
 34 35  1  0  0  0
 35 36  1  0  0  0
 36 37  2  0  0  0
 36  1  1  0  0  0
 53 47  1  0  0  0
 13  9  1  0  0  0
 60 56  1  0  0  0
 67 63  1  0  0  0
 28 24  1  0  0  0
 35 31  1  0  0  0
  2 38  1  0  0  0
 51 54  1  0  0  0
  6 39  1  0  0  0
 60 61  1  0  0  0
 17 40  1  0  0  0
 67 68  1  0  0  0
 21 41  1  0  0  0
M  END
> <minimizedAffinity>
-4.83858

> <CNNscore>
0.4139350951

> <CNNaffinity>
7.1456589699

> <CNN_VS>
2.9578390121

> <CNNaffinity_variance>
1.0730969906

$$$$
[H]Oc1c([H])c([H])c(C([H])([H])[C@@]2([H])C(=O)N([H])[C@@]([H])([C@@]([H])(C([H])([H])[H])C([H])([H])C([H])([H])[H])C(=O)N3C([H])([H])C([H])([H])C([H])([H])[C@@]3([H])C(=O)N3C([H])([H])C([H])([H])C([H])([H])[C@@]3([H])C(=O)N([H])[C@@]([H])(C([H])([H])c3c([H])nc([H])n3[H])C(=O)N([H])[C@@]([H])(C([H])([H])c3c([H])nc([H])n3[H])C(=O)N3C([H])([H])C([H])([H])C([H])([H])[C@@]3([H])C(=O)N2[H])c([H])c1[H]


 68 74  0  0  0  0  0  0  0  0999 V2000
   45.3800   14.4846   -7.6756 C   0  0  0  0  0  0  0  0  0  0  0  0
   44.0077   14.8056   -7.9269 N   0  0  0  0  0  0  0  0  0  0  0  0
   42.9870   15.4175   -7.2606 C   0  0  0  0  0  0  0  0  0  0  0  0
   41.9413   14.5715   -7.0624 O   0  0  0  0  0  0  0  0  0  0  0  0
   42.6036   16.6788   -6.6751 C   0  0  0  0  0  0  0  0  0  0  0  0
   42.0594   16.3950   -5.2977 N   0  0  0  0  0  0  0  0  0  0  0  0
   41.0936   17.1267   -4.6214 C   0  0  0  0  0  0  0  0  0  0  0  0
   41.2665   17.1696   -3.3613 O   0  0  0  0  0  0  0  0  0  0  0  0
   39.9279   17.8532   -5.0476 C   0  0  0  0  0  0  0  0  0  0  0  0
   39.3968   18.7078   -3.9259 C   0  0  0  0  0  0  0  0  0  0  0  0
   38.2634   17.9376   -3.3901 C   0  0  0  0  0  0  0  0  0  0  0  0
   38.0403   16.8347   -4.3468 C   0  0  0  0  0  0  0  0  0  0  0  0
   38.7931   17.1904   -5.5693 N   0  0  0  0  0  0  0  0  0  0  0  0
   38.3908   16.8846   -6.8645 C   0  0  0  0  0  0  0  0  0  0  0  0
   37.7694   15.7620   -7.0098 O   0  0  0  0  0  0  0  0  0  0  0  0
   38.5563   17.6294   -8.1121 C   0  0  0  0  0  0  0  0  0  0  0  0
   37.6212   17.0629   -9.0844 N   0  0  0  0  0  0  0  0  0  0  0  0
   37.8262   16.6519  -10.3844 C   0  0  0  0  0  0  0  0  0  0  0  0
   37.2231   17.3547  -11.2929 O   0  0  0  0  0  0  0  0  0  0  0  0
   38.6184   15.5397  -10.9330 C   0  0  0  0  0  0  0  0  0  0  0  0
   39.7964   15.1890  -10.1838 N   0  0  0  0  0  0  0  0  0  0  0  0
   41.1009   14.9499  -10.6458 C   0  0  0  0  0  0  0  0  0  0  0  0
   41.5299   13.7408  -10.5540 O   0  0  0  0  0  0  0  0  0  0  0  0
   42.0641   15.9079  -11.2286 C   0  0  0  0  0  0  0  0  0  0  0  0
   41.4474   16.8775  -12.2107 C   0  0  0  0  0  0  0  0  0  0  0  0
   41.4573   16.2199  -13.5443 C   0  0  0  0  0  0  0  0  0  0  0  0
   42.1456   14.8982  -13.2797 C   0  0  0  0  0  0  0  0  0  0  0  0
   42.9816   15.1894  -12.0861 N   0  0  0  0  0  0  0  0  0  0  0  0
   44.3311   14.8721  -11.7879 C   0  0  0  0  0  0  0  0  0  0  0  0
   44.7891   13.8829  -12.4041 O   0  0  0  0  0  0  0  0  0  0  0  0
   45.0977   15.6584  -10.8299 C   0  0  0  0  0  0  0  0  0  0  0  0
   45.9338   16.6213  -11.7335 C   0  0  0  0  0  0  0  0  0  0  0  0
   46.9647   15.6190  -12.2383 C   0  0  0  0  0  0  0  0  0  0  0  0
   47.0950   14.5712  -11.1779 C   0  0  0  0  0  0  0  0  0  0  0  0
   46.1598   14.9982  -10.1175 N   0  0  0  0  0  0  0  0  0  0  0  0
   46.3311   14.8146   -8.7385 C   0  0  0  0  0  0  0  0  0  0  0  0
   47.5477   14.9537   -8.2785 O   0  0  0  0  0  0  0  0  0  0  0  0
   43.7294   14.4282   -8.9119 H   0  0  0  0  0  0  0  0  0  0  0  0
   42.5217   15.5536   -4.8999 H   0  0  0  0  0  0  0  0  0  0  0  0
   36.6322   16.9894   -8.6586 H   0  0  0  0  0  0  0  0  0  0  0  0
   39.6178   15.0898   -9.1329 H   0  0  0  0  0  0  0  0  0  0  0  0
   45.5799   13.0440   -7.2048 C   0  0  0  0  0  0  0  0  0  0  0  0
   44.8281   12.7676   -5.9304 C   0  0  0  0  0  0  0  0  0  0  0  0
   45.7505   10.6562   -7.9665 C   0  0  0  0  0  0  0  0  0  0  0  0
   45.1779   12.0382   -8.2155 C   0  0  0  0  0  0  0  0  0  0  0  0
   43.3245   17.9233   -6.7303 C   0  0  0  0  0  0  0  0  0  0  0  0
   44.7571   18.0547   -6.8180 C   0  0  0  0  0  0  0  0  0  0  0  0
   45.5857   17.9914   -5.7234 C   0  0  0  0  0  0  0  0  0  0  0  0
   46.9333   18.1099   -5.7404 C   0  0  0  0  0  0  0  0  0  0  0  0
   47.5652   18.3143   -6.9567 C   0  0  0  0  0  0  0  0  0  0  0  0
   48.9428   18.4480   -7.0760 O   0  0  0  0  0  0  0  0  0  0  0  0
   46.7934   18.3879   -8.0928 C   0  0  0  0  0  0  0  0  0  0  0  0
   45.4341   18.2628   -8.0330 C   0  0  0  0  0  0  0  0  0  0  0  0
   49.4624   17.5792   -7.2264 H   0  0  0  0  0  0  0  0  0  0  0  0
   38.2249   19.0954   -8.0783 C   0  0  0  0  0  0  0  0  0  0  0  0
   36.9321   19.4020   -7.4280 C   0  0  0  0  0  0  0  0  0  0  0  0
   36.7779   20.0316   -6.2226 C   0  0  0  0  0  0  0  0  0  0  0  0
   35.4655   20.1107   -5.9384 N   0  0  0  0  0  0  0  0  0  0  0  0
   34.8102   19.5417   -6.9477 C   0  0  0  0  0  0  0  0  0  0  0  0
   35.6926   19.1119   -7.8517 N   0  0  0  0  0  0  0  0  0  0  0  0
   35.5345   18.6159   -8.7768 H   0  0  0  0  0  0  0  0  0  0  0  0
   37.7347   14.2727  -10.8540 C   0  0  0  0  0  0  0  0  0  0  0  0
   37.0080   14.1672  -12.1313 C   0  0  0  0  0  0  0  0  0  0  0  0
   35.6474   14.1006  -12.3022 C   0  0  0  0  0  0  0  0  0  0  0  0
   35.4082   14.0375  -13.6252 N   0  0  0  0  0  0  0  0  0  0  0  0
   36.5892   14.0645  -14.2402 C   0  0  0  0  0  0  0  0  0  0  0  0
   37.5825   14.1441  -13.3444 N   0  0  0  0  0  0  0  0  0  0  0  0
   38.6002   14.1804  -13.5662 H   0  0  0  0  0  0  0  0  0  0  0  0
 44 45  1  0  0  0
 45 42  1  0  0  0
 42 43  1  0  0  0
 42  1  1  0  0  0
  1  2  1  0  0  0
  2  3  1  0  0  0
  3  4  2  0  0  0
  3  5  1  0  0  0
  5 46  1  0  0  0
 46 47  1  0  0  0
 47 48  2  0  0  0
 48 49  1  0  0  0
 49 50  2  0  0  0
 50 51  1  0  0  0
 50 52  1  0  0  0
 52 53  2  0  0  0
  5  6  1  0  0  0
  6  7  1  0  0  0
  7  8  2  0  0  0
  7  9  1  0  0  0
  9 10  1  0  0  0
 10 11  1  0  0  0
 11 12  1  0  0  0
 12 13  1  0  0  0
 13 14  1  0  0  0
 14 15  2  0  0  0
 14 16  1  0  0  0
 16 55  1  0  0  0
 55 56  1  0  0  0
 56 57  2  0  0  0
 57 58  1  0  0  0
 58 59  2  0  0  0
 59 60  1  0  0  0
 16 17  1  0  0  0
 17 18  1  0  0  0
 18 19  2  0  0  0
 18 20  1  0  0  0
 20 62  1  0  0  0
 62 63  1  0  0  0
 63 64  2  0  0  0
 64 65  1  0  0  0
 65 66  2  0  0  0
 66 67  1  0  0  0
 20 21  1  0  0  0
 21 22  1  0  0  0
 22 23  2  0  0  0
 22 24  1  0  0  0
 24 25  1  0  0  0
 25 26  1  0  0  0
 26 27  1  0  0  0
 27 28  1  0  0  0
 28 29  1  0  0  0
 29 30  2  0  0  0
 29 31  1  0  0  0
 31 32  1  0  0  0
 32 33  1  0  0  0
 33 34  1  0  0  0
 34 35  1  0  0  0
 35 36  1  0  0  0
 36 37  2  0  0  0
 36  1  1  0  0  0
 53 47  1  0  0  0
 13  9  1  0  0  0
 60 56  1  0  0  0
 67 63  1  0  0  0
 28 24  1  0  0  0
 35 31  1  0  0  0
  2 38  1  0  0  0
 51 54  1  0  0  0
  6 39  1  0  0  0
 60 61  1  0  0  0
 17 40  1  0  0  0
 67 68  1  0  0  0
 21 41  1  0  0  0
M  END
> <minimizedAffinity>
-2.61287

> <CNNscore>
0.3381728828

> <CNNaffinity>
7.2562112808

> <CNN_VS>
2.4538538456

> <CNNaffinity_variance>
0.7588901520

$$$$
[H]Oc1c([H])c([H])c(C([H])([H])[C@@]2([H])C(=O)N([H])[C@@]([H])([C@@]([H])(C([H])([H])[H])C([H])([H])C([H])([H])[H])C(=O)N3C([H])([H])C([H])([H])C([H])([H])[C@@]3([H])C(=O)N3C([H])([H])C([H])([H])C([H])([H])[C@@]3([H])C(=O)N([H])[C@@]([H])(C([H])([H])c3c([H])nc([H])n3[H])C(=O)N([H])[C@@]([H])(C([H])([H])c3c([H])nc([H])n3[H])C(=O)N3C([H])([H])C([H])([H])C([H])([H])[C@@]3([H])C(=O)N2[H])c([H])c1[H]


 68 74  0  0  0  0  0  0  0  0999 V2000
   44.4045   14.0374   -7.2687 C   0  0  0  0  0  0  0  0  0  0  0  0
   43.0878   14.2093   -7.8035 N   0  0  0  0  0  0  0  0  0  0  0  0
   41.8125   14.2565   -7.3219 C   0  0  0  0  0  0  0  0  0  0  0  0
   41.0462   13.2590   -7.8379 O   0  0  0  0  0  0  0  0  0  0  0  0
   40.9562   15.0084   -6.4375 C   0  0  0  0  0  0  0  0  0  0  0  0
   40.2339   14.0217   -5.5550 N   0  0  0  0  0  0  0  0  0  0  0  0
   38.9723   14.1769   -4.9984 C   0  0  0  0  0  0  0  0  0  0  0  0
   38.8464   13.6460   -3.8487 O   0  0  0  0  0  0  0  0  0  0  0  0
   37.7662   14.8163   -5.4507 C   0  0  0  0  0  0  0  0  0  0  0  0
   36.7757   14.9382   -4.3216 C   0  0  0  0  0  0  0  0  0  0  0  0
   35.8320   13.8324   -4.5476 C   0  0  0  0  0  0  0  0  0  0  0  0
   36.1581   13.2938   -5.8837 C   0  0  0  0  0  0  0  0  0  0  0  0
   37.0195   14.3035   -6.5364 N   0  0  0  0  0  0  0  0  0  0  0  0
   37.0173   14.5858   -7.8977 C   0  0  0  0  0  0  0  0  0  0  0  0
   36.8021   13.5810   -8.6798 O   0  0  0  0  0  0  0  0  0  0  0  0
   37.2230   15.8479   -8.6072 C   0  0  0  0  0  0  0  0  0  0  0  0
   36.7319   15.6644   -9.9731 N   0  0  0  0  0  0  0  0  0  0  0  0
   37.3267   15.9574  -11.1819 C   0  0  0  0  0  0  0  0  0  0  0  0
   36.7560   16.8967  -11.8709 O   0  0  0  0  0  0  0  0  0  0  0  0
   38.5114   15.3841  -11.8404 C   0  0  0  0  0  0  0  0  0  0  0  0
   39.5478   14.9190  -10.9563 N   0  0  0  0  0  0  0  0  0  0  0  0
   40.9325   15.1445  -11.0195 C   0  0  0  0  0  0  0  0  0  0  0  0
   41.6684   14.1247  -11.2896 O   0  0  0  0  0  0  0  0  0  0  0  0
   41.6728   16.4073  -10.8135 C   0  0  0  0  0  0  0  0  0  0  0  0
   41.0266   17.6102  -11.4619 C   0  0  0  0  0  0  0  0  0  0  0  0
   41.5201   17.6737  -12.8632 C   0  0  0  0  0  0  0  0  0  0  0  0
   42.4929   16.5172  -12.9462 C   0  0  0  0  0  0  0  0  0  0  0  0
   42.9250   16.3415  -11.5353 N   0  0  0  0  0  0  0  0  0  0  0  0
   44.2093   16.1468  -10.9664 C   0  0  0  0  0  0  0  0  0  0  0  0
   45.0613   15.6572  -11.7424 O   0  0  0  0  0  0  0  0  0  0  0  0
   44.4820   16.4997   -9.5790 C   0  0  0  0  0  0  0  0  0  0  0  0
   45.1723   17.8978   -9.6866 C   0  0  0  0  0  0  0  0  0  0  0  0
   46.5371   17.4380  -10.1850 C   0  0  0  0  0  0  0  0  0  0  0  0
   46.7367   16.0506   -9.6608 C   0  0  0  0  0  0  0  0  0  0  0  0
   45.5098   15.7652   -8.8897 N   0  0  0  0  0  0  0  0  0  0  0  0
   45.4233   14.9819   -7.7305 C   0  0  0  0  0  0  0  0  0  0  0  0
   46.4140   15.0839   -6.8825 O   0  0  0  0  0  0  0  0  0  0  0  0
   43.1546   14.3031   -8.8883 H   0  0  0  0  0  0  0  0  0  0  0  0
   40.8258   13.1809   -5.4042 H   0  0  0  0  0  0  0  0  0  0  0  0
   35.7408   15.2373   -9.9637 H   0  0  0  0  0  0  0  0  0  0  0  0
   39.1822   14.3066  -10.1579 H   0  0  0  0  0  0  0  0  0  0  0  0
   44.9132   12.6005   -7.3840 C   0  0  0  0  0  0  0  0  0  0  0  0
   45.6432   12.3729   -8.6805 C   0  0  0  0  0  0  0  0  0  0  0  0
   46.2172   10.7461   -6.3016 C   0  0  0  0  0  0  0  0  0  0  0  0
   45.8029   12.2045   -6.2676 C   0  0  0  0  0  0  0  0  0  0  0  0
   41.2718   16.2298   -5.7447 C   0  0  0  0  0  0  0  0  0  0  0  0
   40.3083   17.1622   -5.2160 C   0  0  0  0  0  0  0  0  0  0  0  0
   39.4082   17.8397   -6.0032 C   0  0  0  0  0  0  0  0  0  0  0  0
   38.4841   18.7269   -5.5683 C   0  0  0  0  0  0  0  0  0  0  0  0
   38.4136   18.9987   -4.2113 C   0  0  0  0  0  0  0  0  0  0  0  0
   37.4994   19.8936   -3.6695 O   0  0  0  0  0  0  0  0  0  0  0  0
   39.2872   18.3540   -3.3668 C   0  0  0  0  0  0  0  0  0  0  0  0
   40.2063   17.4639   -3.8461 C   0  0  0  0  0  0  0  0  0  0  0  0
   36.5991   19.4950   -3.3906 H   0  0  0  0  0  0  0  0  0  0  0  0
   36.4748   17.0466   -8.0939 C   0  0  0  0  0  0  0  0  0  0  0  0
   35.0518   16.7793   -7.7907 C   0  0  0  0  0  0  0  0  0  0  0  0
   34.1066   16.3826   -8.6974 C   0  0  0  0  0  0  0  0  0  0  0  0
   32.9230   16.2665   -8.0688 N   0  0  0  0  0  0  0  0  0  0  0  0
   33.1239   16.5841   -6.7918 C   0  0  0  0  0  0  0  0  0  0  0  0
   34.4101   16.8944   -6.6181 N   0  0  0  0  0  0  0  0  0  0  0  0
   34.9273   17.1919   -5.7401 H   0  0  0  0  0  0  0  0  0  0  0  0
   38.0459   14.1052  -12.5753 C   0  0  0  0  0  0  0  0  0  0  0  0
   38.9052   13.9464  -13.7616 C   0  0  0  0  0  0  0  0  0  0  0  0
   38.6768   14.4503  -15.0180 C   0  0  0  0  0  0  0  0  0  0  0  0
   39.7177   14.0932  -15.7928 N   0  0  0  0  0  0  0  0  0  0  0  0
   40.5541   13.3921  -15.0294 C   0  0  0  0  0  0  0  0  0  0  0  0
   40.0763   13.2903  -13.7817 N   0  0  0  0  0  0  0  0  0  0  0  0
   40.5396   12.7931  -12.9916 H   0  0  0  0  0  0  0  0  0  0  0  0
 44 45  1  0  0  0
 45 42  1  0  0  0
 42 43  1  0  0  0
 42  1  1  0  0  0
  1  2  1  0  0  0
  2  3  1  0  0  0
  3  4  2  0  0  0
  3  5  1  0  0  0
  5 46  1  0  0  0
 46 47  1  0  0  0
 47 48  2  0  0  0
 48 49  1  0  0  0
 49 50  2  0  0  0
 50 51  1  0  0  0
 50 52  1  0  0  0
 52 53  2  0  0  0
  5  6  1  0  0  0
  6  7  1  0  0  0
  7  8  2  0  0  0
  7  9  1  0  0  0
  9 10  1  0  0  0
 10 11  1  0  0  0
 11 12  1  0  0  0
 12 13  1  0  0  0
 13 14  1  0  0  0
 14 15  2  0  0  0
 14 16  1  0  0  0
 16 55  1  0  0  0
 55 56  1  0  0  0
 56 57  2  0  0  0
 57 58  1  0  0  0
 58 59  2  0  0  0
 59 60  1  0  0  0
 16 17  1  0  0  0
 17 18  1  0  0  0
 18 19  2  0  0  0
 18 20  1  0  0  0
 20 62  1  0  0  0
 62 63  1  0  0  0
 63 64  2  0  0  0
 64 65  1  0  0  0
 65 66  2  0  0  0
 66 67  1  0  0  0
 20 21  1  0  0  0
 21 22  1  0  0  0
 22 23  2  0  0  0
 22 24  1  0  0  0
 24 25  1  0  0  0
 25 26  1  0  0  0
 26 27  1  0  0  0
 27 28  1  0  0  0
 28 29  1  0  0  0
 29 30  2  0  0  0
 29 31  1  0  0  0
 31 32  1  0  0  0
 32 33  1  0  0  0
 33 34  1  0  0  0
 34 35  1  0  0  0
 35 36  1  0  0  0
 36 37  2  0  0  0
 36  1  1  0  0  0
 53 47  1  0  0  0
 13  9  1  0  0  0
 60 56  1  0  0  0
 67 63  1  0  0  0
 28 24  1  0  0  0
 35 31  1  0  0  0
  2 38  1  0  0  0
 51 54  1  0  0  0
  6 39  1  0  0  0
 60 61  1  0  0  0
 17 40  1  0  0  0
 67 68  1  0  0  0
 21 41  1  0  0  0
M  END
> <minimizedAffinity>
-2.01728

> <CNNscore>
0.3351707160

> <CNNaffinity>
7.3154006004

> <CNN_VS>
2.4519081116

> <CNNaffinity_variance>
0.6491125822

$$$$
[H]Oc1c([H])c([H])c(C([H])([H])[C@@]2([H])C(=O)N([H])[C@@]([H])([C@@]([H])(C([H])([H])[H])C([H])([H])C([H])([H])[H])C(=O)N3C([H])([H])C([H])([H])C([H])([H])[C@@]3([H])C(=O)N3C([H])([H])C([H])([H])C([H])([H])[C@@]3([H])C(=O)N([H])[C@@]([H])(C([H])([H])c3c([H])nc([H])n3[H])C(=O)N([H])[C@@]([H])(C([H])([H])c3c([H])nc([H])n3[H])C(=O)N3C([H])([H])C([H])([H])C([H])([H])[C@@]3([H])C(=O)N2[H])c([H])c1[H]


 68 74  0  0  0  0  0  0  0  0999 V2000
   37.1575   17.5722   -6.1873 C   0  0  0  0  0  0  0  0  0  0  0  0
   38.3384   17.1653   -6.8869 N   0  0  0  0  0  0  0  0  0  0  0  0
   39.5705   16.6761   -6.5663 C   0  0  0  0  0  0  0  0  0  0  0  0
   40.5618   17.5136   -6.9719 O   0  0  0  0  0  0  0  0  0  0  0  0
   40.2216   15.5542   -5.9354 C   0  0  0  0  0  0  0  0  0  0  0  0
   41.2436   16.1033   -4.9721 N   0  0  0  0  0  0  0  0  0  0  0  0
   42.4359   15.5007   -4.5966 C   0  0  0  0  0  0  0  0  0  0  0  0
   42.7712   15.7272   -3.3900 O   0  0  0  0  0  0  0  0  0  0  0  0
   43.3811   14.6671   -5.2892 C   0  0  0  0  0  0  0  0  0  0  0  0
   44.3547   14.0504   -4.3184 C   0  0  0  0  0  0  0  0  0  0  0  0
   45.5625   14.8815   -4.4405 C   0  0  0  0  0  0  0  0  0  0  0  0
   45.3327   15.7532   -5.6105 C   0  0  0  0  0  0  0  0  0  0  0  0
   44.1834   15.1724   -6.3382 N   0  0  0  0  0  0  0  0  0  0  0  0
   44.0305   15.1889   -7.7199 C   0  0  0  0  0  0  0  0  0  0  0  0
   44.4824   16.2375   -8.3230 O   0  0  0  0  0  0  0  0  0  0  0  0
   43.4328   14.2051   -8.6219 C   0  0  0  0  0  0  0  0  0  0  0  0
   43.8810   14.5281   -9.9767 N   0  0  0  0  0  0  0  0  0  0  0  0
   43.1623   14.6644  -11.1453 C   0  0  0  0  0  0  0  0  0  0  0  0
   43.4009   13.7699  -12.0541 O   0  0  0  0  0  0  0  0  0  0  0  0
   42.1581   15.6604  -11.5521 C   0  0  0  0  0  0  0  0  0  0  0  0
   41.3486   16.1946  -10.4885 N   0  0  0  0  0  0  0  0  0  0  0  0
   39.9562   16.3703  -10.4383 C   0  0  0  0  0  0  0  0  0  0  0  0
   39.5306   17.5841  -10.4335 O   0  0  0  0  0  0  0  0  0  0  0  0
   38.8968   15.3407  -10.3872 C   0  0  0  0  0  0  0  0  0  0  0  0
   39.1341   14.1695  -11.3130 C   0  0  0  0  0  0  0  0  0  0  0  0
   38.5677   14.5341  -12.6388 C   0  0  0  0  0  0  0  0  0  0  0  0
   37.9650   15.9016  -12.3997 C   0  0  0  0  0  0  0  0  0  0  0  0
   37.6789   15.8910  -10.9415 N   0  0  0  0  0  0  0  0  0  0  0  0
   36.5375   16.3034  -10.2080 C   0  0  0  0  0  0  0  0  0  0  0  0
   35.8211   17.1551  -10.7818 O   0  0  0  0  0  0  0  0  0  0  0  0
   36.2508   15.7576   -8.8876 C   0  0  0  0  0  0  0  0  0  0  0  0
   35.1833   14.6523   -9.1731 C   0  0  0  0  0  0  0  0  0  0  0  0
   33.9830   15.5571   -9.4243 C   0  0  0  0  0  0  0  0  0  0  0  0
   34.2190   16.8067   -8.6354 C   0  0  0  0  0  0  0  0  0  0  0  0
   35.5162   16.5831   -7.9656 N   0  0  0  0  0  0  0  0  0  0  0  0
   35.8869   17.0557   -6.6991 C   0  0  0  0  0  0  0  0  0  0  0  0
   34.9562   17.0518   -5.7799 O   0  0  0  0  0  0  0  0  0  0  0  0
   38.1886   17.3203   -7.9563 H   0  0  0  0  0  0  0  0  0  0  0  0
   40.9273   17.0225   -4.6049 H   0  0  0  0  0  0  0  0  0  0  0  0
   44.9519   14.6596   -9.9988 H   0  0  0  0  0  0  0  0  0  0  0  0
   41.9175   16.5058   -9.6367 H   0  0  0  0  0  0  0  0  0  0  0  0
   37.0775   19.0846   -5.9797 C   0  0  0  0  0  0  0  0  0  0  0  0
   37.3780   19.4655   -4.5548 C   0  0  0  0  0  0  0  0  0  0  0  0
   37.3365   20.2915   -8.1676 C   0  0  0  0  0  0  0  0  0  0  0  0
   37.9840   19.8452   -6.8710 C   0  0  0  0  0  0  0  0  0  0  0  0
   39.6067   14.3476   -5.4481 C   0  0  0  0  0  0  0  0  0  0  0  0
   38.1975   14.1686   -5.2045 C   0  0  0  0  0  0  0  0  0  0  0  0
   37.5794   14.5664   -4.0433 C   0  0  0  0  0  0  0  0  0  0  0  0
   36.2653   14.4240   -3.7549 C   0  0  0  0  0  0  0  0  0  0  0  0
   35.4414   13.8264   -4.6954 C   0  0  0  0  0  0  0  0  0  0  0  0
   34.0806   13.6360   -4.4913 O   0  0  0  0  0  0  0  0  0  0  0  0
   35.9972   13.4042   -5.8806 C   0  0  0  0  0  0  0  0  0  0  0  0
   37.3300   13.5669   -6.1337 C   0  0  0  0  0  0  0  0  0  0  0  0
   33.4736   14.4000   -4.7999 H   0  0  0  0  0  0  0  0  0  0  0  0
   43.8320   12.7694   -8.4236 C   0  0  0  0  0  0  0  0  0  0  0  0
   45.2472   12.4908   -8.7519 C   0  0  0  0  0  0  0  0  0  0  0  0
   45.6859   11.7547   -9.8190 C   0  0  0  0  0  0  0  0  0  0  0  0
   47.0289   11.6898   -9.7795 N   0  0  0  0  0  0  0  0  0  0  0  0
   47.4237   12.3733   -8.7077 C   0  0  0  0  0  0  0  0  0  0  0  0
   46.3499   12.8605   -8.0829 N   0  0  0  0  0  0  0  0  0  0  0  0
   46.2820   13.4500   -7.2027 H   0  0  0  0  0  0  0  0  0  0  0  0
   42.9306   16.8893  -12.0865 C   0  0  0  0  0  0  0  0  0  0  0  0
   44.0812   16.3814  -12.8541 C   0  0  0  0  0  0  0  0  0  0  0  0
   45.4090   16.5069  -12.5286 C   0  0  0  0  0  0  0  0  0  0  0  0
   46.1209   15.8814  -13.4842 N   0  0  0  0  0  0  0  0  0  0  0  0
   45.2509   15.3906  -14.3651 C   0  0  0  0  0  0  0  0  0  0  0  0
   43.9963   15.6849  -13.9986 N   0  0  0  0  0  0  0  0  0  0  0  0
   43.1324   15.4156  -14.5157 H   0  0  0  0  0  0  0  0  0  0  0  0
 44 45  1  0  0  0
 45 42  1  0  0  0
 42 43  1  0  0  0
 42  1  1  0  0  0
  1  2  1  0  0  0
  2  3  1  0  0  0
  3  4  2  0  0  0
  3  5  1  0  0  0
  5 46  1  0  0  0
 46 47  1  0  0  0
 47 48  2  0  0  0
 48 49  1  0  0  0
 49 50  2  0  0  0
 50 51  1  0  0  0
 50 52  1  0  0  0
 52 53  2  0  0  0
  5  6  1  0  0  0
  6  7  1  0  0  0
  7  8  2  0  0  0
  7  9  1  0  0  0
  9 10  1  0  0  0
 10 11  1  0  0  0
 11 12  1  0  0  0
 12 13  1  0  0  0
 13 14  1  0  0  0
 14 15  2  0  0  0
 14 16  1  0  0  0
 16 55  1  0  0  0
 55 56  1  0  0  0
 56 57  2  0  0  0
 57 58  1  0  0  0
 58 59  2  0  0  0
 59 60  1  0  0  0
 16 17  1  0  0  0
 17 18  1  0  0  0
 18 19  2  0  0  0
 18 20  1  0  0  0
 20 62  1  0  0  0
 62 63  1  0  0  0
 63 64  2  0  0  0
 64 65  1  0  0  0
 65 66  2  0  0  0
 66 67  1  0  0  0
 20 21  1  0  0  0
 21 22  1  0  0  0
 22 23  2  0  0  0
 22 24  1  0  0  0
 24 25  1  0  0  0
 25 26  1  0  0  0
 26 27  1  0  0  0
 27 28  1  0  0  0
 28 29  1  0  0  0
 29 30  2  0  0  0
 29 31  1  0  0  0
 31 32  1  0  0  0
 32 33  1  0  0  0
 33 34  1  0  0  0
 34 35  1  0  0  0
 35 36  1  0  0  0
 36 37  2  0  0  0
 36  1  1  0  0  0
 53 47  1  0  0  0
 13  9  1  0  0  0
 60 56  1  0  0  0
 67 63  1  0  0  0
 28 24  1  0  0  0
 35 31  1  0  0  0
  2 38  1  0  0  0
 51 54  1  0  0  0
  6 39  1  0  0  0
 60 61  1  0  0  0
 17 40  1  0  0  0
 67 68  1  0  0  0
 21 41  1  0  0  0
M  END
> <minimizedAffinity>
-4.42150

> <CNNscore>
0.2936012447

> <CNNaffinity>
7.2150774002

> <CNN_VS>
2.1183557510

> <CNNaffinity_variance>
0.7785427570

$$$$
[H]Oc1c([H])c([H])c(C([H])([H])[C@@]2([H])C(=O)N([H])[C@@]([H])([C@@]([H])(C([H])([H])[H])C([H])([H])C([H])([H])[H])C(=O)N3C([H])([H])C([H])([H])C([H])([H])[C@@]3([H])C(=O)N3C([H])([H])C([H])([H])C([H])([H])[C@@]3([H])C(=O)N([H])[C@@]([H])(C([H])([H])c3c([H])nc([H])n3[H])C(=O)N([H])[C@@]([H])(C([H])([H])c3c([H])nc([H])n3[H])C(=O)N3C([H])([H])C([H])([H])C([H])([H])[C@@]3([H])C(=O)N2[H])c([H])c1[H]


 68 74  0  0  0  0  0  0  0  0999 V2000
   47.3507   14.3321   -6.1444 C   0  0  0  0  0  0  0  0  0  0  0  0
   46.2671   14.6670   -7.0180 N   0  0  0  0  0  0  0  0  0  0  0  0
   46.1116   15.0207   -8.3260 C   0  0  0  0  0  0  0  0  0  0  0  0
   45.5644   16.2593   -8.4472 O   0  0  0  0  0  0  0  0  0  0  0  0
   46.3218   14.5380   -9.6690 C   0  0  0  0  0  0  0  0  0  0  0  0
   47.0024   15.6363  -10.4465 N   0  0  0  0  0  0  0  0  0  0  0  0
   46.8922   15.8781  -11.8084 C   0  0  0  0  0  0  0  0  0  0  0  0
   47.9584   16.3233  -12.3418 O   0  0  0  0  0  0  0  0  0  0  0  0
   45.8177   15.7308  -12.7529 C   0  0  0  0  0  0  0  0  0  0  0  0
   46.3304   15.8635  -14.1636 C   0  0  0  0  0  0  0  0  0  0  0  0
   45.9821   17.2406  -14.5469 C   0  0  0  0  0  0  0  0  0  0  0  0
   45.0966   17.7427  -13.4766 C   0  0  0  0  0  0  0  0  0  0  0  0
   44.6707   16.5562  -12.7030 N   0  0  0  0  0  0  0  0  0  0  0  0
   43.4239   16.4050  -12.1068 C   0  0  0  0  0  0  0  0  0  0  0  0
   42.8908   17.4834  -11.6375 O   0  0  0  0  0  0  0  0  0  0  0  0
   42.6003   15.2118  -11.9152 C   0  0  0  0  0  0  0  0  0  0  0  0
   41.2449   15.6645  -11.6010 N   0  0  0  0  0  0  0  0  0  0  0  0
   40.3905   15.2859  -10.5874 C   0  0  0  0  0  0  0  0  0  0  0  0
   39.3194   14.6595  -10.9660 O   0  0  0  0  0  0  0  0  0  0  0  0
   40.4780   15.4702   -9.1300 C   0  0  0  0  0  0  0  0  0  0  0  0
   41.8102   15.4770   -8.5849 N   0  0  0  0  0  0  0  0  0  0  0  0
   42.3115   14.7962   -7.4635 C   0  0  0  0  0  0  0  0  0  0  0  0
   42.6438   15.5202   -6.4536 O   0  0  0  0  0  0  0  0  0  0  0  0
   42.5157   13.3437   -7.2802 C   0  0  0  0  0  0  0  0  0  0  0  0
   41.3839   12.4932   -7.8102 C   0  0  0  0  0  0  0  0  0  0  0  0
   40.3727   12.3799   -6.7258 C   0  0  0  0  0  0  0  0  0  0  0  0
   41.0039   13.1351   -5.5760 C   0  0  0  0  0  0  0  0  0  0  0  0
   42.4576   13.0351   -5.8678 N   0  0  0  0  0  0  0  0  0  0  0  0
   43.5617   12.7298   -5.0321 C   0  0  0  0  0  0  0  0  0  0  0  0
   43.3811   12.9595   -3.8145 O   0  0  0  0  0  0  0  0  0  0  0  0
   44.7992   12.1918   -5.5823 C   0  0  0  0  0  0  0  0  0  0  0  0
   44.6777   10.6557   -5.3210 C   0  0  0  0  0  0  0  0  0  0  0  0
   44.9562   10.6587   -3.8228 C   0  0  0  0  0  0  0  0  0  0  0  0
   45.8276   11.8453   -3.5539 C   0  0  0  0  0  0  0  0  0  0  0  0
   46.0231   12.4697   -4.8780 N   0  0  0  0  0  0  0  0  0  0  0  0
   47.1749   13.1369   -5.3174 C   0  0  0  0  0  0  0  0  0  0  0  0
   48.3210   12.6316   -4.9404 O   0  0  0  0  0  0  0  0  0  0  0  0
   45.3349   14.6457   -6.4517 H   0  0  0  0  0  0  0  0  0  0  0  0
   47.5933   16.2076   -9.8105 H   0  0  0  0  0  0  0  0  0  0  0  0
   40.9182   16.4034  -12.3166 H   0  0  0  0  0  0  0  0  0  0  0  0
   42.4861   16.1097   -9.1225 H   0  0  0  0  0  0  0  0  0  0  0  0
   47.8161   15.5116   -5.2906 C   0  0  0  0  0  0  0  0  0  0  0  0
   48.3547   16.6321   -6.1393 C   0  0  0  0  0  0  0  0  0  0  0  0
   47.0654   17.4252   -3.8465 C   0  0  0  0  0  0  0  0  0  0  0  0
   46.7517   16.0547   -4.4149 C   0  0  0  0  0  0  0  0  0  0  0  0
   46.7704   13.2299  -10.0676 C   0  0  0  0  0  0  0  0  0  0  0  0
   47.3427   12.8981  -11.3481 C   0  0  0  0  0  0  0  0  0  0  0  0
   46.5866   12.5468  -12.4406 C   0  0  0  0  0  0  0  0  0  0  0  0
   47.0634   12.2229  -13.6645 C   0  0  0  0  0  0  0  0  0  0  0  0
   48.4343   12.2372  -13.8668 C   0  0  0  0  0  0  0  0  0  0  0  0
   49.0184   11.9200  -15.0867 O   0  0  0  0  0  0  0  0  0  0  0  0
   49.2493   12.5801  -12.8132 C   0  0  0  0  0  0  0  0  0  0  0  0
   48.7279   12.9013  -11.5918 C   0  0  0  0  0  0  0  0  0  0  0  0
   49.1588   12.7039  -15.7295 H   0  0  0  0  0  0  0  0  0  0  0  0
   42.4305   14.3047  -13.1020 C   0  0  0  0  0  0  0  0  0  0  0  0
   41.0742   14.3375  -13.6913 C   0  0  0  0  0  0  0  0  0  0  0  0
   40.4519   13.2892  -14.3134 C   0  0  0  0  0  0  0  0  0  0  0  0
   39.2454   13.6957  -14.7477 N   0  0  0  0  0  0  0  0  0  0  0  0
   39.1146   14.9748  -14.4032 C   0  0  0  0  0  0  0  0  0  0  0  0
   40.2177   15.3677  -13.7634 N   0  0  0  0  0  0  0  0  0  0  0  0
   40.4647   16.3125  -13.3470 H   0  0  0  0  0  0  0  0  0  0  0  0
   39.9406   16.8871   -8.8201 C   0  0  0  0  0  0  0  0  0  0  0  0
   38.8030   16.7301   -7.8970 C   0  0  0  0  0  0  0  0  0  0  0  0
   38.3696   15.5652   -7.3140 C   0  0  0  0  0  0  0  0  0  0  0  0
   37.3221   15.8720   -6.5265 N   0  0  0  0  0  0  0  0  0  0  0  0
   37.1245   17.1852   -6.6285 C   0  0  0  0  0  0  0  0  0  0  0  0
   38.0203   17.7305   -7.4624 N   0  0  0  0  0  0  0  0  0  0  0  0
   38.0822   18.7402   -7.7131 H   0  0  0  0  0  0  0  0  0  0  0  0
 44 45  1  0  0  0
 45 42  1  0  0  0
 42 43  1  0  0  0
 42  1  1  0  0  0
  1  2  1  0  0  0
  2  3  1  0  0  0
  3  4  2  0  0  0
  3  5  1  0  0  0
  5 46  1  0  0  0
 46 47  1  0  0  0
 47 48  2  0  0  0
 48 49  1  0  0  0
 49 50  2  0  0  0
 50 51  1  0  0  0
 50 52  1  0  0  0
 52 53  2  0  0  0
  5  6  1  0  0  0
  6  7  1  0  0  0
  7  8  2  0  0  0
  7  9  1  0  0  0
  9 10  1  0  0  0
 10 11  1  0  0  0
 11 12  1  0  0  0
 12 13  1  0  0  0
 13 14  1  0  0  0
 14 15  2  0  0  0
 14 16  1  0  0  0
 16 55  1  0  0  0
 55 56  1  0  0  0
 56 57  2  0  0  0
 57 58  1  0  0  0
 58 59  2  0  0  0
 59 60  1  0  0  0
 16 17  1  0  0  0
 17 18  1  0  0  0
 18 19  2  0  0  0
 18 20  1  0  0  0
 20 62  1  0  0  0
 62 63  1  0  0  0
 63 64  2  0  0  0
 64 65  1  0  0  0
 65 66  2  0  0  0
 66 67  1  0  0  0
 20 21  1  0  0  0
 21 22  1  0  0  0
 22 23  2  0  0  0
 22 24  1  0  0  0
 24 25  1  0  0  0
 25 26  1  0  0  0
 26 27  1  0  0  0
 27 28  1  0  0  0
 28 29  1  0  0  0
 29 30  2  0  0  0
 29 31  1  0  0  0
 31 32  1  0  0  0
 32 33  1  0  0  0
 33 34  1  0  0  0
 34 35  1  0  0  0
 35 36  1  0  0  0
 36 37  2  0  0  0
 36  1  1  0  0  0
 53 47  1  0  0  0
 13  9  1  0  0  0
 60 56  1  0  0  0
 67 63  1  0  0  0
 28 24  1  0  0  0
 35 31  1  0  0  0
  2 38  1  0  0  0
 51 54  1  0  0  0
  6 39  1  0  0  0
 60 61  1  0  0  0
 17 40  1  0  0  0
 67 68  1  0  0  0
 21 41  1  0  0  0
M  END
> <minimizedAffinity>
-5.03237

> <CNNscore>
0.2716527879

> <CNNaffinity>
7.3856801987

> <CNN_VS>
2.0063405037

> <CNNaffinity_variance>
1.6606779099

$$$$
[H]Oc1c([H])c([H])c(C([H])([H])[C@@]2([H])C(=O)N([H])[C@@]([H])([C@@]([H])(C([H])([H])[H])C([H])([H])C([H])([H])[H])C(=O)N3C([H])([H])C([H])([H])C([H])([H])[C@@]3([H])C(=O)N3C([H])([H])C([H])([H])C([H])([H])[C@@]3([H])C(=O)N([H])[C@@]([H])(C([H])([H])c3c([H])nc([H])n3[H])C(=O)N([H])[C@@]([H])(C([H])([H])c3c([H])nc([H])n3[H])C(=O)N3C([H])([H])C([H])([H])C([H])([H])[C@@]3([H])C(=O)N2[H])c([H])c1[H]


 68 74  0  0  0  0  0  0  0  0999 V2000
   39.1832   16.5318   -8.3302 C   0  0  0  0  0  0  0  0  0  0  0  0
   40.5843   16.2828   -8.4858 N   0  0  0  0  0  0  0  0  0  0  0  0
   41.6129   15.8418   -7.7062 C   0  0  0  0  0  0  0  0  0  0  0  0
   42.5880   16.7816   -7.5866 O   0  0  0  0  0  0  0  0  0  0  0  0
   42.0545   14.7009   -6.9419 C   0  0  0  0  0  0  0  0  0  0  0  0
   42.5143   15.2041   -5.5968 N   0  0  0  0  0  0  0  0  0  0  0  0
   43.4959   14.6419   -4.7931 C   0  0  0  0  0  0  0  0  0  0  0  0
   43.2687   14.7536   -3.5459 O   0  0  0  0  0  0  0  0  0  0  0  0
   44.7269   13.9537   -5.0745 C   0  0  0  0  0  0  0  0  0  0  0  0
   45.2633   13.2969   -3.8289 C   0  0  0  0  0  0  0  0  0  0  0  0
   46.3155   14.2129   -3.3616 C   0  0  0  0  0  0  0  0  0  0  0  0
   46.5062   15.1930   -4.4500 C   0  0  0  0  0  0  0  0  0  0  0  0
   45.8364   14.6238   -5.6396 N   0  0  0  0  0  0  0  0  0  0  0  0
   46.2757   14.7843   -6.9488 C   0  0  0  0  0  0  0  0  0  0  0  0
   46.8248   15.9207   -7.2221 O   0  0  0  0  0  0  0  0  0  0  0  0
   46.2191   13.8707   -8.0893 C   0  0  0  0  0  0  0  0  0  0  0  0
   47.1567   14.3711   -9.0948 N   0  0  0  0  0  0  0  0  0  0  0  0
   46.9839   14.5901  -10.4450 C   0  0  0  0  0  0  0  0  0  0  0  0
   47.6747   13.8198  -11.2276 O   0  0  0  0  0  0  0  0  0  0  0  0
   46.1434   15.5582  -11.1675 C   0  0  0  0  0  0  0  0  0  0  0  0
   44.9110   15.9168  -10.5159 N   0  0  0  0  0  0  0  0  0  0  0  0
   43.6157   15.9954  -11.0529 C   0  0  0  0  0  0  0  0  0  0  0  0
   43.1012   17.1709  -11.1412 O   0  0  0  0  0  0  0  0  0  0  0  0
   42.7482   14.9000  -11.5352 C   0  0  0  0  0  0  0  0  0  0  0  0
   43.4742   13.8573  -12.3541 C   0  0  0  0  0  0  0  0  0  0  0  0
   43.4805   14.3300  -13.7639 C   0  0  0  0  0  0  0  0  0  0  0  0
   42.6918   15.6204  -13.7057 C   0  0  0  0  0  0  0  0  0  0  0  0
   41.8239   15.4288  -12.5148 N   0  0  0  0  0  0  0  0  0  0  0  0
   40.4435   15.6820  -12.3114 C   0  0  0  0  0  0  0  0  0  0  0  0
   39.9477   16.5442  -13.0720 O   0  0  0  0  0  0  0  0  0  0  0  0
   39.6895   14.9749  -11.2842 C   0  0  0  0  0  0  0  0  0  0  0  0
   38.9637   13.8416  -12.0789 C   0  0  0  0  0  0  0  0  0  0  0  0
   37.8907   14.6891  -12.7518 C   0  0  0  0  0  0  0  0  0  0  0  0
   37.6405   15.8555  -11.8483 C   0  0  0  0  0  0  0  0  0  0  0  0
   38.5532   15.6431  -10.7067 N   0  0  0  0  0  0  0  0  0  0  0  0
   38.3066   15.9945   -9.3723 C   0  0  0  0  0  0  0  0  0  0  0  0
   37.0826   15.8278   -8.9421 O   0  0  0  0  0  0  0  0  0  0  0  0
   40.8810   16.5461   -9.5021 H   0  0  0  0  0  0  0  0  0  0  0  0
   41.9777   16.0543   -5.3336 H   0  0  0  0  0  0  0  0  0  0  0  0
   48.1178   14.5733   -8.6473 H   0  0  0  0  0  0  0  0  0  0  0  0
   45.0340   16.1672   -9.4823 H   0  0  0  0  0  0  0  0  0  0  0  0
   38.8637   18.0033   -8.0662 C   0  0  0  0  0  0  0  0  0  0  0  0
   38.0469   18.6019   -9.1799 C   0  0  0  0  0  0  0  0  0  0  0  0
   36.7806   18.8572   -6.9515 C   0  0  0  0  0  0  0  0  0  0  0  0
   38.1495   18.2256   -6.7874 C   0  0  0  0  0  0  0  0  0  0  0  0
   41.4238   13.4102   -6.8542 C   0  0  0  0  0  0  0  0  0  0  0  0
   42.0022   12.2383   -6.2465 C   0  0  0  0  0  0  0  0  0  0  0  0
   41.5270   11.6835   -5.0824 C   0  0  0  0  0  0  0  0  0  0  0  0
   42.0268   10.5895   -4.4630 C   0  0  0  0  0  0  0  0  0  0  0  0
   43.1168    9.9476   -5.0288 C   0  0  0  0  0  0  0  0  0  0  0  0
   43.6999    8.8184   -4.4678 O   0  0  0  0  0  0  0  0  0  0  0  0
   43.6423   10.4522   -6.1956 C   0  0  0  0  0  0  0  0  0  0  0  0
   43.1077   11.5600   -6.7904 C   0  0  0  0  0  0  0  0  0  0  0  0
   43.3173    7.9207   -4.7763 H   0  0  0  0  0  0  0  0  0  0  0  0
   46.6481   12.4507   -7.8454 C   0  0  0  0  0  0  0  0  0  0  0  0
   46.4818   11.5652   -9.0187 C   0  0  0  0  0  0  0  0  0  0  0  0
   45.3787   11.5155   -9.8273 C   0  0  0  0  0  0  0  0  0  0  0  0
   45.5725   10.5753  -10.7695 N   0  0  0  0  0  0  0  0  0  0  0  0
   46.7752   10.0466  -10.5550 C   0  0  0  0  0  0  0  0  0  0  0  0
   47.3296   10.6423   -9.4975 N   0  0  0  0  0  0  0  0  0  0  0  0
   48.2745   10.4807   -9.0413 H   0  0  0  0  0  0  0  0  0  0  0  0
   46.9336   16.8864  -11.2287 C   0  0  0  0  0  0  0  0  0  0  0  0
   46.2669   17.7455  -12.2227 C   0  0  0  0  0  0  0  0  0  0  0  0
   46.1209   17.4932  -13.5643 C   0  0  0  0  0  0  0  0  0  0  0  0
   45.4326   18.5198  -14.0967 N   0  0  0  0  0  0  0  0  0  0  0  0
   45.1684   19.3715  -13.1075 C   0  0  0  0  0  0  0  0  0  0  0  0
   45.6699   18.9169  -11.9512 N   0  0  0  0  0  0  0  0  0  0  0  0
   45.5996   19.3950  -11.0278 H   0  0  0  0  0  0  0  0  0  0  0  0
 44 45  1  0  0  0
 45 42  1  0  0  0
 42 43  1  0  0  0
 42  1  1  0  0  0
  1  2  1  0  0  0
  2  3  1  0  0  0
  3  4  2  0  0  0
  3  5  1  0  0  0
  5 46  1  0  0  0
 46 47  1  0  0  0
 47 48  2  0  0  0
 48 49  1  0  0  0
 49 50  2  0  0  0
 50 51  1  0  0  0
 50 52  1  0  0  0
 52 53  2  0  0  0
  5  6  1  0  0  0
  6  7  1  0  0  0
  7  8  2  0  0  0
  7  9  1  0  0  0
  9 10  1  0  0  0
 10 11  1  0  0  0
 11 12  1  0  0  0
 12 13  1  0  0  0
 13 14  1  0  0  0
 14 15  2  0  0  0
 14 16  1  0  0  0
 16 55  1  0  0  0
 55 56  1  0  0  0
 56 57  2  0  0  0
 57 58  1  0  0  0
 58 59  2  0  0  0
 59 60  1  0  0  0
 16 17  1  0  0  0
 17 18  1  0  0  0
 18 19  2  0  0  0
 18 20  1  0  0  0
 20 62  1  0  0  0
 62 63  1  0  0  0
 63 64  2  0  0  0
 64 65  1  0  0  0
 65 66  2  0  0  0
 66 67  1  0  0  0
 20 21  1  0  0  0
 21 22  1  0  0  0
 22 23  2  0  0  0
 22 24  1  0  0  0
 24 25  1  0  0  0
 25 26  1  0  0  0
 26 27  1  0  0  0
 27 28  1  0  0  0
 28 29  1  0  0  0
 29 30  2  0  0  0
 29 31  1  0  0  0
 31 32  1  0  0  0
 32 33  1  0  0  0
 33 34  1  0  0  0
 34 35  1  0  0  0
 35 36  1  0  0  0
 36 37  2  0  0  0
 36  1  1  0  0  0
 53 47  1  0  0  0
 13  9  1  0  0  0
 60 56  1  0  0  0
 67 63  1  0  0  0
 28 24  1  0  0  0
 35 31  1  0  0  0
  2 38  1  0  0  0
 51 54  1  0  0  0
  6 39  1  0  0  0
 60 61  1  0  0  0
 17 40  1  0  0  0
 67 68  1  0  0  0
 21 41  1  0  0  0
M  END
> <minimizedAffinity>
-4.65770

> <CNNscore>
0.2557905316

> <CNNaffinity>
6.9759483337

> <CNN_VS>
1.7843815088

> <CNNaffinity_variance>
0.4645074010

$$$$
[H]Oc1c([H])c([H])c(C([H])([H])[C@@]2([H])C(=O)N([H])[C@@]([H])([C@@]([H])(C([H])([H])[H])C([H])([H])C([H])([H])[H])C(=O)N3C([H])([H])C([H])([H])C([H])([H])[C@@]3([H])C(=O)N3C([H])([H])C([H])([H])C([H])([H])[C@@]3([H])C(=O)N([H])[C@@]([H])(C([H])([H])c3c([H])nc([H])n3[H])C(=O)N([H])[C@@]([H])(C([H])([H])c3c([H])nc([H])n3[H])C(=O)N3C([H])([H])C([H])([H])C([H])([H])[C@@]3([H])C(=O)N2[H])c([H])c1[H]


 68 74  0  0  0  0  0  0  0  0999 V2000
   44.5314   13.2800  -10.2758 C   0  0  0  0  0  0  0  0  0  0  0  0
   43.1893   13.7701  -10.1870 N   0  0  0  0  0  0  0  0  0  0  0  0
   42.4519   14.5090   -9.3091 C   0  0  0  0  0  0  0  0  0  0  0  0
   41.3963   13.8024   -8.8246 O   0  0  0  0  0  0  0  0  0  0  0  0
   42.3842   15.8114   -8.6928 C   0  0  0  0  0  0  0  0  0  0  0  0
   42.1761   15.6051   -7.2136 N   0  0  0  0  0  0  0  0  0  0  0  0
   41.5084   16.4559   -6.3442 C   0  0  0  0  0  0  0  0  0  0  0  0
   41.9984   16.4828   -5.1700 O   0  0  0  0  0  0  0  0  0  0  0  0
   40.3693   17.3213   -6.4911 C   0  0  0  0  0  0  0  0  0  0  0  0
   40.2463   18.2415   -5.3042 C   0  0  0  0  0  0  0  0  0  0  0  0
   39.2011   17.6229   -4.4739 C   0  0  0  0  0  0  0  0  0  0  0  0
   38.6117   16.5521   -5.3033 C   0  0  0  0  0  0  0  0  0  0  0  0
   39.0680   16.8042   -6.6875 N   0  0  0  0  0  0  0  0  0  0  0  0
   38.3172   16.5452   -7.8286 C   0  0  0  0  0  0  0  0  0  0  0  0
   37.5485   15.5092   -7.7725 O   0  0  0  0  0  0  0  0  0  0  0  0
   38.2502   17.2572   -9.1042 C   0  0  0  0  0  0  0  0  0  0  0  0
   37.0383   16.8082   -9.7901 N   0  0  0  0  0  0  0  0  0  0  0  0
   36.8565   16.3683  -11.0840 C   0  0  0  0  0  0  0  0  0  0  0  0
   36.1325   17.1370  -11.8376 O   0  0  0  0  0  0  0  0  0  0  0  0
   37.3440   15.1625  -11.7725 C   0  0  0  0  0  0  0  0  0  0  0  0
   38.6220   14.6699  -11.3299 N   0  0  0  0  0  0  0  0  0  0  0  0
   39.7285   14.2662  -12.0947 C   0  0  0  0  0  0  0  0  0  0  0  0
   40.0176   13.0131  -12.0691 O   0  0  0  0  0  0  0  0  0  0  0  0
   40.6212   15.0923  -12.9348 C   0  0  0  0  0  0  0  0  0  0  0  0
   39.8977   16.1271  -13.7659 C   0  0  0  0  0  0  0  0  0  0  0  0
   39.4904   15.4669  -15.0346 C   0  0  0  0  0  0  0  0  0  0  0  0
   40.0587   14.0704  -14.9026 C   0  0  0  0  0  0  0  0  0  0  0  0
   41.1983   14.2598  -13.9679 N   0  0  0  0  0  0  0  0  0  0  0  0
   42.5309   13.7765  -14.0057 C   0  0  0  0  0  0  0  0  0  0  0  0
   42.6952   12.7345  -14.6804 O   0  0  0  0  0  0  0  0  0  0  0  0
   43.6040   14.4646  -13.2996 C   0  0  0  0  0  0  0  0  0  0  0  0
   44.2941   15.3102  -14.4183 C   0  0  0  0  0  0  0  0  0  0  0  0
   45.0350   14.1836  -15.1283 C   0  0  0  0  0  0  0  0  0  0  0  0
   45.3020   13.1329  -14.0966 C   0  0  0  0  0  0  0  0  0  0  0  0
   44.7241   13.6795  -12.8522 N   0  0  0  0  0  0  0  0  0  0  0  0
   45.2153   13.4824  -11.5543 C   0  0  0  0  0  0  0  0  0  0  0  0
   46.5163   13.4695  -11.4190 O   0  0  0  0  0  0  0  0  0  0  0  0
   42.6274   13.4259  -11.0564 H   0  0  0  0  0  0  0  0  0  0  0  0
   42.6190   14.7141   -6.9138 H   0  0  0  0  0  0  0  0  0  0  0  0
   36.1878   16.8620   -9.1278 H   0  0  0  0  0  0  0  0  0  0  0  0
   38.7045   14.5991  -10.2648 H   0  0  0  0  0  0  0  0  0  0  0  0
   44.6687   11.8281   -9.8177 C   0  0  0  0  0  0  0  0  0  0  0  0
   45.3349   10.9767  -10.8651 C   0  0  0  0  0  0  0  0  0  0  0  0
   45.8591   13.0039   -7.9439 C   0  0  0  0  0  0  0  0  0  0  0  0
   45.4187   11.6846   -8.5482 C   0  0  0  0  0  0  0  0  0  0  0  0
   43.2124   16.9548   -8.9722 C   0  0  0  0  0  0  0  0  0  0  0  0
   44.5194   16.9106   -9.5780 C   0  0  0  0  0  0  0  0  0  0  0  0
   44.7381   17.1598  -10.9117 C   0  0  0  0  0  0  0  0  0  0  0  0
   45.9368   17.1310  -11.5382 C   0  0  0  0  0  0  0  0  0  0  0  0
   47.0658   16.8257  -10.7949 C   0  0  0  0  0  0  0  0  0  0  0  0
   48.3391   16.7717  -11.3478 O   0  0  0  0  0  0  0  0  0  0  0  0
   46.9169   16.5651   -9.4525 C   0  0  0  0  0  0  0  0  0  0  0  0
   45.6877   16.6047   -8.8571 C   0  0  0  0  0  0  0  0  0  0  0  0
   48.8655   17.6493  -11.3381 H   0  0  0  0  0  0  0  0  0  0  0  0
   38.1176   18.7534   -9.0421 C   0  0  0  0  0  0  0  0  0  0  0  0
   37.1028   19.2247   -8.0745 C   0  0  0  0  0  0  0  0  0  0  0  0
   37.3568   19.9734   -6.9573 C   0  0  0  0  0  0  0  0  0  0  0  0
   36.1999   20.1868   -6.3050 N   0  0  0  0  0  0  0  0  0  0  0  0
   35.2393   19.5833   -7.0013 C   0  0  0  0  0  0  0  0  0  0  0  0
   35.7801   19.0003   -8.0730 N   0  0  0  0  0  0  0  0  0  0  0  0
   35.3217   18.4357   -8.8463 H   0  0  0  0  0  0  0  0  0  0  0  0
   36.3629   14.0173  -11.4284 C   0  0  0  0  0  0  0  0  0  0  0  0
   35.6338   13.6813  -12.6639 C   0  0  0  0  0  0  0  0  0  0  0  0
   35.6020   12.4634  -13.2966 C   0  0  0  0  0  0  0  0  0  0  0  0
   34.8011   12.5863  -14.3712 N   0  0  0  0  0  0  0  0  0  0  0  0
   34.3594   13.8426  -14.3911 C   0  0  0  0  0  0  0  0  0  0  0  0
   34.8567   14.5307  -13.3545 N   0  0  0  0  0  0  0  0  0  0  0  0
   34.6651   15.5327  -13.1415 H   0  0  0  0  0  0  0  0  0  0  0  0
 44 45  1  0  0  0
 45 42  1  0  0  0
 42 43  1  0  0  0
 42  1  1  0  0  0
  1  2  1  0  0  0
  2  3  1  0  0  0
  3  4  2  0  0  0
  3  5  1  0  0  0
  5 46  1  0  0  0
 46 47  1  0  0  0
 47 48  2  0  0  0
 48 49  1  0  0  0
 49 50  2  0  0  0
 50 51  1  0  0  0
 50 52  1  0  0  0
 52 53  2  0  0  0
  5  6  1  0  0  0
  6  7  1  0  0  0
  7  8  2  0  0  0
  7  9  1  0  0  0
  9 10  1  0  0  0
 10 11  1  0  0  0
 11 12  1  0  0  0
 12 13  1  0  0  0
 13 14  1  0  0  0
 14 15  2  0  0  0
 14 16  1  0  0  0
 16 55  1  0  0  0
 55 56  1  0  0  0
 56 57  2  0  0  0
 57 58  1  0  0  0
 58 59  2  0  0  0
 59 60  1  0  0  0
 16 17  1  0  0  0
 17 18  1  0  0  0
 18 19  2  0  0  0
 18 20  1  0  0  0
 20 62  1  0  0  0
 62 63  1  0  0  0
 63 64  2  0  0  0
 64 65  1  0  0  0
 65 66  2  0  0  0
 66 67  1  0  0  0
 20 21  1  0  0  0
 21 22  1  0  0  0
 22 23  2  0  0  0
 22 24  1  0  0  0
 24 25  1  0  0  0
 25 26  1  0  0  0
 26 27  1  0  0  0
 27 28  1  0  0  0
 28 29  1  0  0  0
 29 30  2  0  0  0
 29 31  1  0  0  0
 31 32  1  0  0  0
 32 33  1  0  0  0
 33 34  1  0  0  0
 34 35  1  0  0  0
 35 36  1  0  0  0
 36 37  2  0  0  0
 36  1  1  0  0  0
 53 47  1  0  0  0
 13  9  1  0  0  0
 60 56  1  0  0  0
 67 63  1  0  0  0
 28 24  1  0  0  0
 35 31  1  0  0  0
  2 38  1  0  0  0
 51 54  1  0  0  0
  6 39  1  0  0  0
 60 61  1  0  0  0
 17 40  1  0  0  0
 67 68  1  0  0  0
 21 41  1  0  0  0
M  END
> <minimizedAffinity>
0.52031

> <CNNscore>
0.2519616783

> <CNNaffinity>
7.2051062584

> <CNN_VS>
1.8154106140

> <CNNaffinity_variance>
0.3572136760

$$$$
[H]Oc1c([H])c([H])c(C([H])([H])[C@@]2([H])C(=O)N([H])[C@@]([H])([C@@]([H])(C([H])([H])[H])C([H])([H])C([H])([H])[H])C(=O)N3C([H])([H])C([H])([H])C([H])([H])[C@@]3([H])C(=O)N3C([H])([H])C([H])([H])C([H])([H])[C@@]3([H])C(=O)N([H])[C@@]([H])(C([H])([H])c3c([H])nc([H])n3[H])C(=O)N([H])[C@@]([H])(C([H])([H])c3c([H])nc([H])n3[H])C(=O)N3C([H])([H])C([H])([H])C([H])([H])[C@@]3([H])C(=O)N2[H])c([H])c1[H]


 68 74  0  0  0  0  0  0  0  0999 V2000
   40.6761   15.4502  -11.7290 C   0  0  0  0  0  0  0  0  0  0  0  0
   41.6105   14.7198  -10.9274 N   0  0  0  0  0  0  0  0  0  0  0  0
   42.9513   14.4695  -10.9349 C   0  0  0  0  0  0  0  0  0  0  0  0
   43.2110   13.1408  -11.0593 O   0  0  0  0  0  0  0  0  0  0  0  0
   44.2329   15.1263  -10.8526 C   0  0  0  0  0  0  0  0  0  0  0  0
   45.0948   14.5844  -11.9651 N   0  0  0  0  0  0  0  0  0  0  0  0
   46.4767   14.4587  -11.9563 C   0  0  0  0  0  0  0  0  0  0  0  0
   47.0195   14.6464  -13.0919 O   0  0  0  0  0  0  0  0  0  0  0  0
   47.4335   14.1580  -10.9257 C   0  0  0  0  0  0  0  0  0  0  0  0
   48.8346   14.4356  -11.4061 C   0  0  0  0  0  0  0  0  0  0  0  0
   49.3627   13.1103  -11.7656 C   0  0  0  0  0  0  0  0  0  0  0  0
   48.3745   12.1348  -11.2621 C   0  0  0  0  0  0  0  0  0  0  0  0
   47.5001   12.8779  -10.3288 N   0  0  0  0  0  0  0  0  0  0  0  0
   46.9293   12.3408   -9.1805 C   0  0  0  0  0  0  0  0  0  0  0  0
   46.5855   11.0982   -9.2521 O   0  0  0  0  0  0  0  0  0  0  0  0
   46.6451   12.9545   -7.8839 C   0  0  0  0  0  0  0  0  0  0  0  0
   46.4179   11.8692   -6.9292 N   0  0  0  0  0  0  0  0  0  0  0  0
   45.3978   11.6784   -6.0217 C   0  0  0  0  0  0  0  0  0  0  0  0
   45.7442   11.7376   -4.7729 O   0  0  0  0  0  0  0  0  0  0  0  0
   43.9638   11.4139   -6.2207 C   0  0  0  0  0  0  0  0  0  0  0  0
   43.3825   12.0025   -7.3987 N   0  0  0  0  0  0  0  0  0  0  0  0
   42.1847   12.7239   -7.5290 C   0  0  0  0  0  0  0  0  0  0  0  0
   41.2421   12.1560   -8.1950 O   0  0  0  0  0  0  0  0  0  0  0  0
   41.8522   14.0645   -7.0024 C   0  0  0  0  0  0  0  0  0  0  0  0
   42.3288   14.3038   -5.5879 C   0  0  0  0  0  0  0  0  0  0  0  0
   41.2693   13.7992   -4.6747 C   0  0  0  0  0  0  0  0  0  0  0  0
   40.1817   13.3359   -5.6198 C   0  0  0  0  0  0  0  0  0  0  0  0
   40.4186   14.1610   -6.8328 N   0  0  0  0  0  0  0  0  0  0  0  0
   39.5240   14.8796   -7.6660 C   0  0  0  0  0  0  0  0  0  0  0  0
   38.3412   14.4692   -7.6479 O   0  0  0  0  0  0  0  0  0  0  0  0
   39.9810   16.0052   -8.4709 C   0  0  0  0  0  0  0  0  0  0  0  0
   39.5724   17.2517   -7.6210 C   0  0  0  0  0  0  0  0  0  0  0  0
   38.0742   17.2333   -7.8992 C   0  0  0  0  0  0  0  0  0  0  0  0
   37.8984   16.6021   -9.2446 C   0  0  0  0  0  0  0  0  0  0  0  0
   39.2715   16.2899   -9.6901 N   0  0  0  0  0  0  0  0  0  0  0  0
   39.7403   16.3173  -11.0109 C   0  0  0  0  0  0  0  0  0  0  0  0
   39.2809   17.2762  -11.7728 O   0  0  0  0  0  0  0  0  0  0  0  0
   41.0731   14.2264  -10.1163 H   0  0  0  0  0  0  0  0  0  0  0  0
   44.5012   14.3128  -12.7737 H   0  0  0  0  0  0  0  0  0  0  0  0
   47.2128   11.1415   -6.9887 H   0  0  0  0  0  0  0  0  0  0  0  0
   43.9598   11.8378   -8.2851 H   0  0  0  0  0  0  0  0  0  0  0  0
   39.9300   14.5680  -12.7299 C   0  0  0  0  0  0  0  0  0  0  0  0
   38.4572   14.8780  -12.7525 C   0  0  0  0  0  0  0  0  0  0  0  0
   40.2016   13.4505  -14.9634 C   0  0  0  0  0  0  0  0  0  0  0  0
   40.4550   14.6787  -14.1108 C   0  0  0  0  0  0  0  0  0  0  0  0
   44.4862   16.5198  -10.5967 C   0  0  0  0  0  0  0  0  0  0  0  0
   44.5499   17.5542  -11.5983 C   0  0  0  0  0  0  0  0  0  0  0  0
   45.5797   18.4607  -11.6777 C   0  0  0  0  0  0  0  0  0  0  0  0
   45.6947   19.4531  -12.5899 C   0  0  0  0  0  0  0  0  0  0  0  0
   44.6999   19.5946  -13.5442 C   0  0  0  0  0  0  0  0  0  0  0  0
   44.7290   20.5818  -14.5211 O   0  0  0  0  0  0  0  0  0  0  0  0
   43.6392   18.7191  -13.5209 C   0  0  0  0  0  0  0  0  0  0  0  0
   43.5604   17.7293  -12.5824 C   0  0  0  0  0  0  0  0  0  0  0  0
   45.1963   20.3283  -15.3956 H   0  0  0  0  0  0  0  0  0  0  0  0
   47.7405   13.7784   -7.2664 C   0  0  0  0  0  0  0  0  0  0  0  0
   48.3000   13.1974   -6.0263 C   0  0  0  0  0  0  0  0  0  0  0  0
   48.1875   13.7377   -4.7740 C   0  0  0  0  0  0  0  0  0  0  0  0
   48.8437   12.9521   -3.9012 N   0  0  0  0  0  0  0  0  0  0  0  0
   49.3568   11.9382   -4.5944 C   0  0  0  0  0  0  0  0  0  0  0  0
   49.0303   12.0815   -5.8803 N   0  0  0  0  0  0  0  0  0  0  0  0
   49.2627   11.4685   -6.7153 H   0  0  0  0  0  0  0  0  0  0  0  0
   43.8122    9.8918   -6.4502 C   0  0  0  0  0  0  0  0  0  0  0  0
   43.3209    9.3073   -5.1901 C   0  0  0  0  0  0  0  0  0  0  0  0
   43.9127    8.3065   -4.4601 C   0  0  0  0  0  0  0  0  0  0  0  0
   43.1499    8.0940   -3.3719 N   0  0  0  0  0  0  0  0  0  0  0  0
   42.1240    8.9407   -3.4390 C   0  0  0  0  0  0  0  0  0  0  0  0
   42.2091    9.6933   -4.5442 N   0  0  0  0  0  0  0  0  0  0  0  0
   41.5323   10.4323   -4.8305 H   0  0  0  0  0  0  0  0  0  0  0  0
 44 45  1  0  0  0
 45 42  1  0  0  0
 42 43  1  0  0  0
 42  1  1  0  0  0
  1  2  1  0  0  0
  2  3  1  0  0  0
  3  4  2  0  0  0
  3  5  1  0  0  0
  5 46  1  0  0  0
 46 47  1  0  0  0
 47 48  2  0  0  0
 48 49  1  0  0  0
 49 50  2  0  0  0
 50 51  1  0  0  0
 50 52  1  0  0  0
 52 53  2  0  0  0
  5  6  1  0  0  0
  6  7  1  0  0  0
  7  8  2  0  0  0
  7  9  1  0  0  0
  9 10  1  0  0  0
 10 11  1  0  0  0
 11 12  1  0  0  0
 12 13  1  0  0  0
 13 14  1  0  0  0
 14 15  2  0  0  0
 14 16  1  0  0  0
 16 55  1  0  0  0
 55 56  1  0  0  0
 56 57  2  0  0  0
 57 58  1  0  0  0
 58 59  2  0  0  0
 59 60  1  0  0  0
 16 17  1  0  0  0
 17 18  1  0  0  0
 18 19  2  0  0  0
 18 20  1  0  0  0
 20 62  1  0  0  0
 62 63  1  0  0  0
 63 64  2  0  0  0
 64 65  1  0  0  0
 65 66  2  0  0  0
 66 67  1  0  0  0
 20 21  1  0  0  0
 21 22  1  0  0  0
 22 23  2  0  0  0
 22 24  1  0  0  0
 24 25  1  0  0  0
 25 26  1  0  0  0
 26 27  1  0  0  0
 27 28  1  0  0  0
 28 29  1  0  0  0
 29 30  2  0  0  0
 29 31  1  0  0  0
 31 32  1  0  0  0
 32 33  1  0  0  0
 33 34  1  0  0  0
 34 35  1  0  0  0
 35 36  1  0  0  0
 36 37  2  0  0  0
 36  1  1  0  0  0
 53 47  1  0  0  0
 13  9  1  0  0  0
 60 56  1  0  0  0
 67 63  1  0  0  0
 28 24  1  0  0  0
 35 31  1  0  0  0
  2 38  1  0  0  0
 51 54  1  0  0  0
  6 39  1  0  0  0
 60 61  1  0  0  0
 17 40  1  0  0  0
 67 68  1  0  0  0
 21 41  1  0  0  0
M  END
> <minimizedAffinity>
-4.51365

> <CNNscore>
0.2515300214

> <CNNaffinity>
7.0717840195

> <CNN_VS>
1.7787660360

> <CNNaffinity_variance>
0.4465088844

$$$$
[H]Oc1c([H])c([H])c(C([H])([H])[C@@]2([H])C(=O)N([H])[C@@]([H])([C@@]([H])(C([H])([H])[H])C([H])([H])C([H])([H])[H])C(=O)N3C([H])([H])C([H])([H])C([H])([H])[C@@]3([H])C(=O)N3C([H])([H])C([H])([H])C([H])([H])[C@@]3([H])C(=O)N([H])[C@@]([H])(C([H])([H])c3c([H])nc([H])n3[H])C(=O)N([H])[C@@]([H])(C([H])([H])c3c([H])nc([H])n3[H])C(=O)N3C([H])([H])C([H])([H])C([H])([H])[C@@]3([H])C(=O)N2[H])c([H])c1[H]


 68 74  0  0  0  0  0  0  0  0999 V2000
   44.8369   16.3506  -12.9212 C   0  0  0  0  0  0  0  0  0  0  0  0
   44.3713   16.0068  -11.6118 N   0  0  0  0  0  0  0  0  0  0  0  0
   43.1957   16.0649  -10.9227 C   0  0  0  0  0  0  0  0  0  0  0  0
   43.2979   16.8625   -9.8265 O   0  0  0  0  0  0  0  0  0  0  0  0
   41.8419   15.5671  -10.9362 C   0  0  0  0  0  0  0  0  0  0  0  0
   40.9223   16.7422  -10.7183 N   0  0  0  0  0  0  0  0  0  0  0  0
   39.6775   16.7176  -10.1056 C   0  0  0  0  0  0  0  0  0  0  0  0
   38.8431   17.5426  -10.5983 O   0  0  0  0  0  0  0  0  0  0  0  0
   39.1263   15.9500   -9.0216 C   0  0  0  0  0  0  0  0  0  0  0  0
   37.6306   16.1220   -8.9573 C   0  0  0  0  0  0  0  0  0  0  0  0
   37.4252   17.0998   -7.8774 C   0  0  0  0  0  0  0  0  0  0  0  0
   38.7397   17.2553   -7.2220 C   0  0  0  0  0  0  0  0  0  0  0  0
   39.5705   16.1248   -7.6906 N   0  0  0  0  0  0  0  0  0  0  0  0
   40.5322   15.4771   -6.9235 C   0  0  0  0  0  0  0  0  0  0  0  0
   41.1831   16.2211   -6.0927 O   0  0  0  0  0  0  0  0  0  0  0  0
   40.9407   14.0732   -6.8983 C   0  0  0  0  0  0  0  0  0  0  0  0
   41.6902   13.8602   -5.6599 N   0  0  0  0  0  0  0  0  0  0  0  0
   42.9125   13.2583   -5.4493 C   0  0  0  0  0  0  0  0  0  0  0  0
   42.8800   12.1520   -4.7726 O   0  0  0  0  0  0  0  0  0  0  0  0
   44.2689   13.6547   -5.8606 C   0  0  0  0  0  0  0  0  0  0  0  0
   44.3545   14.3702   -7.1066 N   0  0  0  0  0  0  0  0  0  0  0  0
   45.2313   14.1685   -8.1850 C   0  0  0  0  0  0  0  0  0  0  0  0
   46.1027   15.0907   -8.3965 O   0  0  0  0  0  0  0  0  0  0  0  0
   45.2918   13.0296   -9.1253 C   0  0  0  0  0  0  0  0  0  0  0  0
   45.1284   11.6795   -8.4654 C   0  0  0  0  0  0  0  0  0  0  0  0
   46.4769   11.2425   -8.0162 C   0  0  0  0  0  0  0  0  0  0  0  0
   47.3851   12.3533   -8.4978 C   0  0  0  0  0  0  0  0  0  0  0  0
   46.6365   12.9225   -9.6485 N   0  0  0  0  0  0  0  0  0  0  0  0
   47.0606   13.2969  -10.9488 C   0  0  0  0  0  0  0  0  0  0  0  0
   48.2781   13.5725  -11.0476 O   0  0  0  0  0  0  0  0  0  0  0  0
   46.1232   13.3479  -12.0633 C   0  0  0  0  0  0  0  0  0  0  0  0
   46.3598   11.9911  -12.8022 C   0  0  0  0  0  0  0  0  0  0  0  0
   47.6871   12.3269  -13.4713 C   0  0  0  0  0  0  0  0  0  0  0  0
   47.6985   13.8094  -13.6750 C   0  0  0  0  0  0  0  0  0  0  0  0
   46.4031   14.2682  -13.1337 N   0  0  0  0  0  0  0  0  0  0  0  0
   45.6372   15.3394  -13.6141 C   0  0  0  0  0  0  0  0  0  0  0  0
   45.6074   15.4990  -14.9121 O   0  0  0  0  0  0  0  0  0  0  0  0
   45.2072   15.6182  -11.0284 H   0  0  0  0  0  0  0  0  0  0  0  0
   41.3515   17.6054  -11.1060 H   0  0  0  0  0  0  0  0  0  0  0  0
   41.1427   14.2499   -4.8154 H   0  0  0  0  0  0  0  0  0  0  0  0
   43.6482   15.1708   -7.1864 H   0  0  0  0  0  0  0  0  0  0  0  0
   45.5323   17.7111  -12.9697 C   0  0  0  0  0  0  0  0  0  0  0  0
   46.9572   17.5893  -13.4394 C   0  0  0  0  0  0  0  0  0  0  0  0
   44.4925   19.9924  -13.1298 C   0  0  0  0  0  0  0  0  0  0  0  0
   44.8351   18.6930  -13.8326 C   0  0  0  0  0  0  0  0  0  0  0  0
   41.2777   14.5927  -11.8327 C   0  0  0  0  0  0  0  0  0  0  0  0
   40.0025   14.7072  -12.4945 C   0  0  0  0  0  0  0  0  0  0  0  0
   39.8737   14.9852  -13.8342 C   0  0  0  0  0  0  0  0  0  0  0  0
   38.7085   15.1077  -14.5106 C   0  0  0  0  0  0  0  0  0  0  0  0
   37.5196   14.9437  -13.8179 C   0  0  0  0  0  0  0  0  0  0  0  0
   36.2743   15.0503  -14.4243 O   0  0  0  0  0  0  0  0  0  0  0  0
   37.5776   14.6637  -12.4724 C   0  0  0  0  0  0  0  0  0  0  0  0
   38.7755   14.5476  -11.8258 C   0  0  0  0  0  0  0  0  0  0  0  0
   35.8904   14.1822  -14.8069 H   0  0  0  0  0  0  0  0  0  0  0  0
   39.8436   13.0461   -6.8579 C   0  0  0  0  0  0  0  0  0  0  0  0
   38.6052   13.5185   -6.2011 C   0  0  0  0  0  0  0  0  0  0  0  0
   37.3422   13.4166   -6.7184 C   0  0  0  0  0  0  0  0  0  0  0  0
   36.4737   13.9785   -5.8585 N   0  0  0  0  0  0  0  0  0  0  0  0
   37.1801   14.4234   -4.8216 C   0  0  0  0  0  0  0  0  0  0  0  0
   38.4698   14.1471   -5.0236 N   0  0  0  0  0  0  0  0  0  0  0  0
   39.3145   14.3504   -4.4136 H   0  0  0  0  0  0  0  0  0  0  0  0
   44.7813   14.6692   -4.8115 C   0  0  0  0  0  0  0  0  0  0  0  0
   46.1197   14.2211   -4.3887 C   0  0  0  0  0  0  0  0  0  0  0  0
   47.3273   14.7124   -4.8190 C   0  0  0  0  0  0  0  0  0  0  0  0
   48.2935   14.0414   -4.1650 N   0  0  0  0  0  0  0  0  0  0  0  0
   47.6905   13.1674   -3.3611 C   0  0  0  0  0  0  0  0  0  0  0  0
   46.3593   13.2607   -3.4818 N   0  0  0  0  0  0  0  0  0  0  0  0
   45.6598   12.6887   -2.9624 H   0  0  0  0  0  0  0  0  0  0  0  0
 44 45  1  0  0  0
 45 42  1  0  0  0
 42 43  1  0  0  0
 42  1  1  0  0  0
  1  2  1  0  0  0
  2  3  1  0  0  0
  3  4  2  0  0  0
  3  5  1  0  0  0
  5 46  1  0  0  0
 46 47  1  0  0  0
 47 48  2  0  0  0
 48 49  1  0  0  0
 49 50  2  0  0  0
 50 51  1  0  0  0
 50 52  1  0  0  0
 52 53  2  0  0  0
  5  6  1  0  0  0
  6  7  1  0  0  0
  7  8  2  0  0  0
  7  9  1  0  0  0
  9 10  1  0  0  0
 10 11  1  0  0  0
 11 12  1  0  0  0
 12 13  1  0  0  0
 13 14  1  0  0  0
 14 15  2  0  0  0
 14 16  1  0  0  0
 16 55  1  0  0  0
 55 56  1  0  0  0
 56 57  2  0  0  0
 57 58  1  0  0  0
 58 59  2  0  0  0
 59 60  1  0  0  0
 16 17  1  0  0  0
 17 18  1  0  0  0
 18 19  2  0  0  0
 18 20  1  0  0  0
 20 62  1  0  0  0
 62 63  1  0  0  0
 63 64  2  0  0  0
 64 65  1  0  0  0
 65 66  2  0  0  0
 66 67  1  0  0  0
 20 21  1  0  0  0
 21 22  1  0  0  0
 22 23  2  0  0  0
 22 24  1  0  0  0
 24 25  1  0  0  0
 25 26  1  0  0  0
 26 27  1  0  0  0
 27 28  1  0  0  0
 28 29  1  0  0  0
 29 30  2  0  0  0
 29 31  1  0  0  0
 31 32  1  0  0  0
 32 33  1  0  0  0
 33 34  1  0  0  0
 34 35  1  0  0  0
 35 36  1  0  0  0
 36 37  2  0  0  0
 36  1  1  0  0  0
 53 47  1  0  0  0
 13  9  1  0  0  0
 60 56  1  0  0  0
 67 63  1  0  0  0
 28 24  1  0  0  0
 35 31  1  0  0  0
  2 38  1  0  0  0
 51 54  1  0  0  0
  6 39  1  0  0  0
 60 61  1  0  0  0
 17 40  1  0  0  0
 67 68  1  0  0  0
 21 41  1  0  0  0
M  END
> <minimizedAffinity>
-5.91061

> <CNNscore>
0.2504163086

> <CNNaffinity>
7.2013359070

> <CNN_VS>
1.8033319712

> <CNNaffinity_variance>
0.5246974826

$$$$
[H]c1c(C#N)c([H])c2c(c1[H])c(C1=C(c3c([H])n(C([H])([H])[H])c4c([H])c([H])c(Cl)c([H])c34)C(=O)N([H])C1=O)c([H])n2C([H])([H])[H]


 31 35  0  0  0  0  0  0  0  0999 V2000
   41.4542   13.2443  -15.4081 C   0  0  0  0  0  0  0  0  0  0  0  0
   40.3925   12.5953  -15.8737 C   0  0  0  0  0  0  0  0  0  0  0  0
   40.8459   11.9317  -17.1274 C   0  0  0  0  0  0  0  0  0  0  0  0
   40.1427   11.2132  -17.8778 O   0  0  0  0  0  0  0  0  0  0  0  0
   42.2105   12.2255  -17.3682 N   0  0  0  0  0  0  0  0  0  0  0  0
   42.6048   13.0579  -16.2843 C   0  0  0  0  0  0  0  0  0  0  0  0
   43.7556   13.5344  -16.1416 O   0  0  0  0  0  0  0  0  0  0  0  0
   42.7902   11.9015  -18.1628 H   0  0  0  0  0  0  0  0  0  0  0  0
   40.1002   16.5441  -11.9304 C   0  0  0  0  0  0  0  0  0  0  0  0
   40.8450   15.5093  -12.6521 N   0  0  0  0  0  0  0  0  0  0  0  0
   40.5246   14.9927  -13.8365 C   0  0  0  0  0  0  0  0  0  0  0  0
   41.4636   14.0398  -14.1998 C   0  0  0  0  0  0  0  0  0  0  0  0
   42.3685   14.0119  -13.1627 C   0  0  0  0  0  0  0  0  0  0  0  0
   43.5215   13.2461  -12.9521 C   0  0  0  0  0  0  0  0  0  0  0  0
   44.2179   13.4538  -11.7802 C   0  0  0  0  0  0  0  0  0  0  0  0
   45.6714   12.4737  -11.5385 Cl  0  0  0  0  0  0  0  0  0  0  0  0
   43.8364   14.3645  -10.8242 C   0  0  0  0  0  0  0  0  0  0  0  0
   42.7040   15.1073  -11.0424 C   0  0  0  0  0  0  0  0  0  0  0  0
   41.9896   14.9276  -12.1918 C   0  0  0  0  0  0  0  0  0  0  0  0
   39.0616   12.4696  -15.3211 C   0  0  0  0  0  0  0  0  0  0  0  0
   38.6403   12.8212  -14.0527 C   0  0  0  0  0  0  0  0  0  0  0  0
   37.3355   12.5983  -13.9156 N   0  0  0  0  0  0  0  0  0  0  0  0
   36.5627   12.8606  -12.6917 C   0  0  0  0  0  0  0  0  0  0  0  0
   36.8670   12.1027  -15.0709 C   0  0  0  0  0  0  0  0  0  0  0  0
   35.5817   11.7408  -15.3855 C   0  0  0  0  0  0  0  0  0  0  0  0
   35.3190   11.2579  -16.6717 C   0  0  0  0  0  0  0  0  0  0  0  0
   36.3465   11.1617  -17.5740 C   0  0  0  0  0  0  0  0  0  0  0  0
   37.6212   11.5376  -17.2105 C   0  0  0  0  0  0  0  0  0  0  0  0
   37.9362   12.0177  -15.9584 C   0  0  0  0  0  0  0  0  0  0  0  0
   33.9887   10.8751  -17.0206 C   0  0  0  0  0  0  0  0  0  0  0  0
   32.9075   10.5620  -17.2906 N   0  0  0  0  0  0  0  0  0  0  0  0
  9 10  1  0  0  0
 10 11  1  0  0  0
 11 12  2  0  0  0
 12  1  1  0  0  0
  1  2  2  0  0  0
  2  3  1  0  0  0
  3  4  2  0  0  0
  3  5  1  0  0  0
  5  6  1  0  0  0
  6  7  2  0  0  0
  2 20  1  0  0  0
 20 21  2  0  0  0
 21 22  1  0  0  0
 22 23  1  0  0  0
 22 24  1  0  0  0
 24 25  2  0  0  0
 25 26  1  0  0  0
 26 27  2  0  0  0
 27 28  1  0  0  0
 28 29  2  0  0  0
 26 30  1  0  0  0
 30 31  3  0  0  0
 12 13  1  0  0  0
 13 14  2  0  0  0
 14 15  1  0  0  0
 15 16  1  0  0  0
 15 17  2  0  0  0
 17 18  1  0  0  0
 18 19  2  0  0  0
 19 10  1  0  0  0
  6  1  1  0  0  0
 29 20  1  0  0  0
 19 13  1  0  0  0
 29 24  1  0  0  0
  5  8  1  0  0  0
M  END
> <minimizedAffinity>
-9.85516

> <CNNscore>
0.6325093508

> <CNNaffinity>
7.1724076271

> <CNN_VS>
4.5366148949

> <CNNaffinity_variance>
0.1636981666

$$$$
[H]c1c(C#N)c([H])c2c(c1[H])c(C1=C(c3c([H])n(C([H])([H])[H])c4c([H])c([H])c(Cl)c([H])c34)C(=O)N([H])C1=O)c([H])n2C([H])([H])[H]


 31 35  0  0  0  0  0  0  0  0999 V2000
   42.7808   13.0063  -15.6706 C   0  0  0  0  0  0  0  0  0  0  0  0
   44.0192   13.2532  -15.2576 C   0  0  0  0  0  0  0  0  0  0  0  0
   44.9117   12.5689  -16.2337 C   0  0  0  0  0  0  0  0  0  0  0  0
   46.1658   12.5578  -16.2048 O   0  0  0  0  0  0  0  0  0  0  0  0
   44.1393   11.9150  -17.2249 N   0  0  0  0  0  0  0  0  0  0  0  0
   42.7872   12.1856  -16.8759 C   0  0  0  0  0  0  0  0  0  0  0  0
   41.7947   11.7692  -17.5188 O   0  0  0  0  0  0  0  0  0  0  0  0
   44.4890   11.3617  -18.0273 H   0  0  0  0  0  0  0  0  0  0  0  0
   39.7869   15.5539  -12.6109 C   0  0  0  0  0  0  0  0  0  0  0  0
   40.2599   14.6264  -13.6415 N   0  0  0  0  0  0  0  0  0  0  0  0
   41.5270   14.4299  -13.9996 C   0  0  0  0  0  0  0  0  0  0  0  0
   41.5857   13.4781  -15.0059 C   0  0  0  0  0  0  0  0  0  0  0  0
   40.2779   13.1137  -15.2339 C   0  0  0  0  0  0  0  0  0  0  0  0
   39.7064   12.2076  -16.1354 C   0  0  0  0  0  0  0  0  0  0  0  0
   38.3338   12.0767  -16.1216 C   0  0  0  0  0  0  0  0  0  0  0  0
   37.6368   10.9249  -17.2703 Cl  0  0  0  0  0  0  0  0  0  0  0  0
   37.5142   12.7852  -15.2760 C   0  0  0  0  0  0  0  0  0  0  0  0
   38.0869   13.6706  -14.3987 C   0  0  0  0  0  0  0  0  0  0  0  0
   39.4431   13.8260  -14.3851 C   0  0  0  0  0  0  0  0  0  0  0  0
   44.4881   14.0440  -14.1408 C   0  0  0  0  0  0  0  0  0  0  0  0
   44.9464   15.3477  -14.1662 C   0  0  0  0  0  0  0  0  0  0  0  0
   45.2544   15.7583  -12.9385 N   0  0  0  0  0  0  0  0  0  0  0  0
   45.7726   17.0939  -12.6048 C   0  0  0  0  0  0  0  0  0  0  0  0
   45.0111   14.7541  -12.0827 C   0  0  0  0  0  0  0  0  0  0  0  0
   45.1720   14.7357  -10.7204 C   0  0  0  0  0  0  0  0  0  0  0  0
   44.8355   13.5708  -10.0232 C   0  0  0  0  0  0  0  0  0  0  0  0
   44.3575   12.4893  -10.7169 C   0  0  0  0  0  0  0  0  0  0  0  0
   44.2137   12.5564  -12.0855 C   0  0  0  0  0  0  0  0  0  0  0  0
   44.5310   13.6765  -12.8218 C   0  0  0  0  0  0  0  0  0  0  0  0
   44.9954   13.5293   -8.6052 C   0  0  0  0  0  0  0  0  0  0  0  0
   45.1273   13.5091   -7.4554 N   0  0  0  0  0  0  0  0  0  0  0  0
  9 10  1  0  0  0
 10 11  1  0  0  0
 11 12  2  0  0  0
 12  1  1  0  0  0
  1  2  2  0  0  0
  2  3  1  0  0  0
  3  4  2  0  0  0
  3  5  1  0  0  0
  5  6  1  0  0  0
  6  7  2  0  0  0
  2 20  1  0  0  0
 20 21  2  0  0  0
 21 22  1  0  0  0
 22 23  1  0  0  0
 22 24  1  0  0  0
 24 25  2  0  0  0
 25 26  1  0  0  0
 26 27  2  0  0  0
 27 28  1  0  0  0
 28 29  2  0  0  0
 26 30  1  0  0  0
 30 31  3  0  0  0
 12 13  1  0  0  0
 13 14  2  0  0  0
 14 15  1  0  0  0
 15 16  1  0  0  0
 15 17  2  0  0  0
 17 18  1  0  0  0
 18 19  2  0  0  0
 19 10  1  0  0  0
  6  1  1  0  0  0
 29 20  1  0  0  0
 19 13  1  0  0  0
 29 24  1  0  0  0
  5  8  1  0  0  0
M  END
> <minimizedAffinity>
-8.59344

> <CNNscore>
0.5105904341

> <CNNaffinity>
6.5149931908

> <CNN_VS>
3.3264932632

> <CNNaffinity_variance>
0.0360340662

$$$$
[H]c1c(C#N)c([H])c2c(c1[H])c(C1=C(c3c([H])n(C([H])([H])[H])c4c([H])c([H])c(Cl)c([H])c34)C(=O)N([H])C1=O)c([H])n2C([H])([H])[H]


 31 35  0  0  0  0  0  0  0  0999 V2000
   43.5208   12.9719  -15.1507 C   0  0  0  0  0  0  0  0  0  0  0  0
   42.2635   12.9421  -15.5790 C   0  0  0  0  0  0  0  0  0  0  0  0
   42.3118   12.2979  -16.9207 C   0  0  0  0  0  0  0  0  0  0  0  0
   41.3293   12.0761  -17.6685 O   0  0  0  0  0  0  0  0  0  0  0  0
   43.6471   11.9594  -17.2509 N   0  0  0  0  0  0  0  0  0  0  0  0
   44.4210   12.3838  -16.1355 C   0  0  0  0  0  0  0  0  0  0  0  0
   45.6657   12.2589  -16.0506 O   0  0  0  0  0  0  0  0  0  0  0  0
   43.9812   11.5022  -18.1179 H   0  0  0  0  0  0  0  0  0  0  0  0
   44.1085   13.5861  -10.2421 C   0  0  0  0  0  0  0  0  0  0  0  0
   44.2028   13.7843  -11.6907 N   0  0  0  0  0  0  0  0  0  0  0  0
   43.6271   13.0314  -12.6255 C   0  0  0  0  0  0  0  0  0  0  0  0
   43.9416   13.5255  -13.8821 C   0  0  0  0  0  0  0  0  0  0  0  0
   44.7426   14.6205  -13.6486 C   0  0  0  0  0  0  0  0  0  0  0  0
   45.3754   15.5152  -14.5200 C   0  0  0  0  0  0  0  0  0  0  0  0
   46.1328   16.5216  -13.9588 C   0  0  0  0  0  0  0  0  0  0  0  0
   46.9217   17.6390  -15.0817 Cl  0  0  0  0  0  0  0  0  0  0  0  0
   46.2922   16.6829  -12.6033 C   0  0  0  0  0  0  0  0  0  0  0  0
   45.6679   15.7986  -11.7607 C   0  0  0  0  0  0  0  0  0  0  0  0
   44.9102   14.7896  -12.2818 C   0  0  0  0  0  0  0  0  0  0  0  0
   41.0471   13.3762  -14.9274 C   0  0  0  0  0  0  0  0  0  0  0  0
   40.9088   14.3756  -13.9828 C   0  0  0  0  0  0  0  0  0  0  0  0
   39.6312   14.5208  -13.6403 N   0  0  0  0  0  0  0  0  0  0  0  0
   39.1303   15.4949  -12.6584 C   0  0  0  0  0  0  0  0  0  0  0  0
   38.9026   13.6366  -14.3384 C   0  0  0  0  0  0  0  0  0  0  0  0
   37.5450   13.4409  -14.3140 C   0  0  0  0  0  0  0  0  0  0  0  0
   36.9956   12.4621  -15.1485 C   0  0  0  0  0  0  0  0  0  0  0  0
   37.8242   11.7323  -15.9610 C   0  0  0  0  0  0  0  0  0  0  0  0
   39.1821   11.9658  -15.9496 C   0  0  0  0  0  0  0  0  0  0  0  0
   39.7760   12.9151  -15.1475 C   0  0  0  0  0  0  0  0  0  0  0  0
   35.5853   12.2412  -15.1390 C   0  0  0  0  0  0  0  0  0  0  0  0
   34.4437   12.0503  -15.1249 N   0  0  0  0  0  0  0  0  0  0  0  0
  9 10  1  0  0  0
 10 11  1  0  0  0
 11 12  2  0  0  0
 12  1  1  0  0  0
  1  2  2  0  0  0
  2  3  1  0  0  0
  3  4  2  0  0  0
  3  5  1  0  0  0
  5  6  1  0  0  0
  6  7  2  0  0  0
  2 20  1  0  0  0
 20 21  2  0  0  0
 21 22  1  0  0  0
 22 23  1  0  0  0
 22 24  1  0  0  0
 24 25  2  0  0  0
 25 26  1  0  0  0
 26 27  2  0  0  0
 27 28  1  0  0  0
 28 29  2  0  0  0
 26 30  1  0  0  0
 30 31  3  0  0  0
 12 13  1  0  0  0
 13 14  2  0  0  0
 14 15  1  0  0  0
 15 16  1  0  0  0
 15 17  2  0  0  0
 17 18  1  0  0  0
 18 19  2  0  0  0
 19 10  1  0  0  0
  6  1  1  0  0  0
 29 20  1  0  0  0
 19 13  1  0  0  0
 29 24  1  0  0  0
  5  8  1  0  0  0
M  END
> <minimizedAffinity>
-9.15855

> <CNNscore>
0.5092856884

> <CNNaffinity>
6.8593597412

> <CNN_VS>
3.4933736324

> <CNNaffinity_variance>
0.1136461720

$$$$
[H]c1c(C#N)c([H])c2c(c1[H])c(C1=C(c3c([H])n(C([H])([H])[H])c4c([H])c([H])c(Cl)c([H])c34)C(=O)N([H])C1=O)c([H])n2C([H])([H])[H]


 31 35  0  0  0  0  0  0  0  0999 V2000
   38.0771   15.1790  -12.3257 C   0  0  0  0  0  0  0  0  0  0  0  0
   37.9709   15.5985  -11.0695 C   0  0  0  0  0  0  0  0  0  0  0  0
   39.2611   16.2755  -10.7620 C   0  0  0  0  0  0  0  0  0  0  0  0
   39.5694   16.8161   -9.6729 O   0  0  0  0  0  0  0  0  0  0  0  0
   40.1172   16.2278  -11.8897 N   0  0  0  0  0  0  0  0  0  0  0  0
   39.3759   15.5338  -12.8856 C   0  0  0  0  0  0  0  0  0  0  0  0
   39.8017   15.2851  -14.0384 O   0  0  0  0  0  0  0  0  0  0  0  0
   41.0742   16.6160  -11.9663 H   0  0  0  0  0  0  0  0  0  0  0  0
   33.5841   13.6095  -13.7974 C   0  0  0  0  0  0  0  0  0  0  0  0
   35.0365   13.7696  -13.6914 N   0  0  0  0  0  0  0  0  0  0  0  0
   35.6786   14.5732  -12.8463 C   0  0  0  0  0  0  0  0  0  0  0  0
   37.0465   14.4559  -13.0382 C   0  0  0  0  0  0  0  0  0  0  0  0
   37.1905   13.5344  -14.0508 C   0  0  0  0  0  0  0  0  0  0  0  0
   38.3261   13.0174  -14.6861 C   0  0  0  0  0  0  0  0  0  0  0  0
   38.1278   12.0965  -15.6931 C   0  0  0  0  0  0  0  0  0  0  0  0
   39.5792   11.4584  -16.4794 Cl  0  0  0  0  0  0  0  0  0  0  0  0
   36.8847   11.6703  -16.0951 C   0  0  0  0  0  0  0  0  0  0  0  0
   35.7804   12.1858  -15.4654 C   0  0  0  0  0  0  0  0  0  0  0  0
   35.9394   13.1000  -14.4641 C   0  0  0  0  0  0  0  0  0  0  0  0
   36.8616   15.5019  -10.1461 C   0  0  0  0  0  0  0  0  0  0  0  0
   35.5785   15.9856  -10.3184 C   0  0  0  0  0  0  0  0  0  0  0  0
   34.8174   15.6734   -9.2724 N   0  0  0  0  0  0  0  0  0  0  0  0
   33.3988   16.0348   -9.1281 C   0  0  0  0  0  0  0  0  0  0  0  0
   35.5644   14.9853   -8.3957 C   0  0  0  0  0  0  0  0  0  0  0  0
   35.1903   14.4551   -7.1870 C   0  0  0  0  0  0  0  0  0  0  0  0
   36.1436   13.7549   -6.4405 C   0  0  0  0  0  0  0  0  0  0  0  0
   37.4148   13.6195   -6.9354 C   0  0  0  0  0  0  0  0  0  0  0  0
   37.7424   14.1705   -8.1550 C   0  0  0  0  0  0  0  0  0  0  0  0
   36.8446   14.8706   -8.9304 C   0  0  0  0  0  0  0  0  0  0  0  0
   35.7763   13.1951   -5.1797 C   0  0  0  0  0  0  0  0  0  0  0  0
   35.4889   12.7326   -4.1582 N   0  0  0  0  0  0  0  0  0  0  0  0
  9 10  1  0  0  0
 10 11  1  0  0  0
 11 12  2  0  0  0
 12  1  1  0  0  0
  1  2  2  0  0  0
  2  3  1  0  0  0
  3  4  2  0  0  0
  3  5  1  0  0  0
  5  6  1  0  0  0
  6  7  2  0  0  0
  2 20  1  0  0  0
 20 21  2  0  0  0
 21 22  1  0  0  0
 22 23  1  0  0  0
 22 24  1  0  0  0
 24 25  2  0  0  0
 25 26  1  0  0  0
 26 27  2  0  0  0
 27 28  1  0  0  0
 28 29  2  0  0  0
 26 30  1  0  0  0
 30 31  3  0  0  0
 12 13  1  0  0  0
 13 14  2  0  0  0
 14 15  1  0  0  0
 15 16  1  0  0  0
 15 17  2  0  0  0
 17 18  1  0  0  0
 18 19  2  0  0  0
 19 10  1  0  0  0
  6  1  1  0  0  0
 29 20  1  0  0  0
 19 13  1  0  0  0
 29 24  1  0  0  0
  5  8  1  0  0  0
M  END
> <minimizedAffinity>
-9.64992

> <CNNscore>
0.2819461226

> <CNNaffinity>
6.0299458504

> <CNN_VS>
1.7001198530

> <CNNaffinity_variance>
0.3323688507

$$$$
[H]c1c(C#N)c([H])c2c(c1[H])c(C1=C(c3c([H])n(C([H])([H])[H])c4c([H])c([H])c(Cl)c([H])c34)C(=O)N([H])C1=O)c([H])n2C([H])([H])[H]


 31 35  0  0  0  0  0  0  0  0999 V2000
   41.6346   15.9724  -10.3641 C   0  0  0  0  0  0  0  0  0  0  0  0
   41.7583   15.7364  -11.6657 C   0  0  0  0  0  0  0  0  0  0  0  0
   40.4135   15.9963  -12.2502 C   0  0  0  0  0  0  0  0  0  0  0  0
   40.1021   15.8903  -13.4607 O   0  0  0  0  0  0  0  0  0  0  0  0
   39.5082   16.3889  -11.2339 N   0  0  0  0  0  0  0  0  0  0  0  0
   40.2727   16.3757  -10.0345 C   0  0  0  0  0  0  0  0  0  0  0  0
   39.8170   16.6653   -8.9029 O   0  0  0  0  0  0  0  0  0  0  0  0
   38.5078   16.6318  -11.3460 H   0  0  0  0  0  0  0  0  0  0  0  0
   45.8103   16.8758   -7.8020 C   0  0  0  0  0  0  0  0  0  0  0  0
   44.5659   16.2530   -8.2603 N   0  0  0  0  0  0  0  0  0  0  0  0
   43.7973   16.6775   -9.2610 C   0  0  0  0  0  0  0  0  0  0  0  0
   42.7052   15.8350   -9.4009 C   0  0  0  0  0  0  0  0  0  0  0  0
   42.8609   14.8781   -8.4235 C   0  0  0  0  0  0  0  0  0  0  0  0
   42.0753   13.7762   -8.0643 C   0  0  0  0  0  0  0  0  0  0  0  0
   42.5103   13.0015   -7.0098 C   0  0  0  0  0  0  0  0  0  0  0  0
   41.4997   11.6149   -6.5764 Cl  0  0  0  0  0  0  0  0  0  0  0  0
   43.6624   13.2588   -6.3062 C   0  0  0  0  0  0  0  0  0  0  0  0
   44.4221   14.3422   -6.6675 C   0  0  0  0  0  0  0  0  0  0  0  0
   44.0214   15.1315   -7.7068 C   0  0  0  0  0  0  0  0  0  0  0  0
   42.9209   15.3530  -12.4363 C   0  0  0  0  0  0  0  0  0  0  0  0
   43.2687   14.0845  -12.8605 C   0  0  0  0  0  0  0  0  0  0  0  0
   44.3861   14.1234  -13.5820 N   0  0  0  0  0  0  0  0  0  0  0  0
   45.0365   12.9509  -14.1871 C   0  0  0  0  0  0  0  0  0  0  0  0
   44.7996   15.3977  -13.6537 C   0  0  0  0  0  0  0  0  0  0  0  0
   45.8966   15.9038  -14.3037 C   0  0  0  0  0  0  0  0  0  0  0  0
   46.1248   17.2829  -14.2557 C   0  0  0  0  0  0  0  0  0  0  0  0
   45.2512   18.0829  -13.5657 C   0  0  0  0  0  0  0  0  0  0  0  0
   44.1633   17.5273  -12.9285 C   0  0  0  0  0  0  0  0  0  0  0  0
   43.8917   16.1769  -12.9419 C   0  0  0  0  0  0  0  0  0  0  0  0
   47.2606   17.8311  -14.9246 C   0  0  0  0  0  0  0  0  0  0  0  0
   48.1883   18.2758  -15.4552 N   0  0  0  0  0  0  0  0  0  0  0  0
  9 10  1  0  0  0
 10 11  1  0  0  0
 11 12  2  0  0  0
 12  1  1  0  0  0
  1  2  2  0  0  0
  2  3  1  0  0  0
  3  4  2  0  0  0
  3  5  1  0  0  0
  5  6  1  0  0  0
  6  7  2  0  0  0
  2 20  1  0  0  0
 20 21  2  0  0  0
 21 22  1  0  0  0
 22 23  1  0  0  0
 22 24  1  0  0  0
 24 25  2  0  0  0
 25 26  1  0  0  0
 26 27  2  0  0  0
 27 28  1  0  0  0
 28 29  2  0  0  0
 26 30  1  0  0  0
 30 31  3  0  0  0
 12 13  1  0  0  0
 13 14  2  0  0  0
 14 15  1  0  0  0
 15 16  1  0  0  0
 15 17  2  0  0  0
 17 18  1  0  0  0
 18 19  2  0  0  0
 19 10  1  0  0  0
  6  1  1  0  0  0
 29 20  1  0  0  0
 19 13  1  0  0  0
 29 24  1  0  0  0
  5  8  1  0  0  0
M  END
> <minimizedAffinity>
-6.62549

> <CNNscore>
0.2706670165

> <CNNaffinity>
5.3837928772

> <CNN_VS>
1.4572151899

> <CNNaffinity_variance>
0.1344829798

$$$$
[H]c1c(C#N)c([H])c2c(c1[H])c(C1=C(c3c([H])n(C([H])([H])[H])c4c([H])c([H])c(Cl)c([H])c34)C(=O)N([H])C1=O)c([H])n2C([H])([H])[H]


 31 35  0  0  0  0  0  0  0  0999 V2000
   41.6566   15.8081  -10.9811 C   0  0  0  0  0  0  0  0  0  0  0  0
   41.2727   15.8742   -9.7108 C   0  0  0  0  0  0  0  0  0  0  0  0
   39.9037   16.4597   -9.7352 C   0  0  0  0  0  0  0  0  0  0  0  0
   39.1813   16.6888   -8.7356 O   0  0  0  0  0  0  0  0  0  0  0  0
   39.5138   16.7314  -11.0697 N   0  0  0  0  0  0  0  0  0  0  0  0
   40.6187   16.3228  -11.8666 C   0  0  0  0  0  0  0  0  0  0  0  0
   40.6583   16.4087  -13.1168 O   0  0  0  0  0  0  0  0  0  0  0  0
   38.6171   17.1391  -11.3894 H   0  0  0  0  0  0  0  0  0  0  0  0
   45.3399   12.6533  -12.1199 C   0  0  0  0  0  0  0  0  0  0  0  0
   44.5707   13.8867  -11.9364 N   0  0  0  0  0  0  0  0  0  0  0  0
   43.3349   13.9765  -11.4495 C   0  0  0  0  0  0  0  0  0  0  0  0
   42.9381   15.3046  -11.4249 C   0  0  0  0  0  0  0  0  0  0  0  0
   44.0082   16.0097  -11.9275 C   0  0  0  0  0  0  0  0  0  0  0  0
   44.1983   17.3779  -12.1564 C   0  0  0  0  0  0  0  0  0  0  0  0
   45.4067   17.7716  -12.6912 C   0  0  0  0  0  0  0  0  0  0  0  0
   45.6216   19.5059  -12.9704 Cl  0  0  0  0  0  0  0  0  0  0  0  0
   46.4172   16.8947  -13.0052 C   0  0  0  0  0  0  0  0  0  0  0  0
   46.2176   15.5569  -12.7772 C   0  0  0  0  0  0  0  0  0  0  0  0
   45.0329   15.1313  -12.2490 C   0  0  0  0  0  0  0  0  0  0  0  0
   41.9550   15.4483   -8.5085 C   0  0  0  0  0  0  0  0  0  0  0  0
   42.9515   16.1182   -7.8241 C   0  0  0  0  0  0  0  0  0  0  0  0
   43.3105   15.4380   -6.7381 N   0  0  0  0  0  0  0  0  0  0  0  0
   44.3456   15.8644   -5.7839 C   0  0  0  0  0  0  0  0  0  0  0  0
   42.5723   14.3193   -6.6760 C   0  0  0  0  0  0  0  0  0  0  0  0
   42.5963   13.3327   -5.7231 C   0  0  0  0  0  0  0  0  0  0  0  0
   41.7159   12.2541   -5.8554 C   0  0  0  0  0  0  0  0  0  0  0  0
   40.8603   12.2150   -6.9258 C   0  0  0  0  0  0  0  0  0  0  0  0
   40.8739   13.2302   -7.8571 C   0  0  0  0  0  0  0  0  0  0  0  0
   41.7203   14.3141   -7.7769 C   0  0  0  0  0  0  0  0  0  0  0  0
   41.7240   11.2158   -4.8756 C   0  0  0  0  0  0  0  0  0  0  0  0
   41.7429   10.3701   -4.0855 N   0  0  0  0  0  0  0  0  0  0  0  0
  9 10  1  0  0  0
 10 11  1  0  0  0
 11 12  2  0  0  0
 12  1  1  0  0  0
  1  2  2  0  0  0
  2  3  1  0  0  0
  3  4  2  0  0  0
  3  5  1  0  0  0
  5  6  1  0  0  0
  6  7  2  0  0  0
  2 20  1  0  0  0
 20 21  2  0  0  0
 21 22  1  0  0  0
 22 23  1  0  0  0
 22 24  1  0  0  0
 24 25  2  0  0  0
 25 26  1  0  0  0
 26 27  2  0  0  0
 27 28  1  0  0  0
 28 29  2  0  0  0
 26 30  1  0  0  0
 30 31  3  0  0  0
 12 13  1  0  0  0
 13 14  2  0  0  0
 14 15  1  0  0  0
 15 16  1  0  0  0
 15 17  2  0  0  0
 17 18  1  0  0  0
 18 19  2  0  0  0
 19 10  1  0  0  0
  6  1  1  0  0  0
 29 20  1  0  0  0
 19 13  1  0  0  0
 29 24  1  0  0  0
  5  8  1  0  0  0
M  END
> <minimizedAffinity>
-6.63103

> <CNNscore>
0.2589124739

> <CNNaffinity>
5.2312107086

> <CNN_VS>
1.3544256687

> <CNNaffinity_variance>
0.2258950919

$$$$
[H]c1c(C#N)c([H])c2c(c1[H])c(C1=C(c3c([H])n(C([H])([H])[H])c4c([H])c([H])c(Cl)c([H])c34)C(=O)N([H])C1=O)c([H])n2C([H])([H])[H]


 31 35  0  0  0  0  0  0  0  0999 V2000
   35.8320   15.0773   -6.4312 C   0  0  0  0  0  0  0  0  0  0  0  0
   36.6392   14.5962   -5.4920 C   0  0  0  0  0  0  0  0  0  0  0  0
   35.7999   13.6779   -4.6735 C   0  0  0  0  0  0  0  0  0  0  0  0
   36.1846   13.0149   -3.6804 O   0  0  0  0  0  0  0  0  0  0  0  0
   34.4757   13.6502   -5.1759 N   0  0  0  0  0  0  0  0  0  0  0  0
   34.4859   14.5350   -6.2895 C   0  0  0  0  0  0  0  0  0  0  0  0
   33.4857   14.7838   -7.0035 O   0  0  0  0  0  0  0  0  0  0  0  0
   33.6777   13.1024   -4.8080 H   0  0  0  0  0  0  0  0  0  0  0  0
   37.4022   19.2747   -8.6068 C   0  0  0  0  0  0  0  0  0  0  0  0
   36.9410   17.8983   -8.4083 N   0  0  0  0  0  0  0  0  0  0  0  0
   36.6266   17.3357   -7.2435 C   0  0  0  0  0  0  0  0  0  0  0  0
   36.2324   16.0227   -7.4503 C   0  0  0  0  0  0  0  0  0  0  0  0
   36.3295   15.8274   -8.8096 C   0  0  0  0  0  0  0  0  0  0  0  0
   36.0790   14.7065   -9.6104 C   0  0  0  0  0  0  0  0  0  0  0  0
   36.2870   14.8349  -10.9675 C   0  0  0  0  0  0  0  0  0  0  0  0
   35.9628   13.4040  -11.9571 Cl  0  0  0  0  0  0  0  0  0  0  0  0
   36.7229   15.9958  -11.5600 C   0  0  0  0  0  0  0  0  0  0  0  0
   36.9659   17.0861  -10.7638 C   0  0  0  0  0  0  0  0  0  0  0  0
   36.7709   16.9946   -9.4157 C   0  0  0  0  0  0  0  0  0  0  0  0
   38.0501   14.8254   -5.2697 C   0  0  0  0  0  0  0  0  0  0  0  0
   38.6295   15.7755   -4.4501 C   0  0  0  0  0  0  0  0  0  0  0  0
   39.9552   15.6610   -4.4673 N   0  0  0  0  0  0  0  0  0  0  0  0
   40.8819   16.5148   -3.7084 C   0  0  0  0  0  0  0  0  0  0  0  0
   40.2821   14.6483   -5.2844 C   0  0  0  0  0  0  0  0  0  0  0  0
   41.5300   14.1687   -5.5922 C   0  0  0  0  0  0  0  0  0  0  0  0
   41.6314   13.0812   -6.4658 C   0  0  0  0  0  0  0  0  0  0  0  0
   40.4886   12.5298   -6.9848 C   0  0  0  0  0  0  0  0  0  0  0  0
   39.2576   13.0473   -6.6456 C   0  0  0  0  0  0  0  0  0  0  0  0
   39.0998   14.1169   -5.7922 C   0  0  0  0  0  0  0  0  0  0  0  0
   42.9201   12.5661   -6.8004 C   0  0  0  0  0  0  0  0  0  0  0  0
   43.9600   12.1435   -7.0831 N   0  0  0  0  0  0  0  0  0  0  0  0
  9 10  1  0  0  0
 10 11  1  0  0  0
 11 12  2  0  0  0
 12  1  1  0  0  0
  1  2  2  0  0  0
  2  3  1  0  0  0
  3  4  2  0  0  0
  3  5  1  0  0  0
  5  6  1  0  0  0
  6  7  2  0  0  0
  2 20  1  0  0  0
 20 21  2  0  0  0
 21 22  1  0  0  0
 22 23  1  0  0  0
 22 24  1  0  0  0
 24 25  2  0  0  0
 25 26  1  0  0  0
 26 27  2  0  0  0
 27 28  1  0  0  0
 28 29  2  0  0  0
 26 30  1  0  0  0
 30 31  3  0  0  0
 12 13  1  0  0  0
 13 14  2  0  0  0
 14 15  1  0  0  0
 15 16  1  0  0  0
 15 17  2  0  0  0
 17 18  1  0  0  0
 18 19  2  0  0  0
 19 10  1  0  0  0
  6  1  1  0  0  0
 29 20  1  0  0  0
 19 13  1  0  0  0
 29 24  1  0  0  0
  5  8  1  0  0  0
M  END
> <minimizedAffinity>
-6.53937

> <CNNscore>
0.2461774349

> <CNNaffinity>
5.5297441483

> <CNN_VS>
1.3612982035

> <CNNaffinity_variance>
0.2589612603

$$$$
[H]c1c(C#N)c([H])c2c(c1[H])c(C1=C(c3c([H])n(C([H])([H])[H])c4c([H])c([H])c(Cl)c([H])c34)C(=O)N([H])C1=O)c([H])n2C([H])([H])[H]


 31 35  0  0  0  0  0  0  0  0999 V2000
   38.6327   14.1462  -13.9211 C   0  0  0  0  0  0  0  0  0  0  0  0
   38.4062   14.8897  -12.8436 C   0  0  0  0  0  0  0  0  0  0  0  0
   39.6818   15.6109  -12.5783 C   0  0  0  0  0  0  0  0  0  0  0  0
   39.8905   16.4218  -11.6442 O   0  0  0  0  0  0  0  0  0  0  0  0
   40.6543   15.2520  -13.5439 N   0  0  0  0  0  0  0  0  0  0  0  0
   39.9990   14.3231  -14.3988 C   0  0  0  0  0  0  0  0  0  0  0  0
   40.5385   13.7684  -15.3853 O   0  0  0  0  0  0  0  0  0  0  0  0
   41.6292   15.5950  -13.6082 H   0  0  0  0  0  0  0  0  0  0  0  0
   34.3417   11.7894  -14.8428 C   0  0  0  0  0  0  0  0  0  0  0  0
   35.7359   12.2297  -14.9370 N   0  0  0  0  0  0  0  0  0  0  0  0
   36.3401   13.1021  -14.1333 C   0  0  0  0  0  0  0  0  0  0  0  0
   37.6576   13.2687  -14.5311 C   0  0  0  0  0  0  0  0  0  0  0  0
   37.8109   12.4454  -15.6237 C   0  0  0  0  0  0  0  0  0  0  0  0
   38.9085   12.1966  -16.4566 C   0  0  0  0  0  0  0  0  0  0  0  0
   38.7309   11.3056  -17.4939 C   0  0  0  0  0  0  0  0  0  0  0  0
   40.1335   11.0084  -18.5314 Cl  0  0  0  0  0  0  0  0  0  0  0  0
   37.5429   10.6612  -17.7433 C   0  0  0  0  0  0  0  0  0  0  0  0
   36.4751   10.9150  -16.9205 C   0  0  0  0  0  0  0  0  0  0  0  0
   36.6150   11.7920  -15.8837 C   0  0  0  0  0  0  0  0  0  0  0  0
   37.1988   15.0574  -12.0648 C   0  0  0  0  0  0  0  0  0  0  0  0
   35.9264   15.3269  -12.5321 C   0  0  0  0  0  0  0  0  0  0  0  0
   35.0588   15.3726  -11.5241 N   0  0  0  0  0  0  0  0  0  0  0  0
   33.6190   15.6384  -11.6666 C   0  0  0  0  0  0  0  0  0  0  0  0
   35.7232   15.1373  -10.3826 C   0  0  0  0  0  0  0  0  0  0  0  0
   35.2291   15.0775   -9.1042 C   0  0  0  0  0  0  0  0  0  0  0  0
   36.1144   14.7991   -8.0577 C   0  0  0  0  0  0  0  0  0  0  0  0
   37.4406   14.5951   -8.3384 C   0  0  0  0  0  0  0  0  0  0  0  0
   37.8891   14.6659   -9.6392 C   0  0  0  0  0  0  0  0  0  0  0  0
   37.0623   14.9379  -10.7068 C   0  0  0  0  0  0  0  0  0  0  0  0
   35.6219   14.7326   -6.7194 C   0  0  0  0  0  0  0  0  0  0  0  0
   35.2100   14.6796   -5.6389 N   0  0  0  0  0  0  0  0  0  0  0  0
  9 10  1  0  0  0
 10 11  1  0  0  0
 11 12  2  0  0  0
 12  1  1  0  0  0
  1  2  2  0  0  0
  2  3  1  0  0  0
  3  4  2  0  0  0
  3  5  1  0  0  0
  5  6  1  0  0  0
  6  7  2  0  0  0
  2 20  1  0  0  0
 20 21  2  0  0  0
 21 22  1  0  0  0
 22 23  1  0  0  0
 22 24  1  0  0  0
 24 25  2  0  0  0
 25 26  1  0  0  0
 26 27  2  0  0  0
 27 28  1  0  0  0
 28 29  2  0  0  0
 26 30  1  0  0  0
 30 31  3  0  0  0
 12 13  1  0  0  0
 13 14  2  0  0  0
 14 15  1  0  0  0
 15 16  1  0  0  0
 15 17  2  0  0  0
 17 18  1  0  0  0
 18 19  2  0  0  0
 19 10  1  0  0  0
  6  1  1  0  0  0
 29 20  1  0  0  0
 19 13  1  0  0  0
 29 24  1  0  0  0
  5  8  1  0  0  0
M  END
> <minimizedAffinity>
-9.53733

> <CNNscore>
0.2434951961

> <CNNaffinity>
6.3728094101

> <CNN_VS>
1.5517485142

> <CNNaffinity_variance>
0.1974939257

$$$$
[H]c1c(C#N)c([H])c2c(c1[H])c(C1=C(c3c([H])n(C([H])([H])[H])c4c([H])c([H])c(Cl)c([H])c34)C(=O)N([H])C1=O)c([H])n2C([H])([H])[H]


 31 35  0  0  0  0  0  0  0  0999 V2000
   42.0354   15.5627   -9.9918 C   0  0  0  0  0  0  0  0  0  0  0  0
   42.1381   15.8182  -11.2916 C   0  0  0  0  0  0  0  0  0  0  0  0
   40.8288   16.4052  -11.6899 C   0  0  0  0  0  0  0  0  0  0  0  0
   40.5118   16.7885  -12.8416 O   0  0  0  0  0  0  0  0  0  0  0  0
   39.9654   16.4758  -10.5691 N   0  0  0  0  0  0  0  0  0  0  0  0
   40.7209   15.9431   -9.4882 C   0  0  0  0  0  0  0  0  0  0  0  0
   40.2940   15.8325   -8.3145 O   0  0  0  0  0  0  0  0  0  0  0  0
   38.9955   16.8380  -10.5476 H   0  0  0  0  0  0  0  0  0  0  0  0
   44.9464   12.1651   -7.8012 C   0  0  0  0  0  0  0  0  0  0  0  0
   44.3797   13.4491   -8.2216 N   0  0  0  0  0  0  0  0  0  0  0  0
   43.3223   13.6197   -9.0123 C   0  0  0  0  0  0  0  0  0  0  0  0
   43.0834   14.9740   -9.1869 C   0  0  0  0  0  0  0  0  0  0  0  0
   44.0611   15.6096   -8.4553 C   0  0  0  0  0  0  0  0  0  0  0  0
   44.3426   16.9666   -8.2565 C   0  0  0  0  0  0  0  0  0  0  0  0
   45.4223   17.2822   -7.4589 C   0  0  0  0  0  0  0  0  0  0  0  0
   45.7563   19.0041   -7.2235 Cl  0  0  0  0  0  0  0  0  0  0  0  0
   46.2224   16.3388   -6.8600 C   0  0  0  0  0  0  0  0  0  0  0  0
   45.9364   15.0129   -7.0640 C   0  0  0  0  0  0  0  0  0  0  0  0
   44.8749   14.6640   -7.8483 C   0  0  0  0  0  0  0  0  0  0  0  0
   43.2577   15.6398  -12.1901 C   0  0  0  0  0  0  0  0  0  0  0  0
   44.4833   16.2769  -12.1446 C   0  0  0  0  0  0  0  0  0  0  0  0
   45.2794   15.8274  -13.1115 N   0  0  0  0  0  0  0  0  0  0  0  0
   46.6544   16.2919  -13.3513 C   0  0  0  0  0  0  0  0  0  0  0  0
   44.6128   14.8958  -13.8099 C   0  0  0  0  0  0  0  0  0  0  0  0
   45.0474   14.1604  -14.8834 C   0  0  0  0  0  0  0  0  0  0  0  0
   44.1760   13.2238  -15.4488 C   0  0  0  0  0  0  0  0  0  0  0  0
   42.9220   13.0689  -14.9169 C   0  0  0  0  0  0  0  0  0  0  0  0
   42.5314   13.8314  -13.8379 C   0  0  0  0  0  0  0  0  0  0  0  0
   43.3475   14.7685  -13.2435 C   0  0  0  0  0  0  0  0  0  0  0  0
   44.6072   12.4479  -16.5668 C   0  0  0  0  0  0  0  0  0  0  0  0
   44.9686   11.8163  -17.4670 N   0  0  0  0  0  0  0  0  0  0  0  0
  9 10  1  0  0  0
 10 11  1  0  0  0
 11 12  2  0  0  0
 12  1  1  0  0  0
  1  2  2  0  0  0
  2  3  1  0  0  0
  3  4  2  0  0  0
  3  5  1  0  0  0
  5  6  1  0  0  0
  6  7  2  0  0  0
  2 20  1  0  0  0
 20 21  2  0  0  0
 21 22  1  0  0  0
 22 23  1  0  0  0
 22 24  1  0  0  0
 24 25  2  0  0  0
 25 26  1  0  0  0
 26 27  2  0  0  0
 27 28  1  0  0  0
 28 29  2  0  0  0
 26 30  1  0  0  0
 30 31  3  0  0  0
 12 13  1  0  0  0
 13 14  2  0  0  0
 14 15  1  0  0  0
 15 16  1  0  0  0
 15 17  2  0  0  0
 17 18  1  0  0  0
 18 19  2  0  0  0
 19 10  1  0  0  0
  6  1  1  0  0  0
 29 20  1  0  0  0
 19 13  1  0  0  0
 29 24  1  0  0  0
  5  8  1  0  0  0
M  END
> <minimizedAffinity>
-6.80535

> <CNNscore>
0.2059877664

> <CNNaffinity>
5.4564261436

> <CNN_VS>
1.1239570379

> <CNNaffinity_variance>
0.0742092356

$$$$
[H]OC(=O)[C@@]([H])(N([H])[H])[C@]([H])(OC([H])([H])c1c([H])c([H])c([H])c([H])c1[H])C(=O)N([H])c1c([H])c([H])c(C(F)(F)F)c([H])c1[H]


 31 32  0  0  0  0  0  0  0  0999 V2000
   40.9986   14.9582  -12.6517 C   0  0  0  0  0  0  0  0  0  0  0  0
   41.6372   16.4877  -10.8470 N   0  0  0  0  0  0  0  0  0  0  0  0
   40.6264   16.1037  -11.8278 C   0  0  0  0  0  0  0  0  0  0  0  0
   41.1314   17.0705  -10.1190 H   0  0  0  0  0  0  0  0  0  0  0  0
   42.2914   17.1599  -11.3022 H   0  0  0  0  0  0  0  0  0  0  0  0
   39.3181   15.8454  -11.1771 C   0  0  0  0  0  0  0  0  0  0  0  0
   38.1599   16.1051  -11.8876 O   0  0  0  0  0  0  0  0  0  0  0  0
   39.3264   15.4003  -10.0043 O   0  0  0  0  0  0  0  0  0  0  0  0
   37.8062   15.3979  -12.4926 H   0  0  0  0  0  0  0  0  0  0  0  0
   39.8860   14.6180  -13.6949 C   0  0  0  0  0  0  0  0  0  0  0  0
   39.6535   15.4578  -14.5733 O   0  0  0  0  0  0  0  0  0  0  0  0
   39.2715   13.3769  -13.5390 N   0  0  0  0  0  0  0  0  0  0  0  0
   39.5400   12.7702  -12.6864 H   0  0  0  0  0  0  0  0  0  0  0  0
   38.3000   12.7684  -14.3636 C   0  0  0  0  0  0  0  0  0  0  0  0
   36.9869   12.7435  -13.9520 C   0  0  0  0  0  0  0  0  0  0  0  0
   35.9781   12.1815  -14.7607 C   0  0  0  0  0  0  0  0  0  0  0  0
   36.3401   11.6564  -15.9778 C   0  0  0  0  0  0  0  0  0  0  0  0
   37.6403   11.6659  -16.4135 C   0  0  0  0  0  0  0  0  0  0  0  0
   38.6133   12.2306  -15.5877 C   0  0  0  0  0  0  0  0  0  0  0  0
   35.2506   11.0960  -16.8260 C   0  0  0  0  0  0  0  0  0  0  0  0
   34.0582   11.5888  -16.3560 F   0  0  0  0  0  0  0  0  0  0  0  0
   35.4865   11.4620  -18.1547 F   0  0  0  0  0  0  0  0  0  0  0  0
   35.2345    9.7275  -16.7830 F   0  0  0  0  0  0  0  0  0  0  0  0
   42.1845   14.9818  -13.3254 O   0  0  0  0  0  0  0  0  0  0  0  0
   42.8149   13.7860  -13.3556 C   0  0  0  0  0  0  0  0  0  0  0  0
   43.3826   13.2425  -14.5868 C   0  0  0  0  0  0  0  0  0  0  0  0
   42.5938   12.7917  -15.5975 C   0  0  0  0  0  0  0  0  0  0  0  0
   43.1917   12.2544  -16.7166 C   0  0  0  0  0  0  0  0  0  0  0  0
   44.5536   12.1381  -16.8810 C   0  0  0  0  0  0  0  0  0  0  0  0
   45.3295   12.6087  -15.8173 C   0  0  0  0  0  0  0  0  0  0  0  0
   44.7814   13.1410  -14.7134 C   0  0  0  0  0  0  0  0  0  0  0  0
  2  3  1  0  0  0
  3  1  1  0  0  0
  1 24  1  0  0  0
 24 25  1  0  0  0
 25 26  1  0  0  0
 26 27  2  0  0  0
 27 28  1  0  0  0
 28 29  2  0  0  0
 29 30  1  0  0  0
 30 31  2  0  0  0
  1 10  1  0  0  0
 10 11  2  0  0  0
 10 12  1  0  0  0
 12 14  1  0  0  0
 14 15  2  0  0  0
 15 16  1  0  0  0
 16 17  2  0  0  0
 17 18  1  0  0  0
 18 19  2  0  0  0
 17 20  1  0  0  0
 20 21  1  0  0  0
 20 22  1  0  0  0
 20 23  1  0  0  0
  3  6  1  0  0  0
  6  7  1  0  0  0
  6  8  2  0  0  0
 31 26  1  0  0  0
 19 14  1  0  0  0
  2  4  1  0  0  0
  2  5  1  0  0  0
 12 13  1  0  0  0
  7  9  1  0  0  0
M  END
> <minimizedAffinity>
-7.68447

> <CNNscore>
0.3804608583

> <CNNaffinity>
5.4607777596

> <CNN_VS>
2.0776121616

> <CNNaffinity_variance>
0.1151676551

$$$$
[H]OC(=O)[C@@]([H])(N([H])[H])[C@]([H])(OC([H])([H])c1c([H])c([H])c([H])c([H])c1[H])C(=O)N([H])c1c([H])c([H])c(C(F)(F)F)c([H])c1[H]


 31 32  0  0  0  0  0  0  0  0999 V2000
   38.9858   15.4935  -11.6326 C   0  0  0  0  0  0  0  0  0  0  0  0
   40.5328   16.5751  -10.0702 N   0  0  0  0  0  0  0  0  0  0  0  0
   40.3716   15.6893  -11.2193 C   0  0  0  0  0  0  0  0  0  0  0  0
   41.5434   16.8974  -10.0892 H   0  0  0  0  0  0  0  0  0  0  0  0
   40.4655   15.9981   -9.2044 H   0  0  0  0  0  0  0  0  0  0  0  0
   41.1749   16.1585  -12.3754 C   0  0  0  0  0  0  0  0  0  0  0  0
   42.0503   15.2737  -12.9791 O   0  0  0  0  0  0  0  0  0  0  0  0
   41.0193   17.3449  -12.7521 O   0  0  0  0  0  0  0  0  0  0  0  0
   41.6991   14.6678  -13.6868 H   0  0  0  0  0  0  0  0  0  0  0  0
   38.8924   15.0396  -13.1250 C   0  0  0  0  0  0  0  0  0  0  0  0
   38.4046   15.8392  -13.9336 O   0  0  0  0  0  0  0  0  0  0  0  0
   39.3922   13.7685  -13.4017 N   0  0  0  0  0  0  0  0  0  0  0  0
   39.7375   13.1582  -12.5799 H   0  0  0  0  0  0  0  0  0  0  0  0
   39.5140   13.1263  -14.6534 C   0  0  0  0  0  0  0  0  0  0  0  0
   38.5064   12.2936  -15.0844 C   0  0  0  0  0  0  0  0  0  0  0  0
   38.5680   11.6628  -16.3436 C   0  0  0  0  0  0  0  0  0  0  0  0
   39.6653   11.9016  -17.1355 C   0  0  0  0  0  0  0  0  0  0  0  0
   40.6849   12.7251  -16.7320 C   0  0  0  0  0  0  0  0  0  0  0  0
   40.5912   13.3335  -15.4796 C   0  0  0  0  0  0  0  0  0  0  0  0
   39.6916   11.2468  -18.4739 C   0  0  0  0  0  0  0  0  0  0  0  0
   40.7680   10.3947  -18.5022 F   0  0  0  0  0  0  0  0  0  0  0  0
   38.4806   10.5748  -18.6655 F   0  0  0  0  0  0  0  0  0  0  0  0
   39.8041   12.1676  -19.4810 F   0  0  0  0  0  0  0  0  0  0  0  0
   38.1890   14.6554  -10.9092 O   0  0  0  0  0  0  0  0  0  0  0  0
   36.9031   15.0657  -10.8277 C   0  0  0  0  0  0  0  0  0  0  0  0
   35.8499   14.4746  -11.6492 C   0  0  0  0  0  0  0  0  0  0  0  0
   36.0120   13.2712  -12.2594 C   0  0  0  0  0  0  0  0  0  0  0  0
   34.9948   12.7872  -13.0528 C   0  0  0  0  0  0  0  0  0  0  0  0
   33.8098   13.4514  -13.2756 C   0  0  0  0  0  0  0  0  0  0  0  0
   33.6840   14.6874  -12.6342 C   0  0  0  0  0  0  0  0  0  0  0  0
   34.6529   15.1884  -11.8516 C   0  0  0  0  0  0  0  0  0  0  0  0
  2  3  1  0  0  0
  3  1  1  0  0  0
  1 24  1  0  0  0
 24 25  1  0  0  0
 25 26  1  0  0  0
 26 27  2  0  0  0
 27 28  1  0  0  0
 28 29  2  0  0  0
 29 30  1  0  0  0
 30 31  2  0  0  0
  1 10  1  0  0  0
 10 11  2  0  0  0
 10 12  1  0  0  0
 12 14  1  0  0  0
 14 15  2  0  0  0
 15 16  1  0  0  0
 16 17  2  0  0  0
 17 18  1  0  0  0
 18 19  2  0  0  0
 17 20  1  0  0  0
 20 21  1  0  0  0
 20 22  1  0  0  0
 20 23  1  0  0  0
  3  6  1  0  0  0
  6  7  1  0  0  0
  6  8  2  0  0  0
 31 26  1  0  0  0
 19 14  1  0  0  0
  2  4  1  0  0  0
  2  5  1  0  0  0
 12 13  1  0  0  0
  7  9  1  0  0  0
M  END
> <minimizedAffinity>
-7.29991

> <CNNscore>
0.3746489882

> <CNNaffinity>
5.4925060272

> <CNN_VS>
2.0577619076

> <CNNaffinity_variance>
0.3033476472

$$$$
[H]OC(=O)[C@@]([H])(N([H])[H])[C@]([H])(OC([H])([H])c1c([H])c([H])c([H])c([H])c1[H])C(=O)N([H])c1c([H])c([H])c(C(F)(F)F)c([H])c1[H]


 31 32  0  0  0  0  0  0  0  0999 V2000
   37.9029   15.6033  -11.2853 C   0  0  0  0  0  0  0  0  0  0  0  0
   36.7435   17.6575  -10.6215 N   0  0  0  0  0  0  0  0  0  0  0  0
   36.6683   16.2104  -10.7986 C   0  0  0  0  0  0  0  0  0  0  0  0
   35.9480   17.9137   -9.9681 H   0  0  0  0  0  0  0  0  0  0  0  0
   36.4861   18.1084  -11.5256 H   0  0  0  0  0  0  0  0  0  0  0  0
   36.2422   15.5379   -9.5464 C   0  0  0  0  0  0  0  0  0  0  0  0
   35.7586   14.2438   -9.6185 O   0  0  0  0  0  0  0  0  0  0  0  0
   36.3425   16.1814   -8.4742 O   0  0  0  0  0  0  0  0  0  0  0  0
   36.4110   13.4921   -9.5992 H   0  0  0  0  0  0  0  0  0  0  0  0
   37.6679   14.8155  -12.6143 C   0  0  0  0  0  0  0  0  0  0  0  0
   38.6160   14.7390  -13.4057 O   0  0  0  0  0  0  0  0  0  0  0  0
   36.4013   14.2549  -12.7678 N   0  0  0  0  0  0  0  0  0  0  0  0
   35.6527   14.4541  -12.0149 H   0  0  0  0  0  0  0  0  0  0  0  0
   35.9259   13.4326  -13.8128 C   0  0  0  0  0  0  0  0  0  0  0  0
   36.7360   13.1861  -14.8978 C   0  0  0  0  0  0  0  0  0  0  0  0
   36.3176   12.3402  -15.9450 C   0  0  0  0  0  0  0  0  0  0  0  0
   35.0735   11.7636  -15.8552 C   0  0  0  0  0  0  0  0  0  0  0  0
   34.2443   11.9920  -14.7871 C   0  0  0  0  0  0  0  0  0  0  0  0
   34.6906   12.8344  -13.7680 C   0  0  0  0  0  0  0  0  0  0  0  0
   34.6676   10.8500  -16.9603 C   0  0  0  0  0  0  0  0  0  0  0  0
   33.3378   11.0724  -17.2206 F   0  0  0  0  0  0  0  0  0  0  0  0
   35.4743   11.1094  -18.0725 F   0  0  0  0  0  0  0  0  0  0  0  0
   34.8594    9.5371  -16.6221 F   0  0  0  0  0  0  0  0  0  0  0  0
   39.0001   16.3910  -11.4761 O   0  0  0  0  0  0  0  0  0  0  0  0
   39.9491   16.2384  -10.5251 C   0  0  0  0  0  0  0  0  0  0  0  0
   41.3724   16.2070  -10.8518 C   0  0  0  0  0  0  0  0  0  0  0  0
   42.3231   16.0920   -9.8874 C   0  0  0  0  0  0  0  0  0  0  0  0
   43.6499   16.1081  -10.2585 C   0  0  0  0  0  0  0  0  0  0  0  0
   44.0843   16.2385  -11.5583 C   0  0  0  0  0  0  0  0  0  0  0  0
   43.0760   16.3589  -12.5195 C   0  0  0  0  0  0  0  0  0  0  0  0
   41.7734   16.3441  -12.1947 C   0  0  0  0  0  0  0  0  0  0  0  0
  2  3  1  0  0  0
  3  1  1  0  0  0
  1 24  1  0  0  0
 24 25  1  0  0  0
 25 26  1  0  0  0
 26 27  2  0  0  0
 27 28  1  0  0  0
 28 29  2  0  0  0
 29 30  1  0  0  0
 30 31  2  0  0  0
  1 10  1  0  0  0
 10 11  2  0  0  0
 10 12  1  0  0  0
 12 14  1  0  0  0
 14 15  2  0  0  0
 15 16  1  0  0  0
 16 17  2  0  0  0
 17 18  1  0  0  0
 18 19  2  0  0  0
 17 20  1  0  0  0
 20 21  1  0  0  0
 20 22  1  0  0  0
 20 23  1  0  0  0
  3  6  1  0  0  0
  6  7  1  0  0  0
  6  8  2  0  0  0
 31 26  1  0  0  0
 19 14  1  0  0  0
  2  4  1  0  0  0
  2  5  1  0  0  0
 12 13  1  0  0  0
  7  9  1  0  0  0
M  END
> <minimizedAffinity>
-7.71526

> <CNNscore>
0.3645723164

> <CNNaffinity>
5.2894625664

> <CNN_VS>
1.9283915758

> <CNNaffinity_variance>
0.1986208260

$$$$
[H]OC(=O)[C@@]([H])(N([H])[H])[C@]([H])(OC([H])([H])c1c([H])c([H])c([H])c([H])c1[H])C(=O)N([H])c1c([H])c([H])c(C(F)(F)F)c([H])c1[H]


 31 32  0  0  0  0  0  0  0  0999 V2000
   39.4065   15.6466  -11.5770 C   0  0  0  0  0  0  0  0  0  0  0  0
   37.0736   16.3948  -11.6225 N   0  0  0  0  0  0  0  0  0  0  0  0
   38.2649   16.1448  -10.8166 C   0  0  0  0  0  0  0  0  0  0  0  0
   36.4652   17.0485  -11.0497 H   0  0  0  0  0  0  0  0  0  0  0  0
   36.5232   15.5105  -11.6701 H   0  0  0  0  0  0  0  0  0  0  0  0
   38.6625   17.3557  -10.0567 C   0  0  0  0  0  0  0  0  0  0  0  0
   39.5363   17.2157   -8.9934 O   0  0  0  0  0  0  0  0  0  0  0  0
   38.1827   18.4567  -10.4188 O   0  0  0  0  0  0  0  0  0  0  0  0
   40.5143   17.2194   -9.1798 H   0  0  0  0  0  0  0  0  0  0  0  0
   38.9697   15.1067  -12.9769 C   0  0  0  0  0  0  0  0  0  0  0  0
   39.3588   15.7286  -13.9734 O   0  0  0  0  0  0  0  0  0  0  0  0
   38.1900   13.9518  -12.9621 N   0  0  0  0  0  0  0  0  0  0  0  0
   37.8791   13.5498  -12.0088 H   0  0  0  0  0  0  0  0  0  0  0  0
   37.7177   13.1971  -14.0583 C   0  0  0  0  0  0  0  0  0  0  0  0
   38.6223   12.5667  -14.8820 C   0  0  0  0  0  0  0  0  0  0  0  0
   38.1944   11.7714  -15.9644 C   0  0  0  0  0  0  0  0  0  0  0  0
   36.8433   11.6396  -16.1780 C   0  0  0  0  0  0  0  0  0  0  0  0
   35.9190   12.2570  -15.3748 C   0  0  0  0  0  0  0  0  0  0  0  0
   36.3777   13.0365  -14.3121 C   0  0  0  0  0  0  0  0  0  0  0  0
   36.4170   10.7693  -17.3100 C   0  0  0  0  0  0  0  0  0  0  0  0
   37.5333   10.1296  -17.7899 F   0  0  0  0  0  0  0  0  0  0  0  0
   35.4528    9.8708  -16.8433 F   0  0  0  0  0  0  0  0  0  0  0  0
   35.8352   11.4986  -18.3122 F   0  0  0  0  0  0  0  0  0  0  0  0
   40.4775   16.4663  -11.7810 O   0  0  0  0  0  0  0  0  0  0  0  0
   41.6562   15.9230  -11.4018 C   0  0  0  0  0  0  0  0  0  0  0  0
   42.6629   15.5051  -12.3742 C   0  0  0  0  0  0  0  0  0  0  0  0
   42.5339   14.3535  -13.0842 C   0  0  0  0  0  0  0  0  0  0  0  0
   43.5382   13.9964  -13.9574 C   0  0  0  0  0  0  0  0  0  0  0  0
   44.6817   14.7358  -14.1594 C   0  0  0  0  0  0  0  0  0  0  0  0
   44.7783   15.9104  -13.4072 C   0  0  0  0  0  0  0  0  0  0  0  0
   43.8181   16.2910  -12.5496 C   0  0  0  0  0  0  0  0  0  0  0  0
  2  3  1  0  0  0
  3  1  1  0  0  0
  1 24  1  0  0  0
 24 25  1  0  0  0
 25 26  1  0  0  0
 26 27  2  0  0  0
 27 28  1  0  0  0
 28 29  2  0  0  0
 29 30  1  0  0  0
 30 31  2  0  0  0
  1 10  1  0  0  0
 10 11  2  0  0  0
 10 12  1  0  0  0
 12 14  1  0  0  0
 14 15  2  0  0  0
 15 16  1  0  0  0
 16 17  2  0  0  0
 17 18  1  0  0  0
 18 19  2  0  0  0
 17 20  1  0  0  0
 20 21  1  0  0  0
 20 22  1  0  0  0
 20 23  1  0  0  0
  3  6  1  0  0  0
  6  7  1  0  0  0
  6  8  2  0  0  0
 31 26  1  0  0  0
 19 14  1  0  0  0
  2  4  1  0  0  0
  2  5  1  0  0  0
 12 13  1  0  0  0
  7  9  1  0  0  0
M  END
> <minimizedAffinity>
-7.78482

> <CNNscore>
0.3096693754

> <CNNaffinity>
5.3362994194

> <CNN_VS>
1.6524884701

> <CNNaffinity_variance>
0.1617536843

$$$$
[H]OC(=O)[C@@]([H])(N([H])[H])[C@]([H])(OC([H])([H])c1c([H])c([H])c([H])c([H])c1[H])C(=O)N([H])c1c([H])c([H])c(C(F)(F)F)c([H])c1[H]


 31 32  0  0  0  0  0  0  0  0999 V2000
   39.3909   15.6022  -11.6279 C   0  0  0  0  0  0  0  0  0  0  0  0
   38.2029   17.3839  -10.4370 N   0  0  0  0  0  0  0  0  0  0  0  0
   38.1950   15.9962  -10.8903 C   0  0  0  0  0  0  0  0  0  0  0  0
   37.4848   17.4410   -9.6582 H   0  0  0  0  0  0  0  0  0  0  0  0
   37.8025   17.9752  -11.1967 H   0  0  0  0  0  0  0  0  0  0  0  0
   37.9780   15.0628   -9.7573 C   0  0  0  0  0  0  0  0  0  0  0  0
   36.7371   14.4684   -9.6145 O   0  0  0  0  0  0  0  0  0  0  0  0
   38.9390   14.8566   -8.9778 O   0  0  0  0  0  0  0  0  0  0  0  0
   36.5522   13.6299  -10.1184 H   0  0  0  0  0  0  0  0  0  0  0  0
   39.0310   15.0204  -13.0328 C   0  0  0  0  0  0  0  0  0  0  0  0
   39.6098   15.5033  -14.0141 O   0  0  0  0  0  0  0  0  0  0  0  0
   38.0941   13.9887  -13.0369 N   0  0  0  0  0  0  0  0  0  0  0  0
   37.6288   13.7087  -12.1031 H   0  0  0  0  0  0  0  0  0  0  0  0
   37.6357   13.2234  -14.1316 C   0  0  0  0  0  0  0  0  0  0  0  0
   38.5220   12.4158  -14.8074 C   0  0  0  0  0  0  0  0  0  0  0  0
   38.1000   11.6054  -15.8809 C   0  0  0  0  0  0  0  0  0  0  0  0
   36.7735   11.6412  -16.2380 C   0  0  0  0  0  0  0  0  0  0  0  0
   35.8681   12.4369  -15.5841 C   0  0  0  0  0  0  0  0  0  0  0  0
   36.3202   13.2261  -14.5256 C   0  0  0  0  0  0  0  0  0  0  0  0
   36.3476   10.7527  -17.3560 C   0  0  0  0  0  0  0  0  0  0  0  0
   35.7137   11.5320  -18.2922 F   0  0  0  0  0  0  0  0  0  0  0  0
   37.4790   10.1169  -17.8763 F   0  0  0  0  0  0  0  0  0  0  0  0
   35.4990    9.7702  -16.9208 F   0  0  0  0  0  0  0  0  0  0  0  0
   40.3862   16.5157  -11.8165 O   0  0  0  0  0  0  0  0  0  0  0  0
   41.6246   15.9732  -11.8317 C   0  0  0  0  0  0  0  0  0  0  0  0
   42.3296   15.6220  -10.6016 C   0  0  0  0  0  0  0  0  0  0  0  0
   42.0662   16.2488   -9.4249 C   0  0  0  0  0  0  0  0  0  0  0  0
   42.7941   15.8979   -8.3088 C   0  0  0  0  0  0  0  0  0  0  0  0
   43.7870   14.9444   -8.3057 C   0  0  0  0  0  0  0  0  0  0  0  0
   44.0305   14.3266   -9.5361 C   0  0  0  0  0  0  0  0  0  0  0  0
   43.3389   14.6409  -10.6430 C   0  0  0  0  0  0  0  0  0  0  0  0
  2  3  1  0  0  0
  3  1  1  0  0  0
  1 24  1  0  0  0
 24 25  1  0  0  0
 25 26  1  0  0  0
 26 27  2  0  0  0
 27 28  1  0  0  0
 28 29  2  0  0  0
 29 30  1  0  0  0
 30 31  2  0  0  0
  1 10  1  0  0  0
 10 11  2  0  0  0
 10 12  1  0  0  0
 12 14  1  0  0  0
 14 15  2  0  0  0
 15 16  1  0  0  0
 16 17  2  0  0  0
 17 18  1  0  0  0
 18 19  2  0  0  0
 17 20  1  0  0  0
 20 21  1  0  0  0
 20 22  1  0  0  0
 20 23  1  0  0  0
  3  6  1  0  0  0
  6  7  1  0  0  0
  6  8  2  0  0  0
 31 26  1  0  0  0
 19 14  1  0  0  0
  2  4  1  0  0  0
  2  5  1  0  0  0
 12 13  1  0  0  0
  7  9  1  0  0  0
M  END
> <minimizedAffinity>
-7.11188

> <CNNscore>
0.2889274955

> <CNNaffinity>
5.1389527321

> <CNN_VS>
1.4847847223

> <CNNaffinity_variance>
0.2743363380

$$$$
[H]OC(=O)[C@@]([H])(N([H])[H])[C@]([H])(OC([H])([H])c1c([H])c([H])c([H])c([H])c1[H])C(=O)N([H])c1c([H])c([H])c(C(F)(F)F)c([H])c1[H]


 31 32  0  0  0  0  0  0  0  0999 V2000
   35.3080   16.3232   -9.5307 C   0  0  0  0  0  0  0  0  0  0  0  0
   37.4690   17.4477   -9.2664 N   0  0  0  0  0  0  0  0  0  0  0  0
   36.5353   16.4507   -8.7515 C   0  0  0  0  0  0  0  0  0  0  0  0
   38.4133   17.2083   -8.8463 H   0  0  0  0  0  0  0  0  0  0  0  0
   37.2269   18.3684   -8.8412 H   0  0  0  0  0  0  0  0  0  0  0  0
   37.1848   15.1226   -8.6239 C   0  0  0  0  0  0  0  0  0  0  0  0
   36.4187   14.0445   -8.2184 O   0  0  0  0  0  0  0  0  0  0  0  0
   38.4075   15.0418   -8.8925 O   0  0  0  0  0  0  0  0  0  0  0  0
   35.9086   13.5392   -8.9081 H   0  0  0  0  0  0  0  0  0  0  0  0
   35.6067   15.8864  -11.0011 C   0  0  0  0  0  0  0  0  0  0  0  0
   36.0921   16.7351  -11.7594 O   0  0  0  0  0  0  0  0  0  0  0  0
   35.3087   14.5603  -11.3092 N   0  0  0  0  0  0  0  0  0  0  0  0
   34.8330   13.9487  -10.5565 H   0  0  0  0  0  0  0  0  0  0  0  0
   35.5402   13.8663  -12.5170 C   0  0  0  0  0  0  0  0  0  0  0  0
   36.7299   13.1967  -12.6920 C   0  0  0  0  0  0  0  0  0  0  0  0
   36.9874   12.4588  -13.8652 C   0  0  0  0  0  0  0  0  0  0  0  0
   36.0153   12.4235  -14.8357 C   0  0  0  0  0  0  0  0  0  0  0  0
   34.8212   13.0819  -14.6896 C   0  0  0  0  0  0  0  0  0  0  0  0
   34.5994   13.8025  -13.5154 C   0  0  0  0  0  0  0  0  0  0  0  0
   36.3003   11.6119  -16.0525 C   0  0  0  0  0  0  0  0  0  0  0  0
   35.4121   10.5649  -16.0751 F   0  0  0  0  0  0  0  0  0  0  0  0
   36.1764   12.4343  -17.1765 F   0  0  0  0  0  0  0  0  0  0  0  0
   37.5822   11.1308  -16.0459 F   0  0  0  0  0  0  0  0  0  0  0  0
   34.3089   15.5172   -9.0693 O   0  0  0  0  0  0  0  0  0  0  0  0
   33.1050   16.1293   -9.0041 C   0  0  0  0  0  0  0  0  0  0  0  0
   31.9216   15.5786   -9.6598 C   0  0  0  0  0  0  0  0  0  0  0  0
   31.8268   15.5024  -11.0134 C   0  0  0  0  0  0  0  0  0  0  0  0
   30.6673   15.0087  -11.5705 C   0  0  0  0  0  0  0  0  0  0  0  0
   29.5812   14.5848  -10.8384 C   0  0  0  0  0  0  0  0  0  0  0  0
   29.7167   14.6837   -9.4503 C   0  0  0  0  0  0  0  0  0  0  0  0
   30.8326   15.1567   -8.8730 C   0  0  0  0  0  0  0  0  0  0  0  0
  2  3  1  0  0  0
  3  1  1  0  0  0
  1 24  1  0  0  0
 24 25  1  0  0  0
 25 26  1  0  0  0
 26 27  2  0  0  0
 27 28  1  0  0  0
 28 29  2  0  0  0
 29 30  1  0  0  0
 30 31  2  0  0  0
  1 10  1  0  0  0
 10 11  2  0  0  0
 10 12  1  0  0  0
 12 14  1  0  0  0
 14 15  2  0  0  0
 15 16  1  0  0  0
 16 17  2  0  0  0
 17 18  1  0  0  0
 18 19  2  0  0  0
 17 20  1  0  0  0
 20 21  1  0  0  0
 20 22  1  0  0  0
 20 23  1  0  0  0
  3  6  1  0  0  0
  6  7  1  0  0  0
  6  8  2  0  0  0
 31 26  1  0  0  0
 19 14  1  0  0  0
  2  4  1  0  0  0
  2  5  1  0  0  0
 12 13  1  0  0  0
  7  9  1  0  0  0
M  END
> <minimizedAffinity>
-6.98089

> <CNNscore>
0.2807676196

> <CNNaffinity>
5.1435203552

> <CNN_VS>
1.4441339970

> <CNNaffinity_variance>
0.5203744769

$$$$
[H]OC(=O)[C@@]([H])(N([H])[H])[C@]([H])(OC([H])([H])c1c([H])c([H])c([H])c([H])c1[H])C(=O)N([H])c1c([H])c([H])c(C(F)(F)F)c([H])c1[H]


 31 32  0  0  0  0  0  0  0  0999 V2000
   35.7258   14.2220  -13.3760 C   0  0  0  0  0  0  0  0  0  0  0  0
   33.4805   15.0220  -12.8080 N   0  0  0  0  0  0  0  0  0  0  0  0
   34.8115   14.6629  -12.3277 C   0  0  0  0  0  0  0  0  0  0  0  0
   33.0490   15.6254  -12.0496 H   0  0  0  0  0  0  0  0  0  0  0  0
   32.8941   14.1599  -12.8123 H   0  0  0  0  0  0  0  0  0  0  0  0
   35.4265   15.7787  -11.5669 C   0  0  0  0  0  0  0  0  0  0  0  0
   36.0119   16.8176  -12.2680 O   0  0  0  0  0  0  0  0  0  0  0  0
   35.3849   15.7248  -10.3143 O   0  0  0  0  0  0  0  0  0  0  0  0
   35.4342   17.5692  -12.5723 H   0  0  0  0  0  0  0  0  0  0  0  0
   37.1891   14.0947  -12.8427 C   0  0  0  0  0  0  0  0  0  0  0  0
   37.4040   13.2472  -11.9671 O   0  0  0  0  0  0  0  0  0  0  0  0
   38.1216   14.9486  -13.4288 N   0  0  0  0  0  0  0  0  0  0  0  0
   37.7753   15.6797  -14.1447 H   0  0  0  0  0  0  0  0  0  0  0  0
   39.5157   15.0083  -13.2115 C   0  0  0  0  0  0  0  0  0  0  0  0
   40.3470   14.1889  -13.9408 C   0  0  0  0  0  0  0  0  0  0  0  0
   41.7470   14.2427  -13.7846 C   0  0  0  0  0  0  0  0  0  0  0  0
   42.2647   15.1393  -12.8811 C   0  0  0  0  0  0  0  0  0  0  0  0
   41.4611   15.9670  -12.1397 C   0  0  0  0  0  0  0  0  0  0  0  0
   40.0796   15.8875  -12.3199 C   0  0  0  0  0  0  0  0  0  0  0  0
   43.7486   15.1974  -12.7571 C   0  0  0  0  0  0  0  0  0  0  0  0
   44.0750   16.4076  -12.1964 F   0  0  0  0  0  0  0  0  0  0  0  0
   44.1733   14.1202  -11.9733 F   0  0  0  0  0  0  0  0  0  0  0  0
   44.3594   15.0728  -13.9762 F   0  0  0  0  0  0  0  0  0  0  0  0
   35.4485   13.0749  -14.0601 O   0  0  0  0  0  0  0  0  0  0  0  0
   35.5858   13.1958  -15.3998 C   0  0  0  0  0  0  0  0  0  0  0  0
   36.4864   12.3374  -16.1650 C   0  0  0  0  0  0  0  0  0  0  0  0
   36.0197   11.4621  -17.0938 C   0  0  0  0  0  0  0  0  0  0  0  0
   36.9186   10.6526  -17.7534 C   0  0  0  0  0  0  0  0  0  0  0  0
   38.2768   10.6679  -17.5293 C   0  0  0  0  0  0  0  0  0  0  0  0
   38.7162   11.5784  -16.5634 C   0  0  0  0  0  0  0  0  0  0  0  0
   37.8694   12.3846  -15.9036 C   0  0  0  0  0  0  0  0  0  0  0  0
  2  3  1  0  0  0
  3  1  1  0  0  0
  1 24  1  0  0  0
 24 25  1  0  0  0
 25 26  1  0  0  0
 26 27  2  0  0  0
 27 28  1  0  0  0
 28 29  2  0  0  0
 29 30  1  0  0  0
 30 31  2  0  0  0
  1 10  1  0  0  0
 10 11  2  0  0  0
 10 12  1  0  0  0
 12 14  1  0  0  0
 14 15  2  0  0  0
 15 16  1  0  0  0
 16 17  2  0  0  0
 17 18  1  0  0  0
 18 19  2  0  0  0
 17 20  1  0  0  0
 20 21  1  0  0  0
 20 22  1  0  0  0
 20 23  1  0  0  0
  3  6  1  0  0  0
  6  7  1  0  0  0
  6  8  2  0  0  0
 31 26  1  0  0  0
 19 14  1  0  0  0
  2  4  1  0  0  0
  2  5  1  0  0  0
 12 13  1  0  0  0
  7  9  1  0  0  0
M  END
> <minimizedAffinity>
-7.83835

> <CNNscore>
0.2694237530

> <CNNaffinity>
5.5330638885

> <CNN_VS>
1.4907388687

> <CNNaffinity_variance>
0.2930504382

$$$$
[H]OC(=O)[C@@]([H])(N([H])[H])[C@]([H])(OC([H])([H])c1c([H])c([H])c([H])c([H])c1[H])C(=O)N([H])c1c([H])c([H])c(C(F)(F)F)c([H])c1[H]


 31 32  0  0  0  0  0  0  0  0999 V2000
   39.5932   11.8274  -16.8032 C   0  0  0  0  0  0  0  0  0  0  0  0
   41.5647   11.7564  -18.2565 N   0  0  0  0  0  0  0  0  0  0  0  0
   40.2603   11.1869  -17.9320 C   0  0  0  0  0  0  0  0  0  0  0  0
   41.7744   11.4577  -19.2526 H   0  0  0  0  0  0  0  0  0  0  0  0
   42.2846   11.2635  -17.6856 H   0  0  0  0  0  0  0  0  0  0  0  0
   39.3618   11.1966  -19.1128 C   0  0  0  0  0  0  0  0  0  0  0  0
   38.1731   10.4919  -19.0490 O   0  0  0  0  0  0  0  0  0  0  0  0
   39.7272   11.8491  -20.1199 O   0  0  0  0  0  0  0  0  0  0  0  0
   37.3771   10.9397  -18.6528 H   0  0  0  0  0  0  0  0  0  0  0  0
   40.4328   13.0212  -16.2446 C   0  0  0  0  0  0  0  0  0  0  0  0
   40.5157   14.0365  -16.9470 O   0  0  0  0  0  0  0  0  0  0  0  0
   40.9966   12.8256  -14.9852 N   0  0  0  0  0  0  0  0  0  0  0  0
   40.8859   11.8602  -14.5132 H   0  0  0  0  0  0  0  0  0  0  0  0
   41.7311   13.7413  -14.2003 C   0  0  0  0  0  0  0  0  0  0  0  0
   43.1022   13.6342  -14.1462 C   0  0  0  0  0  0  0  0  0  0  0  0
   43.8781   14.5499  -13.4069 C   0  0  0  0  0  0  0  0  0  0  0  0
   43.2280   15.5590  -12.7379 C   0  0  0  0  0  0  0  0  0  0  0  0
   41.8634   15.6897  -12.7725 C   0  0  0  0  0  0  0  0  0  0  0  0
   41.1263   14.7658  -13.5144 C   0  0  0  0  0  0  0  0  0  0  0  0
   44.0734   16.5311  -11.9890 C   0  0  0  0  0  0  0  0  0  0  0  0
   43.5885   16.6068  -10.7065 F   0  0  0  0  0  0  0  0  0  0  0  0
   45.3999   16.0907  -12.0271 F   0  0  0  0  0  0  0  0  0  0  0  0
   44.0449   17.7715  -12.5682 F   0  0  0  0  0  0  0  0  0  0  0  0
   38.3136   12.2750  -16.9547 O   0  0  0  0  0  0  0  0  0  0  0  0
   37.5944   12.2592  -15.8097 C   0  0  0  0  0  0  0  0  0  0  0  0
   36.1833   11.8828  -15.7886 C   0  0  0  0  0  0  0  0  0  0  0  0
   35.3471   12.3055  -14.8043 C   0  0  0  0  0  0  0  0  0  0  0  0
   34.0358   11.8827  -14.8207 C   0  0  0  0  0  0  0  0  0  0  0  0
   33.5086   11.0459  -15.7783 C   0  0  0  0  0  0  0  0  0  0  0  0
   34.4019   10.6300  -16.7703 C   0  0  0  0  0  0  0  0  0  0  0  0
   35.6851   11.0243  -16.7876 C   0  0  0  0  0  0  0  0  0  0  0  0
  2  3  1  0  0  0
  3  1  1  0  0  0
  1 24  1  0  0  0
 24 25  1  0  0  0
 25 26  1  0  0  0
 26 27  2  0  0  0
 27 28  1  0  0  0
 28 29  2  0  0  0
 29 30  1  0  0  0
 30 31  2  0  0  0
  1 10  1  0  0  0
 10 11  2  0  0  0
 10 12  1  0  0  0
 12 14  1  0  0  0
 14 15  2  0  0  0
 15 16  1  0  0  0
 16 17  2  0  0  0
 17 18  1  0  0  0
 18 19  2  0  0  0
 17 20  1  0  0  0
 20 21  1  0  0  0
 20 22  1  0  0  0
 20 23  1  0  0  0
  3  6  1  0  0  0
  6  7  1  0  0  0
  6  8  2  0  0  0
 31 26  1  0  0  0
 19 14  1  0  0  0
  2  4  1  0  0  0
  2  5  1  0  0  0
 12 13  1  0  0  0
  7  9  1  0  0  0
M  END
> <minimizedAffinity>
-7.61256

> <CNNscore>
0.2651641667

> <CNNaffinity>
5.4405736923

> <CNN_VS>
1.4426451921

> <CNNaffinity_variance>
0.1741317809

$$$$
[H]OC(=O)[C@@]([H])(N([H])[H])[C@]([H])(OC([H])([H])c1c([H])c([H])c([H])c([H])c1[H])C(=O)N([H])c1c([H])c([H])c(C(F)(F)F)c([H])c1[H]


 31 32  0  0  0  0  0  0  0  0999 V2000
   35.4789   12.8867  -15.0471 C   0  0  0  0  0  0  0  0  0  0  0  0
   33.2313   13.6628  -14.4553 N   0  0  0  0  0  0  0  0  0  0  0  0
   34.0550   12.8738  -15.3665 C   0  0  0  0  0  0  0  0  0  0  0  0
   32.2392   13.3069  -14.5758 H   0  0  0  0  0  0  0  0  0  0  0  0
   33.1966   14.6410  -14.8146 H   0  0  0  0  0  0  0  0  0  0  0  0
   33.5749   11.4720  -15.4464 C   0  0  0  0  0  0  0  0  0  0  0  0
   33.3837   10.7672  -14.2716 O   0  0  0  0  0  0  0  0  0  0  0  0
   33.3639   10.9906  -16.5854 O   0  0  0  0  0  0  0  0  0  0  0  0
   32.5118   10.8593  -13.7999 H   0  0  0  0  0  0  0  0  0  0  0  0
   35.7352   13.4077  -13.5963 C   0  0  0  0  0  0  0  0  0  0  0  0
   35.4512   12.6493  -12.6608 O   0  0  0  0  0  0  0  0  0  0  0  0
   36.2829   14.6857  -13.5019 N   0  0  0  0  0  0  0  0  0  0  0  0
   36.4257   15.2556  -14.4084 H   0  0  0  0  0  0  0  0  0  0  0  0
   36.6919   15.3823  -12.3436 C   0  0  0  0  0  0  0  0  0  0  0  0
   38.0135   15.3376  -11.9620 C   0  0  0  0  0  0  0  0  0  0  0  0
   38.4733   16.0493  -10.8353 C   0  0  0  0  0  0  0  0  0  0  0  0
   37.5640   16.7939  -10.1231 C   0  0  0  0  0  0  0  0  0  0  0  0
   36.2411   16.8560  -10.4788 C   0  0  0  0  0  0  0  0  0  0  0  0
   35.8204   16.1394  -11.6000 C   0  0  0  0  0  0  0  0  0  0  0  0
   38.0814   17.5605   -8.9548 C   0  0  0  0  0  0  0  0  0  0  0  0
   38.3261   18.8457   -9.3722 F   0  0  0  0  0  0  0  0  0  0  0  0
   37.1303   17.5096   -7.9311 F   0  0  0  0  0  0  0  0  0  0  0  0
   39.2327   17.0074   -8.4615 F   0  0  0  0  0  0  0  0  0  0  0  0
   36.2029   11.7400  -15.1938 O   0  0  0  0  0  0  0  0  0  0  0  0
   37.5316   11.9103  -15.0098 C   0  0  0  0  0  0  0  0  0  0  0  0
   38.4781   11.8630  -16.1213 C   0  0  0  0  0  0  0  0  0  0  0  0
   38.2425   11.1087  -17.2269 C   0  0  0  0  0  0  0  0  0  0  0  0
   39.1937   11.0765  -18.2232 C   0  0  0  0  0  0  0  0  0  0  0  0
   40.3856   11.7637  -18.1721 C   0  0  0  0  0  0  0  0  0  0  0  0
   40.5918   12.5237  -17.0168 C   0  0  0  0  0  0  0  0  0  0  0  0
   39.6859   12.5809  -16.0277 C   0  0  0  0  0  0  0  0  0  0  0  0
  2  3  1  0  0  0
  3  1  1  0  0  0
  1 24  1  0  0  0
 24 25  1  0  0  0
 25 26  1  0  0  0
 26 27  2  0  0  0
 27 28  1  0  0  0
 28 29  2  0  0  0
 29 30  1  0  0  0
 30 31  2  0  0  0
  1 10  1  0  0  0
 10 11  2  0  0  0
 10 12  1  0  0  0
 12 14  1  0  0  0
 14 15  2  0  0  0
 15 16  1  0  0  0
 16 17  2  0  0  0
 17 18  1  0  0  0
 18 19  2  0  0  0
 17 20  1  0  0  0
 20 21  1  0  0  0
 20 22  1  0  0  0
 20 23  1  0  0  0
  3  6  1  0  0  0
  6  7  1  0  0  0
  6  8  2  0  0  0
 31 26  1  0  0  0
 19 14  1  0  0  0
  2  4  1  0  0  0
  2  5  1  0  0  0
 12 13  1  0  0  0
  7  9  1  0  0  0
M  END
> <minimizedAffinity>
-7.92754

> <CNNscore>
0.2501077354

> <CNNaffinity>
5.5051560402

> <CNN_VS>
1.3768820763

> <CNNaffinity_variance>
0.3337396085

$$$$
[H]OC([H])([H])[C@@]1([H])O[C@@]([H])(n2nc([H])c(-c3c([H])c(Cl)c([H])c(Cl)c3[H])c2[H])[C@]([H])(O[H])[C@@]([H])(O[H])[C@]1([H])O[H]


 28 30  0  0  0  0  0  0  0  0999 V2000
   39.4611   16.2786  -10.0828 C   0  0  0  0  0  0  0  0  0  0  0  0
   38.8031   15.1273  -10.5188 O   0  0  0  0  0  0  0  0  0  0  0  0
   37.7725   15.5856  -11.3729 C   0  0  0  0  0  0  0  0  0  0  0  0
   36.8176   16.4236  -10.6065 C   0  0  0  0  0  0  0  0  0  0  0  0
   36.8379   17.7674  -11.0512 O   0  0  0  0  0  0  0  0  0  0  0  0
   37.2188   16.4474   -9.1249 C   0  0  0  0  0  0  0  0  0  0  0  0
   37.1884   15.1467   -8.6686 O   0  0  0  0  0  0  0  0  0  0  0  0
   38.6151   17.0311   -9.0761 C   0  0  0  0  0  0  0  0  0  0  0  0
   38.5844   18.3594   -9.4509 O   0  0  0  0  0  0  0  0  0  0  0  0
   37.1057   17.6940  -12.0213 H   0  0  0  0  0  0  0  0  0  0  0  0
   37.7044   15.0004   -7.8441 H   0  0  0  0  0  0  0  0  0  0  0  0
   37.8375   18.8605   -9.0684 H   0  0  0  0  0  0  0  0  0  0  0  0
   37.1757   14.5206  -12.1172 N   0  0  0  0  0  0  0  0  0  0  0  0
   37.3704   14.1323  -13.3642 C   0  0  0  0  0  0  0  0  0  0  0  0
   36.5655   13.0500  -13.6509 C   0  0  0  0  0  0  0  0  0  0  0  0
   35.8677   12.8049  -12.4965 C   0  0  0  0  0  0  0  0  0  0  0  0
   36.2613   13.7105  -11.5945 N   0  0  0  0  0  0  0  0  0  0  0  0
   36.4865   12.3347  -14.9120 C   0  0  0  0  0  0  0  0  0  0  0  0
   37.5863   12.0269  -15.6834 C   0  0  0  0  0  0  0  0  0  0  0  0
   37.4906   11.3490  -16.8741 C   0  0  0  0  0  0  0  0  0  0  0  0
   38.9336   10.9867  -17.8116 Cl  0  0  0  0  0  0  0  0  0  0  0  0
   36.2417   10.9686  -17.3013 C   0  0  0  0  0  0  0  0  0  0  0  0
   35.0979   11.2497  -16.5688 C   0  0  0  0  0  0  0  0  0  0  0  0
   33.5085   10.7438  -17.1514 Cl  0  0  0  0  0  0  0  0  0  0  0  0
   35.2429   11.9276  -15.3878 C   0  0  0  0  0  0  0  0  0  0  0  0
   40.9906   16.6440   -8.2854 O   0  0  0  0  0  0  0  0  0  0  0  0
   40.8052   15.9669   -9.4839 C   0  0  0  0  0  0  0  0  0  0  0  0
   41.9018   17.0673   -8.2539 H   0  0  0  0  0  0  0  0  0  0  0  0
 26 27  1  0  0  0
 27  1  1  0  0  0
  1  2  1  0  0  0
  2  3  1  0  0  0
  3  4  1  0  0  0
  4  5  1  0  0  0
  4  6  1  0  0  0
  6  7  1  0  0  0
  6  8  1  0  0  0
  8  9  1  0  0  0
  3 13  1  0  0  0
 13 14  1  0  0  0
 14 15  2  0  0  0
 15 16  1  0  0  0
 16 17  2  0  0  0
 15 18  1  0  0  0
 18 19  2  0  0  0
 19 20  1  0  0  0
 20 21  1  0  0  0
 20 22  2  0  0  0
 22 23  1  0  0  0
 23 24  1  0  0  0
 23 25  2  0  0  0
  8  1  1  0  0  0
 17 13  1  0  0  0
 25 18  1  0  0  0
 26 28  1  0  0  0
  5 10  1  0  0  0
  7 11  1  0  0  0
  9 12  1  0  0  0
M  END
> <minimizedAffinity>
-8.84422

> <CNNscore>
0.4386203885

> <CNNaffinity>
5.3531479836

> <CNN_VS>
2.3479998112

> <CNNaffinity_variance>
0.0712713599

$$$$
[H]OC([H])([H])[C@@]1([H])O[C@@]([H])(n2nc([H])c(-c3c([H])c(Cl)c([H])c(Cl)c3[H])c2[H])[C@]([H])(O[H])[C@@]([H])(O[H])[C@]1([H])O[H]


 28 30  0  0  0  0  0  0  0  0999 V2000
   36.8015   15.3064   -9.2568 C   0  0  0  0  0  0  0  0  0  0  0  0
   37.0764   14.5582  -10.4027 O   0  0  0  0  0  0  0  0  0  0  0  0
   37.4580   15.5029  -11.3843 C   0  0  0  0  0  0  0  0  0  0  0  0
   36.3265   16.4196  -11.6690 C   0  0  0  0  0  0  0  0  0  0  0  0
   36.6234   17.7452  -11.2707 O   0  0  0  0  0  0  0  0  0  0  0  0
   35.0920   15.9878  -10.8653 C   0  0  0  0  0  0  0  0  0  0  0  0
   34.7767   14.7027  -11.2524 O   0  0  0  0  0  0  0  0  0  0  0  0
   35.4937   16.0565   -9.4070 C   0  0  0  0  0  0  0  0  0  0  0  0
   35.7088   17.3693   -9.0383 O   0  0  0  0  0  0  0  0  0  0  0  0
   37.6274   17.8009  -11.3554 H   0  0  0  0  0  0  0  0  0  0  0  0
   34.2094   14.2198  -10.6102 H   0  0  0  0  0  0  0  0  0  0  0  0
   35.0395   17.9916   -9.3850 H   0  0  0  0  0  0  0  0  0  0  0  0
   38.0333   14.8811  -12.5361 N   0  0  0  0  0  0  0  0  0  0  0  0
   37.5327   13.9843  -13.3660 C   0  0  0  0  0  0  0  0  0  0  0  0
   38.4594   13.6751  -14.3392 C   0  0  0  0  0  0  0  0  0  0  0  0
   39.5572   14.4425  -14.0473 C   0  0  0  0  0  0  0  0  0  0  0  0
   39.2641   15.1561  -12.9548 N   0  0  0  0  0  0  0  0  0  0  0  0
   38.2913   12.7347  -15.4327 C   0  0  0  0  0  0  0  0  0  0  0  0
   39.3070   12.3772  -16.2929 C   0  0  0  0  0  0  0  0  0  0  0  0
   39.1277   11.4851  -17.3218 C   0  0  0  0  0  0  0  0  0  0  0  0
   40.4657   11.0705  -18.3849 Cl  0  0  0  0  0  0  0  0  0  0  0  0
   37.8802   10.9347  -17.4884 C   0  0  0  0  0  0  0  0  0  0  0  0
   36.8189   11.2553  -16.6550 C   0  0  0  0  0  0  0  0  0  0  0  0
   35.2284   10.5264  -16.9013 Cl  0  0  0  0  0  0  0  0  0  0  0  0
   37.0454   12.1496  -15.6429 C   0  0  0  0  0  0  0  0  0  0  0  0
   35.4865   13.9214   -7.8228 O   0  0  0  0  0  0  0  0  0  0  0  0
   36.7558   14.4493   -8.0216 C   0  0  0  0  0  0  0  0  0  0  0  0
   35.2061   14.0228   -6.8628 H   0  0  0  0  0  0  0  0  0  0  0  0
 26 27  1  0  0  0
 27  1  1  0  0  0
  1  2  1  0  0  0
  2  3  1  0  0  0
  3  4  1  0  0  0
  4  5  1  0  0  0
  4  6  1  0  0  0
  6  7  1  0  0  0
  6  8  1  0  0  0
  8  9  1  0  0  0
  3 13  1  0  0  0
 13 14  1  0  0  0
 14 15  2  0  0  0
 15 16  1  0  0  0
 16 17  2  0  0  0
 15 18  1  0  0  0
 18 19  2  0  0  0
 19 20  1  0  0  0
 20 21  1  0  0  0
 20 22  2  0  0  0
 22 23  1  0  0  0
 23 24  1  0  0  0
 23 25  2  0  0  0
  8  1  1  0  0  0
 17 13  1  0  0  0
 25 18  1  0  0  0
 26 28  1  0  0  0
  5 10  1  0  0  0
  7 11  1  0  0  0
  9 12  1  0  0  0
M  END
> <minimizedAffinity>
-9.29636

> <CNNscore>
0.4244465828

> <CNNaffinity>
5.1821126938

> <CNN_VS>
2.1995301247

> <CNNaffinity_variance>
0.2281676233

$$$$
[H]OC([H])([H])[C@@]1([H])O[C@@]([H])(n2nc([H])c(-c3c([H])c(Cl)c([H])c(Cl)c3[H])c2[H])[C@]([H])(O[H])[C@@]([H])(O[H])[C@]1([H])O[H]


 28 30  0  0  0  0  0  0  0  0999 V2000
   36.7249   15.2846   -9.2211 C   0  0  0  0  0  0  0  0  0  0  0  0
   37.0098   14.5461  -10.3709 O   0  0  0  0  0  0  0  0  0  0  0  0
   37.4185   15.4971  -11.3353 C   0  0  0  0  0  0  0  0  0  0  0  0
   36.3026   16.4303  -11.6279 C   0  0  0  0  0  0  0  0  0  0  0  0
   36.6085   17.7478  -11.2097 O   0  0  0  0  0  0  0  0  0  0  0  0
   35.0501   16.0043  -10.8493 C   0  0  0  0  0  0  0  0  0  0  0  0
   34.7262   14.7274  -11.2561 O   0  0  0  0  0  0  0  0  0  0  0  0
   35.4286   16.0518   -9.3840 C   0  0  0  0  0  0  0  0  0  0  0  0
   35.6530   17.3578   -8.9969 O   0  0  0  0  0  0  0  0  0  0  0  0
   37.6142   17.7925  -11.2774 H   0  0  0  0  0  0  0  0  0  0  0  0
   34.1427   14.2441  -10.6289 H   0  0  0  0  0  0  0  0  0  0  0  0
   34.9968   17.9918   -9.3473 H   0  0  0  0  0  0  0  0  0  0  0  0
   38.0053   14.8815  -12.4846 N   0  0  0  0  0  0  0  0  0  0  0  0
   37.5156   13.9837  -13.3201 C   0  0  0  0  0  0  0  0  0  0  0  0
   38.4507   13.6824  -14.2877 C   0  0  0  0  0  0  0  0  0  0  0  0
   39.5420   14.4555  -13.9865 C   0  0  0  0  0  0  0  0  0  0  0  0
   39.2372   15.1647  -12.8943 N   0  0  0  0  0  0  0  0  0  0  0  0
   38.2956   12.7436  -15.3845 C   0  0  0  0  0  0  0  0  0  0  0  0
   37.1193   12.0800  -15.6587 C   0  0  0  0  0  0  0  0  0  0  0  0
   36.9928   11.1953  -16.7017 C   0  0  0  0  0  0  0  0  0  0  0  0
   35.4629   10.3806  -16.9984 Cl  0  0  0  0  0  0  0  0  0  0  0  0
   38.0915   10.9726  -17.4956 C   0  0  0  0  0  0  0  0  0  0  0  0
   39.3022   11.6105  -17.2696 C   0  0  0  0  0  0  0  0  0  0  0  0
   40.6934   11.2978  -18.3128 Cl  0  0  0  0  0  0  0  0  0  0  0  0
   39.3805   12.4840  -16.2178 C   0  0  0  0  0  0  0  0  0  0  0  0
   35.3497   13.9788   -7.7694 O   0  0  0  0  0  0  0  0  0  0  0  0
   36.6490   14.4142   -7.9967 C   0  0  0  0  0  0  0  0  0  0  0  0
   35.1037   14.0858   -6.8007 H   0  0  0  0  0  0  0  0  0  0  0  0
 26 27  1  0  0  0
 27  1  1  0  0  0
  1  2  1  0  0  0
  2  3  1  0  0  0
  3  4  1  0  0  0
  4  5  1  0  0  0
  4  6  1  0  0  0
  6  7  1  0  0  0
  6  8  1  0  0  0
  8  9  1  0  0  0
  3 13  1  0  0  0
 13 14  1  0  0  0
 14 15  2  0  0  0
 15 16  1  0  0  0
 16 17  2  0  0  0
 15 18  1  0  0  0
 18 19  2  0  0  0
 19 20  1  0  0  0
 20 21  1  0  0  0
 20 22  2  0  0  0
 22 23  1  0  0  0
 23 24  1  0  0  0
 23 25  2  0  0  0
  8  1  1  0  0  0
 17 13  1  0  0  0
 25 18  1  0  0  0
 26 28  1  0  0  0
  5 10  1  0  0  0
  7 11  1  0  0  0
  9 12  1  0  0  0
M  END
> <minimizedAffinity>
-9.20258

> <CNNscore>
0.4051764011

> <CNNaffinity>
5.1118445396

> <CNN_VS>
2.0711987019

> <CNNaffinity_variance>
0.2634992003

$$$$
[H]OC([H])([H])[C@@]1([H])O[C@@]([H])(n2nc([H])c(-c3c([H])c(Cl)c([H])c(Cl)c3[H])c2[H])[C@]([H])(O[H])[C@@]([H])(O[H])[C@]1([H])O[H]


 28 30  0  0  0  0  0  0  0  0999 V2000
   36.8470   17.0930   -9.8649 C   0  0  0  0  0  0  0  0  0  0  0  0
   36.5817   16.0303  -10.7301 O   0  0  0  0  0  0  0  0  0  0  0  0
   35.1711   15.9539  -10.8080 C   0  0  0  0  0  0  0  0  0  0  0  0
   34.6086   15.6376   -9.4719 C   0  0  0  0  0  0  0  0  0  0  0  0
   33.8319   16.7104   -8.9718 O   0  0  0  0  0  0  0  0  0  0  0  0
   35.7475   15.4167   -8.4667 C   0  0  0  0  0  0  0  0  0  0  0  0
   36.5067   14.3627   -8.9288 O   0  0  0  0  0  0  0  0  0  0  0  0
   36.5357   16.7091   -8.4327 C   0  0  0  0  0  0  0  0  0  0  0  0
   35.7698   17.7143   -7.8772 O   0  0  0  0  0  0  0  0  0  0  0  0
   33.4855   17.1630   -9.8044 H   0  0  0  0  0  0  0  0  0  0  0  0
   37.4114   14.3234   -8.5449 H   0  0  0  0  0  0  0  0  0  0  0  0
   35.2644   17.4356   -7.0883 H   0  0  0  0  0  0  0  0  0  0  0  0
   34.7352   15.0936  -11.8636 N   0  0  0  0  0  0  0  0  0  0  0  0
   35.4302   14.3635  -12.7165 C   0  0  0  0  0  0  0  0  0  0  0  0
   34.5761   13.6897  -13.5638 C   0  0  0  0  0  0  0  0  0  0  0  0
   33.3153   14.0576  -13.1708 C   0  0  0  0  0  0  0  0  0  0  0  0
   33.4503   14.9041  -12.1442 N   0  0  0  0  0  0  0  0  0  0  0  0
   34.9497   12.7869  -14.6378 C   0  0  0  0  0  0  0  0  0  0  0  0
   34.0383   12.0666  -15.3794 C   0  0  0  0  0  0  0  0  0  0  0  0
   34.4121   11.2173  -16.3920 C   0  0  0  0  0  0  0  0  0  0  0  0
   33.1988   10.3265  -17.3013 Cl  0  0  0  0  0  0  0  0  0  0  0  0
   35.7522   11.0904  -16.6659 C   0  0  0  0  0  0  0  0  0  0  0  0
   36.7164   11.7889  -15.9545 C   0  0  0  0  0  0  0  0  0  0  0  0
   38.4310   11.5992  -16.3363 Cl  0  0  0  0  0  0  0  0  0  0  0  0
   36.2960   12.6239  -14.9538 C   0  0  0  0  0  0  0  0  0  0  0  0
   38.5082   18.6437   -9.1303 O   0  0  0  0  0  0  0  0  0  0  0  0
   38.2733   17.5598   -9.9665 C   0  0  0  0  0  0  0  0  0  0  0  0
   39.0181   19.3620   -9.6147 H   0  0  0  0  0  0  0  0  0  0  0  0
 26 27  1  0  0  0
 27  1  1  0  0  0
  1  2  1  0  0  0
  2  3  1  0  0  0
  3  4  1  0  0  0
  4  5  1  0  0  0
  4  6  1  0  0  0
  6  7  1  0  0  0
  6  8  1  0  0  0
  8  9  1  0  0  0
  3 13  1  0  0  0
 13 14  1  0  0  0
 14 15  2  0  0  0
 15 16  1  0  0  0
 16 17  2  0  0  0
 15 18  1  0  0  0
 18 19  2  0  0  0
 19 20  1  0  0  0
 20 21  1  0  0  0
 20 22  2  0  0  0
 22 23  1  0  0  0
 23 24  1  0  0  0
 23 25  2  0  0  0
  8  1  1  0  0  0
 17 13  1  0  0  0
 25 18  1  0  0  0
 26 28  1  0  0  0
  5 10  1  0  0  0
  7 11  1  0  0  0
  9 12  1  0  0  0
M  END
> <minimizedAffinity>
-8.14439

> <CNNscore>
0.3810217977

> <CNNaffinity>
5.2532272339

> <CNN_VS>
2.0015940666

> <CNNaffinity_variance>
0.3178192675

$$$$
[H]OC([H])([H])[C@@]1([H])O[C@@]([H])(n2nc([H])c(-c3c([H])c(Cl)c([H])c(Cl)c3[H])c2[H])[C@]([H])(O[H])[C@@]([H])(O[H])[C@]1([H])O[H]


 28 30  0  0  0  0  0  0  0  0999 V2000
   44.3958   16.1984  -12.5876 C   0  0  0  0  0  0  0  0  0  0  0  0
   43.9818   15.4439  -13.6866 O   0  0  0  0  0  0  0  0  0  0  0  0
   43.0621   14.5016  -13.1690 C   0  0  0  0  0  0  0  0  0  0  0  0
   43.7463   13.6075  -12.2025 C   0  0  0  0  0  0  0  0  0  0  0  0
   43.2437   13.7841  -10.8909 O   0  0  0  0  0  0  0  0  0  0  0  0
   45.2421   13.9482  -12.1470 C   0  0  0  0  0  0  0  0  0  0  0  0
   45.7538   13.7655  -13.4141 O   0  0  0  0  0  0  0  0  0  0  0  0
   45.3285   15.3939  -11.7054 C   0  0  0  0  0  0  0  0  0  0  0  0
   44.8941   15.5154  -10.4007 O   0  0  0  0  0  0  0  0  0  0  0  0
   42.2911   14.0823  -11.0382 H   0  0  0  0  0  0  0  0  0  0  0  0
   46.6067   14.2296  -13.5714 H   0  0  0  0  0  0  0  0  0  0  0  0
   45.2196   14.8090   -9.8088 H   0  0  0  0  0  0  0  0  0  0  0  0
   42.3394   13.8293  -14.2034 N   0  0  0  0  0  0  0  0  0  0  0  0
   41.0583   13.5221  -14.2934 C   0  0  0  0  0  0  0  0  0  0  0  0
   40.8137   12.8689  -15.4829 C   0  0  0  0  0  0  0  0  0  0  0  0
   42.0301   12.7984  -16.1112 C   0  0  0  0  0  0  0  0  0  0  0  0
   42.9255   13.3871  -15.3109 N   0  0  0  0  0  0  0  0  0  0  0  0
   39.5343   12.3691  -15.9535 C   0  0  0  0  0  0  0  0  0  0  0  0
   39.3595   11.7519  -17.1733 C   0  0  0  0  0  0  0  0  0  0  0  0
   38.1402   11.2856  -17.6004 C   0  0  0  0  0  0  0  0  0  0  0  0
   37.9841   10.5064  -19.1691 Cl  0  0  0  0  0  0  0  0  0  0  0  0
   37.0598   11.4478  -16.7677 C   0  0  0  0  0  0  0  0  0  0  0  0
   37.1731   12.0609  -15.5288 C   0  0  0  0  0  0  0  0  0  0  0  0
   35.7598   12.2513  -14.4856 Cl  0  0  0  0  0  0  0  0  0  0  0  0
   38.4089   12.5098  -15.1457 C   0  0  0  0  0  0  0  0  0  0  0  0
   45.4901   17.4171  -14.3258 O   0  0  0  0  0  0  0  0  0  0  0  0
   45.0687   17.4778  -13.0037 C   0  0  0  0  0  0  0  0  0  0  0  0
   46.4298   17.7628  -14.4152 H   0  0  0  0  0  0  0  0  0  0  0  0
 26 27  1  0  0  0
 27  1  1  0  0  0
  1  2  1  0  0  0
  2  3  1  0  0  0
  3  4  1  0  0  0
  4  5  1  0  0  0
  4  6  1  0  0  0
  6  7  1  0  0  0
  6  8  1  0  0  0
  8  9  1  0  0  0
  3 13  1  0  0  0
 13 14  1  0  0  0
 14 15  2  0  0  0
 15 16  1  0  0  0
 16 17  2  0  0  0
 15 18  1  0  0  0
 18 19  2  0  0  0
 19 20  1  0  0  0
 20 21  1  0  0  0
 20 22  2  0  0  0
 22 23  1  0  0  0
 23 24  1  0  0  0
 23 25  2  0  0  0
  8  1  1  0  0  0
 17 13  1  0  0  0
 25 18  1  0  0  0
 26 28  1  0  0  0
  5 10  1  0  0  0
  7 11  1  0  0  0
  9 12  1  0  0  0
M  END
> <minimizedAffinity>
-7.61556

> <CNNscore>
0.3765709698

> <CNNaffinity>
5.1928930283

> <CNN_VS>
1.9554927349

> <CNNaffinity_variance>
0.1856919080

$$$$
[H]OC([H])([H])[C@@]1([H])O[C@@]([H])(n2nc([H])c(-c3c([H])c(Cl)c([H])c(Cl)c3[H])c2[H])[C@]([H])(O[H])[C@@]([H])(O[H])[C@]1([H])O[H]


 28 30  0  0  0  0  0  0  0  0999 V2000
   37.0183   17.5123  -10.1401 C   0  0  0  0  0  0  0  0  0  0  0  0
   37.7747   16.6092  -10.8889 O   0  0  0  0  0  0  0  0  0  0  0  0
   36.8319   15.8289  -11.5987 C   0  0  0  0  0  0  0  0  0  0  0  0
   35.9844   15.0711  -10.6451 C   0  0  0  0  0  0  0  0  0  0  0  0
   34.6363   15.5000  -10.6992 O   0  0  0  0  0  0  0  0  0  0  0  0
   36.4654   15.3212   -9.2090 C   0  0  0  0  0  0  0  0  0  0  0  0
   37.7738   14.8933   -9.1320 O   0  0  0  0  0  0  0  0  0  0  0  0
   36.3438   16.8126   -8.9778 C   0  0  0  0  0  0  0  0  0  0  0  0
   35.0137   17.1818   -8.9698 O   0  0  0  0  0  0  0  0  0  0  0  0
   34.5279   15.8283  -11.6471 H   0  0  0  0  0  0  0  0  0  0  0  0
   38.2731   15.2690   -8.3724 H   0  0  0  0  0  0  0  0  0  0  0  0
   34.4363   16.5674   -8.4752 H   0  0  0  0  0  0  0  0  0  0  0  0
   37.4459   15.0372  -12.6187 N   0  0  0  0  0  0  0  0  0  0  0  0
   36.9150   14.1944  -13.4856 C   0  0  0  0  0  0  0  0  0  0  0  0
   37.9024   13.6568  -14.2840 C   0  0  0  0  0  0  0  0  0  0  0  0
   39.0695   14.2275  -13.8461 C   0  0  0  0  0  0  0  0  0  0  0  0
   38.7557   15.0535  -12.8422 N   0  0  0  0  0  0  0  0  0  0  0  0
   37.7258   12.6928  -15.3553 C   0  0  0  0  0  0  0  0  0  0  0  0
   36.5213   12.0896  -15.6464 C   0  0  0  0  0  0  0  0  0  0  0  0
   36.3747   11.1796  -16.6648 C   0  0  0  0  0  0  0  0  0  0  0  0
   34.8093   10.4454  -16.9851 Cl  0  0  0  0  0  0  0  0  0  0  0  0
   37.4821   10.8675  -17.4154 C   0  0  0  0  0  0  0  0  0  0  0  0
   38.7207   11.4414  -17.1705 C   0  0  0  0  0  0  0  0  0  0  0  0
   40.1222   11.0144  -18.1580 Cl  0  0  0  0  0  0  0  0  0  0  0  0
   38.8184   12.3433  -16.1446 C   0  0  0  0  0  0  0  0  0  0  0  0
   37.0686   19.5817   -8.9490 O   0  0  0  0  0  0  0  0  0  0  0  0
   37.8500   18.6570   -9.6298 C   0  0  0  0  0  0  0  0  0  0  0  0
   37.2939   20.5179   -9.2376 H   0  0  0  0  0  0  0  0  0  0  0  0
 26 27  1  0  0  0
 27  1  1  0  0  0
  1  2  1  0  0  0
  2  3  1  0  0  0
  3  4  1  0  0  0
  4  5  1  0  0  0
  4  6  1  0  0  0
  6  7  1  0  0  0
  6  8  1  0  0  0
  8  9  1  0  0  0
  3 13  1  0  0  0
 13 14  1  0  0  0
 14 15  2  0  0  0
 15 16  1  0  0  0
 16 17  2  0  0  0
 15 18  1  0  0  0
 18 19  2  0  0  0
 19 20  1  0  0  0
 20 21  1  0  0  0
 20 22  2  0  0  0
 22 23  1  0  0  0
 23 24  1  0  0  0
 23 25  2  0  0  0
  8  1  1  0  0  0
 17 13  1  0  0  0
 25 18  1  0  0  0
 26 28  1  0  0  0
  5 10  1  0  0  0
  7 11  1  0  0  0
  9 12  1  0  0  0
M  END
> <minimizedAffinity>
-8.65349

> <CNNscore>
0.3720933199

> <CNNaffinity>
5.1847352982

> <CNN_VS>
1.9292054176

> <CNNaffinity_variance>
0.1749447137

$$$$
[H]OC([H])([H])[C@@]1([H])O[C@@]([H])(n2nc([H])c(-c3c([H])c(Cl)c([H])c(Cl)c3[H])c2[H])[C@]([H])(O[H])[C@@]([H])(O[H])[C@]1([H])O[H]


 28 30  0  0  0  0  0  0  0  0999 V2000
   39.3747   16.2657  -10.1603 C   0  0  0  0  0  0  0  0  0  0  0  0
   38.6189   15.1978  -10.6468 O   0  0  0  0  0  0  0  0  0  0  0  0
   37.5703   15.7890  -11.3902 C   0  0  0  0  0  0  0  0  0  0  0  0
   36.7193   16.6117  -10.4954 C   0  0  0  0  0  0  0  0  0  0  0  0
   36.7993   17.9857  -10.8266 O   0  0  0  0  0  0  0  0  0  0  0  0
   37.2099   16.4820   -9.0466 C   0  0  0  0  0  0  0  0  0  0  0  0
   37.1233   15.1505   -8.6995 O   0  0  0  0  0  0  0  0  0  0  0  0
   38.6412   16.9758   -9.0409 C   0  0  0  0  0  0  0  0  0  0  0  0
   38.6736   18.3313   -9.3005 O   0  0  0  0  0  0  0  0  0  0  0  0
   37.0028   17.9817  -11.8149 H   0  0  0  0  0  0  0  0  0  0  0  0
   37.6776   14.9024   -7.9258 H   0  0  0  0  0  0  0  0  0  0  0  0
   37.9849   18.8402   -8.8293 H   0  0  0  0  0  0  0  0  0  0  0  0
   36.8624   14.8303  -12.1802 N   0  0  0  0  0  0  0  0  0  0  0  0
   37.1993   14.2331  -13.3086 C   0  0  0  0  0  0  0  0  0  0  0  0
   36.1933   13.3780  -13.7067 C   0  0  0  0  0  0  0  0  0  0  0  0
   35.2217   13.4940  -12.7465 C   0  0  0  0  0  0  0  0  0  0  0  0
   35.6594   14.3775  -11.8430 N   0  0  0  0  0  0  0  0  0  0  0  0
   36.1823   12.5408  -14.8930 C   0  0  0  0  0  0  0  0  0  0  0  0
   35.0329   12.0205  -15.4475 C   0  0  0  0  0  0  0  0  0  0  0  0
   35.0435   11.2303  -16.5709 C   0  0  0  0  0  0  0  0  0  0  0  0
   33.5408   10.5973  -17.2292 Cl  0  0  0  0  0  0  0  0  0  0  0  0
   36.2561   10.9555  -17.1549 C   0  0  0  0  0  0  0  0  0  0  0  0
   37.4465   11.4503  -16.6431 C   0  0  0  0  0  0  0  0  0  0  0  0
   38.9870   11.0747  -17.4226 Cl  0  0  0  0  0  0  0  0  0  0  0  0
   37.3862   12.2337  -15.5216 C   0  0  0  0  0  0  0  0  0  0  0  0
   40.6413   14.6575   -8.9302 O   0  0  0  0  0  0  0  0  0  0  0  0
   40.7297   15.8240   -9.6790 C   0  0  0  0  0  0  0  0  0  0  0  0
   41.1878   14.7326   -8.0899 H   0  0  0  0  0  0  0  0  0  0  0  0
 26 27  1  0  0  0
 27  1  1  0  0  0
  1  2  1  0  0  0
  2  3  1  0  0  0
  3  4  1  0  0  0
  4  5  1  0  0  0
  4  6  1  0  0  0
  6  7  1  0  0  0
  6  8  1  0  0  0
  8  9  1  0  0  0
  3 13  1  0  0  0
 13 14  1  0  0  0
 14 15  2  0  0  0
 15 16  1  0  0  0
 16 17  2  0  0  0
 15 18  1  0  0  0
 18 19  2  0  0  0
 19 20  1  0  0  0
 20 21  1  0  0  0
 20 22  2  0  0  0
 22 23  1  0  0  0
 23 24  1  0  0  0
 23 25  2  0  0  0
  8  1  1  0  0  0
 17 13  1  0  0  0
 25 18  1  0  0  0
 26 28  1  0  0  0
  5 10  1  0  0  0
  7 11  1  0  0  0
  9 12  1  0  0  0
M  END
> <minimizedAffinity>
-8.53617

> <CNNscore>
0.3711785674

> <CNNaffinity>
5.2926788330

> <CNN_VS>
1.9645289183

> <CNNaffinity_variance>
0.1068447977

$$$$
[H]OC([H])([H])[C@@]1([H])O[C@@]([H])(n2nc([H])c(-c3c([H])c(Cl)c([H])c(Cl)c3[H])c2[H])[C@]([H])(O[H])[C@@]([H])(O[H])[C@]1([H])O[H]


 28 30  0  0  0  0  0  0  0  0999 V2000
   44.5224   13.8233  -14.2293 C   0  0  0  0  0  0  0  0  0  0  0  0
   43.1962   13.4058  -14.1053 O   0  0  0  0  0  0  0  0  0  0  0  0
   42.4645   14.5731  -13.7831 C   0  0  0  0  0  0  0  0  0  0  0  0
   42.9228   15.1115  -12.4786 C   0  0  0  0  0  0  0  0  0  0  0  0
   43.5410   16.3760  -12.6306 O   0  0  0  0  0  0  0  0  0  0  0  0
   43.9801   14.1780  -11.8726 C   0  0  0  0  0  0  0  0  0  0  0  0
   43.3905   12.9436  -11.7012 O   0  0  0  0  0  0  0  0  0  0  0  0
   45.1182   14.1273  -12.8699 C   0  0  0  0  0  0  0  0  0  0  0  0
   45.7388   15.3585  -12.9405 O   0  0  0  0  0  0  0  0  0  0  0  0
   43.0925   16.7646  -13.4467 H   0  0  0  0  0  0  0  0  0  0  0  0
   44.0320   12.2038  -11.6085 H   0  0  0  0  0  0  0  0  0  0  0  0
   45.8772   15.7814  -12.0703 H   0  0  0  0  0  0  0  0  0  0  0  0
   41.0531   14.3709  -13.8885 N   0  0  0  0  0  0  0  0  0  0  0  0
   40.3617   13.5185  -14.6227 C   0  0  0  0  0  0  0  0  0  0  0  0
   39.0124   13.6879  -14.3947 C   0  0  0  0  0  0  0  0  0  0  0  0
   38.9275   14.6997  -13.4735 C   0  0  0  0  0  0  0  0  0  0  0  0
   40.1764   15.0865  -13.1920 N   0  0  0  0  0  0  0  0  0  0  0  0
   37.9266   12.9444  -15.0083 C   0  0  0  0  0  0  0  0  0  0  0  0
   36.6287   12.9699  -14.5453 C   0  0  0  0  0  0  0  0  0  0  0  0
   35.6152   12.2591  -15.1403 C   0  0  0  0  0  0  0  0  0  0  0  0
   33.9790   12.3347  -14.5002 Cl  0  0  0  0  0  0  0  0  0  0  0  0
   35.9219   11.4961  -16.2406 C   0  0  0  0  0  0  0  0  0  0  0  0
   37.2092   11.4302  -16.7528 C   0  0  0  0  0  0  0  0  0  0  0  0
   37.5648   10.4371  -18.1702 Cl  0  0  0  0  0  0  0  0  0  0  0  0
   38.1868   12.1562  -16.1262 C   0  0  0  0  0  0  0  0  0  0  0  0
   46.1435   12.0798  -14.0392 O   0  0  0  0  0  0  0  0  0  0  0  0
   45.3704   12.8031  -14.9383 C   0  0  0  0  0  0  0  0  0  0  0  0
   47.0912   12.0048  -14.3658 H   0  0  0  0  0  0  0  0  0  0  0  0
 26 27  1  0  0  0
 27  1  1  0  0  0
  1  2  1  0  0  0
  2  3  1  0  0  0
  3  4  1  0  0  0
  4  5  1  0  0  0
  4  6  1  0  0  0
  6  7  1  0  0  0
  6  8  1  0  0  0
  8  9  1  0  0  0
  3 13  1  0  0  0
 13 14  1  0  0  0
 14 15  2  0  0  0
 15 16  1  0  0  0
 16 17  2  0  0  0
 15 18  1  0  0  0
 18 19  2  0  0  0
 19 20  1  0  0  0
 20 21  1  0  0  0
 20 22  2  0  0  0
 22 23  1  0  0  0
 23 24  1  0  0  0
 23 25  2  0  0  0
  8  1  1  0  0  0
 17 13  1  0  0  0
 25 18  1  0  0  0
 26 28  1  0  0  0
  5 10  1  0  0  0
  7 11  1  0  0  0
  9 12  1  0  0  0
M  END
> <minimizedAffinity>
-7.62284

> <CNNscore>
0.3600346744

> <CNNaffinity>
5.3999700546

> <CNN_VS>
1.9441764355

> <CNNaffinity_variance>
0.1513260156

$$$$
[H]OC([H])([H])[C@@]1([H])O[C@@]([H])(n2nc([H])c(-c3c([H])c(Cl)c([H])c(Cl)c3[H])c2[H])[C@]([H])(O[H])[C@@]([H])(O[H])[C@]1([H])O[H]


 28 30  0  0  0  0  0  0  0  0999 V2000
   37.1063   16.9176  -10.3774 C   0  0  0  0  0  0  0  0  0  0  0  0
   37.7413   15.8359  -10.9900 O   0  0  0  0  0  0  0  0  0  0  0  0
   36.7269   15.1678  -11.7154 C   0  0  0  0  0  0  0  0  0  0  0  0
   35.6948   14.6532  -10.7818 C   0  0  0  0  0  0  0  0  0  0  0  0
   34.4508   15.2990  -10.9807 O   0  0  0  0  0  0  0  0  0  0  0  0
   36.1116   14.9442   -9.3333 C   0  0  0  0  0  0  0  0  0  0  0  0
   37.3152   14.3082   -9.1149 O   0  0  0  0  0  0  0  0  0  0  0  0
   36.2398   16.4491   -9.2262 C   0  0  0  0  0  0  0  0  0  0  0  0
   34.9985   17.0388   -9.3575 O   0  0  0  0  0  0  0  0  0  0  0  0
   34.4681   15.5555  -11.9565 H   0  0  0  0  0  0  0  0  0  0  0  0
   37.8191   14.6593   -8.3467 H   0  0  0  0  0  0  0  0  0  0  0  0
   34.2888   16.5781   -8.8682 H   0  0  0  0  0  0  0  0  0  0  0  0
   37.2606   14.1956  -12.6178 N   0  0  0  0  0  0  0  0  0  0  0  0
   38.2144   14.3007  -13.5249 C   0  0  0  0  0  0  0  0  0  0  0  0
   38.3913   13.0914  -14.1635 C   0  0  0  0  0  0  0  0  0  0  0  0
   37.4824   12.2431  -13.5858 C   0  0  0  0  0  0  0  0  0  0  0  0
   36.8191   12.9430  -12.6590 N   0  0  0  0  0  0  0  0  0  0  0  0
   39.3422   12.7971  -15.2206 C   0  0  0  0  0  0  0  0  0  0  0  0
   39.0064   12.1456  -16.3877 C   0  0  0  0  0  0  0  0  0  0  0  0
   39.9212   11.8765  -17.3763 C   0  0  0  0  0  0  0  0  0  0  0  0
   39.4281   11.0412  -18.8431 Cl  0  0  0  0  0  0  0  0  0  0  0  0
   41.2199   12.2788  -17.1804 C   0  0  0  0  0  0  0  0  0  0  0  0
   41.6183   12.9382  -16.0270 C   0  0  0  0  0  0  0  0  0  0  0  0
   43.2985   13.4401  -15.8113 Cl  0  0  0  0  0  0  0  0  0  0  0  0
   40.6710   13.1846  -15.0692 C   0  0  0  0  0  0  0  0  0  0  0  0
   37.6583   19.2325  -10.1769 O   0  0  0  0  0  0  0  0  0  0  0  0
   38.0899   17.9445   -9.8869 C   0  0  0  0  0  0  0  0  0  0  0  0
   38.4085   19.7802  -10.5613 H   0  0  0  0  0  0  0  0  0  0  0  0
 26 27  1  0  0  0
 27  1  1  0  0  0
  1  2  1  0  0  0
  2  3  1  0  0  0
  3  4  1  0  0  0
  4  5  1  0  0  0
  4  6  1  0  0  0
  6  7  1  0  0  0
  6  8  1  0  0  0
  8  9  1  0  0  0
  3 13  1  0  0  0
 13 14  1  0  0  0
 14 15  2  0  0  0
 15 16  1  0  0  0
 16 17  2  0  0  0
 15 18  1  0  0  0
 18 19  2  0  0  0
 19 20  1  0  0  0
 20 21  1  0  0  0
 20 22  2  0  0  0
 22 23  1  0  0  0
 23 24  1  0  0  0
 23 25  2  0  0  0
  8  1  1  0  0  0
 17 13  1  0  0  0
 25 18  1  0  0  0
 26 28  1  0  0  0
  5 10  1  0  0  0
  7 11  1  0  0  0
  9 12  1  0  0  0
M  END
> <minimizedAffinity>
-8.48695

> <CNNscore>
0.3506779969

> <CNNaffinity>
5.0596184731

> <CNN_VS>
1.7742968798

> <CNNaffinity_variance>
0.2810139656

$$$$
[H]c1nc([C@@]2([H])C([H])([H])[C@]2([H])C([H])([H])Oc2nc(C([H])([H])[H])nc([H])c2-c2c([H])c([H])n(C([H])([H])[H])c(=O)c2[H])c([H])c([H])c1OC([H])([H])[H]


 28 31  0  0  0  0  0  0  0  0999 V2000
   38.9214   11.9991  -16.3755 C   0  0  0  0  0  0  0  0  0  0  0  0
   38.4461   11.3558  -17.4580 N   0  0  0  0  0  0  0  0  0  0  0  0
   39.0730   11.2803  -18.6244 C   0  0  0  0  0  0  0  0  0  0  0  0
   38.5127   10.5536  -19.8112 C   0  0  0  0  0  0  0  0  0  0  0  0
   40.2681   11.8824  -18.7535 N   0  0  0  0  0  0  0  0  0  0  0  0
   40.8247   12.5553  -17.7117 C   0  0  0  0  0  0  0  0  0  0  0  0
   40.1457   12.6165  -16.5061 C   0  0  0  0  0  0  0  0  0  0  0  0
   40.7102   13.3250  -15.3668 C   0  0  0  0  0  0  0  0  0  0  0  0
   41.9419   13.0383  -14.8190 C   0  0  0  0  0  0  0  0  0  0  0  0
   42.4096   13.7435  -13.7459 C   0  0  0  0  0  0  0  0  0  0  0  0
   41.7193   14.7278  -13.1776 N   0  0  0  0  0  0  0  0  0  0  0  0
   42.2713   15.4307  -12.0488 C   0  0  0  0  0  0  0  0  0  0  0  0
   40.5092   15.0456  -13.6775 C   0  0  0  0  0  0  0  0  0  0  0  0
   39.8865   15.9853  -13.1100 O   0  0  0  0  0  0  0  0  0  0  0  0
   39.9921   14.3622  -14.7618 C   0  0  0  0  0  0  0  0  0  0  0  0
   38.2697   12.0728  -15.1781 O   0  0  0  0  0  0  0  0  0  0  0  0
   36.9052   11.9553  -14.9548 C   0  0  0  0  0  0  0  0  0  0  0  0
   37.0659   13.0986  -12.6815 C   0  0  0  0  0  0  0  0  0  0  0  0
   35.7512   12.3582  -12.7317 C   0  0  0  0  0  0  0  0  0  0  0  0
   36.3458   12.9669  -13.9827 C   0  0  0  0  0  0  0  0  0  0  0  0
   36.8904   16.7657  -10.4656 C   0  0  0  0  0  0  0  0  0  0  0  0
   36.0388   16.5325  -11.5358 C   0  0  0  0  0  0  0  0  0  0  0  0
   36.0874   15.3619  -12.2512 C   0  0  0  0  0  0  0  0  0  0  0  0
   36.9980   14.3735  -11.9185 C   0  0  0  0  0  0  0  0  0  0  0  0
   37.8200   14.6054  -10.8810 N   0  0  0  0  0  0  0  0  0  0  0  0
   37.7808   15.7485  -10.1736 C   0  0  0  0  0  0  0  0  0  0  0  0
   38.0762   18.5905   -9.4539 C   0  0  0  0  0  0  0  0  0  0  0  0
   36.8492   17.9458   -9.7360 O   0  0  0  0  0  0  0  0  0  0  0  0
 27 28  1  0  0  0
 28 21  1  0  0  0
 21 22  2  0  0  0
 22 23  1  0  0  0
 23 24  2  0  0  0
 24 25  1  0  0  0
 25 26  2  0  0  0
 24 18  1  0  0  0
 18 19  1  0  0  0
 19 20  1  0  0  0
 20 17  1  0  0  0
 17 16  1  0  0  0
 16  1  1  0  0  0
  1  2  2  0  0  0
  2  3  1  0  0  0
  3  4  1  0  0  0
  3  5  2  0  0  0
  5  6  1  0  0  0
  6  7  2  0  0  0
  7  8  1  0  0  0
  8  9  1  0  0  0
  9 10  2  0  0  0
 10 11  1  0  0  0
 11 12  1  0  0  0
 11 13  1  0  0  0
 13 14  2  0  0  0
 13 15  1  0  0  0
 26 21  1  0  0  0
 20 18  1  0  0  0
  7  1  1  0  0  0
 15  8  2  0  0  0
M  END
> <minimizedAffinity>
-8.02890

> <CNNscore>
0.6963723302

> <CNNaffinity>
6.8221688271

> <CNN_VS>
4.7507696152

> <CNNaffinity_variance>
0.1752442420

$$$$
[H]c1nc([C@@]2([H])C([H])([H])[C@]2([H])C([H])([H])Oc2nc(C([H])([H])[H])nc([H])c2-c2c([H])c([H])n(C([H])([H])[H])c(=O)c2[H])c([H])c([H])c1OC([H])([H])[H]


 28 31  0  0  0  0  0  0  0  0999 V2000
   41.1931   14.7570  -13.7551 C   0  0  0  0  0  0  0  0  0  0  0  0
   42.0471   15.4167  -12.9506 N   0  0  0  0  0  0  0  0  0  0  0  0
   43.3425   15.1508  -12.8482 C   0  0  0  0  0  0  0  0  0  0  0  0
   44.2658   15.9079  -11.9400 C   0  0  0  0  0  0  0  0  0  0  0  0
   43.8567   14.1562  -13.5923 N   0  0  0  0  0  0  0  0  0  0  0  0
   43.0675   13.4362  -14.4330 C   0  0  0  0  0  0  0  0  0  0  0  0
   41.7184   13.7376  -14.5181 C   0  0  0  0  0  0  0  0  0  0  0  0
   40.8417   12.9914  -15.4087 C   0  0  0  0  0  0  0  0  0  0  0  0
   39.6891   12.3579  -14.9968 C   0  0  0  0  0  0  0  0  0  0  0  0
   38.9132   11.6718  -15.8881 C   0  0  0  0  0  0  0  0  0  0  0  0
   39.2168   11.5758  -17.1793 N   0  0  0  0  0  0  0  0  0  0  0  0
   38.3549   10.8370  -18.0648 C   0  0  0  0  0  0  0  0  0  0  0  0
   40.3341   12.1785  -17.6305 C   0  0  0  0  0  0  0  0  0  0  0  0
   40.5866   12.0638  -18.8618 O   0  0  0  0  0  0  0  0  0  0  0  0
   41.1521   12.8846  -16.7688 C   0  0  0  0  0  0  0  0  0  0  0  0
   39.8604   15.0363  -13.8547 O   0  0  0  0  0  0  0  0  0  0  0  0
   38.9698   15.2674  -12.8160 C   0  0  0  0  0  0  0  0  0  0  0  0
   36.7054   14.8075  -13.8939 C   0  0  0  0  0  0  0  0  0  0  0  0
   36.4634   15.1465  -12.4427 C   0  0  0  0  0  0  0  0  0  0  0  0
   37.7204   14.4206  -12.8695 C   0  0  0  0  0  0  0  0  0  0  0  0
   33.9658   11.8824  -15.4193 C   0  0  0  0  0  0  0  0  0  0  0  0
   35.2565   11.9855  -15.9178 C   0  0  0  0  0  0  0  0  0  0  0  0
   36.1407   12.9187  -15.4360 C   0  0  0  0  0  0  0  0  0  0  0  0
   35.7618   13.7899  -14.4289 C   0  0  0  0  0  0  0  0  0  0  0  0
   34.5106   13.6849  -13.9503 N   0  0  0  0  0  0  0  0  0  0  0  0
   33.6365   12.7745  -14.4151 C   0  0  0  0  0  0  0  0  0  0  0  0
   33.2482   10.4659  -17.2187 C   0  0  0  0  0  0  0  0  0  0  0  0
   33.0645   10.9425  -15.8997 O   0  0  0  0  0  0  0  0  0  0  0  0
 27 28  1  0  0  0
 28 21  1  0  0  0
 21 22  2  0  0  0
 22 23  1  0  0  0
 23 24  2  0  0  0
 24 25  1  0  0  0
 25 26  2  0  0  0
 24 18  1  0  0  0
 18 19  1  0  0  0
 19 20  1  0  0  0
 20 17  1  0  0  0
 17 16  1  0  0  0
 16  1  1  0  0  0
  1  2  2  0  0  0
  2  3  1  0  0  0
  3  4  1  0  0  0
  3  5  2  0  0  0
  5  6  1  0  0  0
  6  7  2  0  0  0
  7  8  1  0  0  0
  8  9  1  0  0  0
  9 10  2  0  0  0
 10 11  1  0  0  0
 11 12  1  0  0  0
 11 13  1  0  0  0
 13 14  2  0  0  0
 13 15  1  0  0  0
 26 21  1  0  0  0
 20 18  1  0  0  0
  7  1  1  0  0  0
 15  8  2  0  0  0
M  END
> <minimizedAffinity>
-8.23121

> <CNNscore>
0.6337504983

> <CNNaffinity>
7.3469605446

> <CNN_VS>
4.6561398506

> <CNNaffinity_variance>
0.1302171499

$$$$
[H]c1nc([C@@]2([H])C([H])([H])[C@]2([H])C([H])([H])Oc2nc(C([H])([H])[H])nc([H])c2-c2c([H])c([H])n(C([H])([H])[H])c(=O)c2[H])c([H])c([H])c1OC([H])([H])[H]


 28 31  0  0  0  0  0  0  0  0999 V2000
   38.8119   12.0838  -16.0997 C   0  0  0  0  0  0  0  0  0  0  0  0
   38.4304   11.3753  -17.1787 N   0  0  0  0  0  0  0  0  0  0  0  0
   39.0872   11.3457  -18.3306 C   0  0  0  0  0  0  0  0  0  0  0  0
   38.6323   10.5434  -19.5138 C   0  0  0  0  0  0  0  0  0  0  0  0
   40.2154   12.0675  -18.4476 N   0  0  0  0  0  0  0  0  0  0  0  0
   40.6755   12.8133  -17.4083 C   0  0  0  0  0  0  0  0  0  0  0  0
   39.9675   12.8240  -16.2180 C   0  0  0  0  0  0  0  0  0  0  0  0
   40.4296   13.6076  -15.0818 C   0  0  0  0  0  0  0  0  0  0  0  0
   39.6581   14.5485  -14.4345 C   0  0  0  0  0  0  0  0  0  0  0  0
   40.1577   15.2508  -13.3740 C   0  0  0  0  0  0  0  0  0  0  0  0
   41.3921   15.0728  -12.9124 N   0  0  0  0  0  0  0  0  0  0  0  0
   41.8557   15.8467  -11.7904 C   0  0  0  0  0  0  0  0  0  0  0  0
   42.1852   14.1637  -13.5122 C   0  0  0  0  0  0  0  0  0  0  0  0
   43.3490   14.0248  -13.0442 O   0  0  0  0  0  0  0  0  0  0  0  0
   41.7264   13.4278  -14.5885 C   0  0  0  0  0  0  0  0  0  0  0  0
   38.1299   12.1096  -14.9173 O   0  0  0  0  0  0  0  0  0  0  0  0
   36.7550   12.0566  -14.7384 C   0  0  0  0  0  0  0  0  0  0  0  0
   36.2485   13.0705  -12.4545 C   0  0  0  0  0  0  0  0  0  0  0  0
   34.9338   12.8627  -13.1669 C   0  0  0  0  0  0  0  0  0  0  0  0
   36.1880   13.2065  -13.9400 C   0  0  0  0  0  0  0  0  0  0  0  0
   36.3115   16.5554   -9.9563 C   0  0  0  0  0  0  0  0  0  0  0  0
   36.3158   16.6638  -11.3396 C   0  0  0  0  0  0  0  0  0  0  0  0
   36.2958   15.5542  -12.1476 C   0  0  0  0  0  0  0  0  0  0  0  0
   36.2704   14.2847  -11.5957 C   0  0  0  0  0  0  0  0  0  0  0  0
   36.2665   14.1864  -10.2555 N   0  0  0  0  0  0  0  0  0  0  0  0
   36.2859   15.2668   -9.4548 C   0  0  0  0  0  0  0  0  0  0  0  0
   35.6434   17.5920   -7.8976 C   0  0  0  0  0  0  0  0  0  0  0  0
   36.3317   17.6710   -9.1308 O   0  0  0  0  0  0  0  0  0  0  0  0
 27 28  1  0  0  0
 28 21  1  0  0  0
 21 22  2  0  0  0
 22 23  1  0  0  0
 23 24  2  0  0  0
 24 25  1  0  0  0
 25 26  2  0  0  0
 24 18  1  0  0  0
 18 19  1  0  0  0
 19 20  1  0  0  0
 20 17  1  0  0  0
 17 16  1  0  0  0
 16  1  1  0  0  0
  1  2  2  0  0  0
  2  3  1  0  0  0
  3  4  1  0  0  0
  3  5  2  0  0  0
  5  6  1  0  0  0
  6  7  2  0  0  0
  7  8  1  0  0  0
  8  9  1  0  0  0
  9 10  2  0  0  0
 10 11  1  0  0  0
 11 12  1  0  0  0
 11 13  1  0  0  0
 13 14  2  0  0  0
 13 15  1  0  0  0
 26 21  1  0  0  0
 20 18  1  0  0  0
  7  1  1  0  0  0
 15  8  2  0  0  0
M  END
> <minimizedAffinity>
-7.82874

> <CNNscore>
0.5045037866

> <CNNaffinity>
6.7779302597

> <CNN_VS>
3.4194915295

> <CNNaffinity_variance>
0.1154438406

$$$$
[H]c1nc([C@@]2([H])C([H])([H])[C@]2([H])C([H])([H])Oc2nc(C([H])([H])[H])nc([H])c2-c2c([H])c([H])n(C([H])([H])[H])c(=O)c2[H])c([H])c([H])c1OC([H])([H])[H]


 28 31  0  0  0  0  0  0  0  0999 V2000
   36.2548   11.9379  -15.6032 C   0  0  0  0  0  0  0  0  0  0  0  0
   35.4321   11.2481  -16.4150 N   0  0  0  0  0  0  0  0  0  0  0  0
   34.1103   11.2288  -16.3072 C   0  0  0  0  0  0  0  0  0  0  0  0
   33.2233   10.4477  -17.2313 C   0  0  0  0  0  0  0  0  0  0  0  0
   33.5336   11.9421  -15.3243 N   0  0  0  0  0  0  0  0  0  0  0  0
   34.2875   12.6689  -14.4574 C   0  0  0  0  0  0  0  0  0  0  0  0
   35.6656   12.6692  -14.5956 C   0  0  0  0  0  0  0  0  0  0  0  0
   36.5064   13.4371  -13.6890 C   0  0  0  0  0  0  0  0  0  0  0  0
   36.3174   13.4870  -12.3247 C   0  0  0  0  0  0  0  0  0  0  0  0
   37.1449   14.2318  -11.5323 C   0  0  0  0  0  0  0  0  0  0  0  0
   38.1609   14.9384  -12.0193 N   0  0  0  0  0  0  0  0  0  0  0  0
   38.9946   15.7019  -11.1278 C   0  0  0  0  0  0  0  0  0  0  0  0
   38.3865   14.9214  -13.3474 C   0  0  0  0  0  0  0  0  0  0  0  0
   39.3601   15.6047  -13.7694 O   0  0  0  0  0  0  0  0  0  0  0  0
   37.5778   14.1836  -14.1912 C   0  0  0  0  0  0  0  0  0  0  0  0
   37.6149   11.9524  -15.7204 O   0  0  0  0  0  0  0  0  0  0  0  0
   38.3714   11.5004  -16.7922 C   0  0  0  0  0  0  0  0  0  0  0  0
   40.3638   13.0024  -16.2675 C   0  0  0  0  0  0  0  0  0  0  0  0
   40.5511   12.4617  -17.6647 C   0  0  0  0  0  0  0  0  0  0  0  0
   39.8634   11.6356  -16.5999 C   0  0  0  0  0  0  0  0  0  0  0  0
   44.0284   13.4845  -14.0932 C   0  0  0  0  0  0  0  0  0  0  0  0
   44.0306   13.1125  -15.4299 C   0  0  0  0  0  0  0  0  0  0  0  0
   42.8628   12.9556  -16.1343 C   0  0  0  0  0  0  0  0  0  0  0  0
   41.6397   13.1673  -15.5211 C   0  0  0  0  0  0  0  0  0  0  0  0
   41.6442   13.5274  -14.2265 N   0  0  0  0  0  0  0  0  0  0  0  0
   42.7823   13.6838  -13.5272 C   0  0  0  0  0  0  0  0  0  0  0  0
   46.1896   12.6378  -13.4839 C   0  0  0  0  0  0  0  0  0  0  0  0
   45.2035   13.6457  -13.3724 O   0  0  0  0  0  0  0  0  0  0  0  0
 27 28  1  0  0  0
 28 21  1  0  0  0
 21 22  2  0  0  0
 22 23  1  0  0  0
 23 24  2  0  0  0
 24 25  1  0  0  0
 25 26  2  0  0  0
 24 18  1  0  0  0
 18 19  1  0  0  0
 19 20  1  0  0  0
 20 17  1  0  0  0
 17 16  1  0  0  0
 16  1  1  0  0  0
  1  2  2  0  0  0
  2  3  1  0  0  0
  3  4  1  0  0  0
  3  5  2  0  0  0
  5  6  1  0  0  0
  6  7  2  0  0  0
  7  8  1  0  0  0
  8  9  1  0  0  0
  9 10  2  0  0  0
 10 11  1  0  0  0
 11 12  1  0  0  0
 11 13  1  0  0  0
 13 14  2  0  0  0
 13 15  1  0  0  0
 26 21  1  0  0  0
 20 18  1  0  0  0
  7  1  1  0  0  0
 15  8  2  0  0  0
M  END
> <minimizedAffinity>
-8.54218

> <CNNscore>
0.4178340435

> <CNNaffinity>
6.8518800735

> <CNN_VS>
2.8629486561

> <CNNaffinity_variance>
0.1605068296

$$$$
[H]c1nc([C@@]2([H])C([H])([H])[C@]2([H])C([H])([H])Oc2nc(C([H])([H])[H])nc([H])c2-c2c([H])c([H])n(C([H])([H])[H])c(=O)c2[H])c([H])c([H])c1OC([H])([H])[H]


 28 31  0  0  0  0  0  0  0  0999 V2000
   36.3031   12.2670  -15.4775 C   0  0  0  0  0  0  0  0  0  0  0  0
   35.0020   11.9330  -15.5629 N   0  0  0  0  0  0  0  0  0  0  0  0
   34.4954   11.1031  -16.4651 C   0  0  0  0  0  0  0  0  0  0  0  0
   33.0381   10.7530  -16.5306 C   0  0  0  0  0  0  0  0  0  0  0  0
   35.3242   10.5466  -17.3656 N   0  0  0  0  0  0  0  0  0  0  0  0
   36.6543   10.8272  -17.3540 C   0  0  0  0  0  0  0  0  0  0  0  0
   37.1535   11.6977  -16.3995 C   0  0  0  0  0  0  0  0  0  0  0  0
   38.5720   12.0206  -16.3529 C   0  0  0  0  0  0  0  0  0  0  0  0
   39.1806   12.6508  -15.2890 C   0  0  0  0  0  0  0  0  0  0  0  0
   40.5189   12.9261  -15.3135 C   0  0  0  0  0  0  0  0  0  0  0  0
   41.2983   12.6093  -16.3435 N   0  0  0  0  0  0  0  0  0  0  0  0
   42.7017   12.9283  -16.3043 C   0  0  0  0  0  0  0  0  0  0  0  0
   40.7495   11.9916  -17.4077 C   0  0  0  0  0  0  0  0  0  0  0  0
   41.5228   11.7080  -18.3640 O   0  0  0  0  0  0  0  0  0  0  0  0
   39.4006   11.6915  -17.4312 C   0  0  0  0  0  0  0  0  0  0  0  0
   36.8169   13.1226  -14.5460 O   0  0  0  0  0  0  0  0  0  0  0  0
   36.2889   14.3401  -14.1407 C   0  0  0  0  0  0  0  0  0  0  0  0
   38.0496   14.7312  -12.3385 C   0  0  0  0  0  0  0  0  0  0  0  0
   36.9284   15.7154  -12.1071 C   0  0  0  0  0  0  0  0  0  0  0  0
   37.2939   15.2725  -13.5068 C   0  0  0  0  0  0  0  0  0  0  0  0
   41.9312   16.2919  -11.3971 C   0  0  0  0  0  0  0  0  0  0  0  0
   40.8881   16.3643  -10.4850 C   0  0  0  0  0  0  0  0  0  0  0  0
   39.6421   15.8675  -10.7772 C   0  0  0  0  0  0  0  0  0  0  0  0
   39.3928   15.2751  -12.0035 C   0  0  0  0  0  0  0  0  0  0  0  0
   40.4071   15.2081  -12.8824 N   0  0  0  0  0  0  0  0  0  0  0  0
   41.6313   15.6915  -12.6064 C   0  0  0  0  0  0  0  0  0  0  0  0
   44.0843   16.9929  -12.1920 C   0  0  0  0  0  0  0  0  0  0  0  0
   43.1944   16.7911  -11.1113 O   0  0  0  0  0  0  0  0  0  0  0  0
 27 28  1  0  0  0
 28 21  1  0  0  0
 21 22  2  0  0  0
 22 23  1  0  0  0
 23 24  2  0  0  0
 24 25  1  0  0  0
 25 26  2  0  0  0
 24 18  1  0  0  0
 18 19  1  0  0  0
 19 20  1  0  0  0
 20 17  1  0  0  0
 17 16  1  0  0  0
 16  1  1  0  0  0
  1  2  2  0  0  0
  2  3  1  0  0  0
  3  4  1  0  0  0
  3  5  2  0  0  0
  5  6  1  0  0  0
  6  7  2  0  0  0
  7  8  1  0  0  0
  8  9  1  0  0  0
  9 10  2  0  0  0
 10 11  1  0  0  0
 11 12  1  0  0  0
 11 13  1  0  0  0
 13 14  2  0  0  0
 13 15  1  0  0  0
 26 21  1  0  0  0
 20 18  1  0  0  0
  7  1  1  0  0  0
 15  8  2  0  0  0
M  END
> <minimizedAffinity>
-7.64463

> <CNNscore>
0.3856444657

> <CNNaffinity>
6.7503557205

> <CNN_VS>
2.6032373905

> <CNNaffinity_variance>
0.1072072983

$$$$
[H]c1nc([C@@]2([H])C([H])([H])[C@]2([H])C([H])([H])Oc2nc(C([H])([H])[H])nc([H])c2-c2c([H])c([H])n(C([H])([H])[H])c(=O)c2[H])c([H])c([H])c1OC([H])([H])[H]


 28 31  0  0  0  0  0  0  0  0999 V2000
   36.8772   12.4678  -15.5034 C   0  0  0  0  0  0  0  0  0  0  0  0
   35.6015   12.0807  -15.6890 N   0  0  0  0  0  0  0  0  0  0  0  0
   35.2014   11.2300  -16.6247 C   0  0  0  0  0  0  0  0  0  0  0  0
   33.7693   10.8204  -16.8027 C   0  0  0  0  0  0  0  0  0  0  0  0
   36.1202   10.7074  -17.4555 N   0  0  0  0  0  0  0  0  0  0  0  0
   37.4328   11.0423  -17.3410 C   0  0  0  0  0  0  0  0  0  0  0  0
   37.8197   11.9333  -16.3538 C   0  0  0  0  0  0  0  0  0  0  0  0
   39.2159   12.3141  -16.1978 C   0  0  0  0  0  0  0  0  0  0  0  0
   40.1980   12.0228  -17.1198 C   0  0  0  0  0  0  0  0  0  0  0  0
   41.4914   12.4094  -16.9074 C   0  0  0  0  0  0  0  0  0  0  0  0
   41.8724   13.0759  -15.8215 N   0  0  0  0  0  0  0  0  0  0  0  0
   43.2524   13.4533  -15.6603 C   0  0  0  0  0  0  0  0  0  0  0  0
   40.9483   13.3843  -14.8908 C   0  0  0  0  0  0  0  0  0  0  0  0
   41.3504   14.0171  -13.8755 O   0  0  0  0  0  0  0  0  0  0  0  0
   39.6270   13.0156  -15.0591 C   0  0  0  0  0  0  0  0  0  0  0  0
   37.2811   13.3445  -14.5380 O   0  0  0  0  0  0  0  0  0  0  0  0
   36.6164   14.4827  -14.1044 C   0  0  0  0  0  0  0  0  0  0  0  0
   35.3741   15.3333  -12.0467 C   0  0  0  0  0  0  0  0  0  0  0  0
   36.1658   14.1155  -11.6349 C   0  0  0  0  0  0  0  0  0  0  0  0
   35.5874   14.2288  -13.0284 C   0  0  0  0  0  0  0  0  0  0  0  0
   31.6073   15.6903  -10.0287 C   0  0  0  0  0  0  0  0  0  0  0  0
   32.8018   15.9392   -9.3681 C   0  0  0  0  0  0  0  0  0  0  0  0
   34.0125   15.8275  -10.0055 C   0  0  0  0  0  0  0  0  0  0  0  0
   34.0721   15.4596  -11.3389 C   0  0  0  0  0  0  0  0  0  0  0  0
   32.9119   15.2199  -11.9730 N   0  0  0  0  0  0  0  0  0  0  0  0
   31.7205   15.3263  -11.3582 C   0  0  0  0  0  0  0  0  0  0  0  0
   29.4741   14.7192   -9.5130 C   0  0  0  0  0  0  0  0  0  0  0  0
   30.3783   15.8004   -9.3932 O   0  0  0  0  0  0  0  0  0  0  0  0
 27 28  1  0  0  0
 28 21  1  0  0  0
 21 22  2  0  0  0
 22 23  1  0  0  0
 23 24  2  0  0  0
 24 25  1  0  0  0
 25 26  2  0  0  0
 24 18  1  0  0  0
 18 19  1  0  0  0
 19 20  1  0  0  0
 20 17  1  0  0  0
 17 16  1  0  0  0
 16  1  1  0  0  0
  1  2  2  0  0  0
  2  3  1  0  0  0
  3  4  1  0  0  0
  3  5  2  0  0  0
  5  6  1  0  0  0
  6  7  2  0  0  0
  7  8  1  0  0  0
  8  9  1  0  0  0
  9 10  2  0  0  0
 10 11  1  0  0  0
 11 12  1  0  0  0
 11 13  1  0  0  0
 13 14  2  0  0  0
 13 15  1  0  0  0
 26 21  1  0  0  0
 20 18  1  0  0  0
  7  1  1  0  0  0
 15  8  2  0  0  0
M  END
> <minimizedAffinity>
-8.85950

> <CNNscore>
0.3204034269

> <CNNaffinity>
6.7656874657

> <CNN_VS>
2.1677494049

> <CNNaffinity_variance>
0.3292586803

$$$$
[H]c1nc([C@@]2([H])C([H])([H])[C@]2([H])C([H])([H])Oc2nc(C([H])([H])[H])nc([H])c2-c2c([H])c([H])n(C([H])([H])[H])c(=O)c2[H])c([H])c([H])c1OC([H])([H])[H]


 28 31  0  0  0  0  0  0  0  0999 V2000
   36.7057   12.5371  -15.5009 C   0  0  0  0  0  0  0  0  0  0  0  0
   35.4156   12.1761  -15.6317 N   0  0  0  0  0  0  0  0  0  0  0  0
   34.9710   11.2697  -16.4919 C   0  0  0  0  0  0  0  0  0  0  0  0
   33.5241   10.8915  -16.6103 C   0  0  0  0  0  0  0  0  0  0  0  0
   35.8562   10.6580  -17.2981 N   0  0  0  0  0  0  0  0  0  0  0  0
   37.1800   10.9606  -17.2349 C   0  0  0  0  0  0  0  0  0  0  0  0
   37.6138   11.9114  -16.3262 C   0  0  0  0  0  0  0  0  0  0  0  0
   39.0233   12.2604  -16.2267 C   0  0  0  0  0  0  0  0  0  0  0  0
   39.9507   11.9939  -17.2108 C   0  0  0  0  0  0  0  0  0  0  0  0
   41.2607   12.3479  -17.0495 C   0  0  0  0  0  0  0  0  0  0  0  0
   41.7103   12.9578  -15.9566 N   0  0  0  0  0  0  0  0  0  0  0  0
   43.1040   13.3033  -15.8513 C   0  0  0  0  0  0  0  0  0  0  0  0
   40.8417   13.2398  -14.9661 C   0  0  0  0  0  0  0  0  0  0  0  0
   41.3080   13.8190  -13.9463 O   0  0  0  0  0  0  0  0  0  0  0  0
   39.5064   12.9023  -15.0812 C   0  0  0  0  0  0  0  0  0  0  0  0
   37.1555   13.4716  -14.6130 O   0  0  0  0  0  0  0  0  0  0  0  0
   36.4680   14.5789  -14.1371 C   0  0  0  0  0  0  0  0  0  0  0  0
   36.3163   16.0370  -12.0510 C   0  0  0  0  0  0  0  0  0  0  0  0
   37.6178   15.2747  -11.9854 C   0  0  0  0  0  0  0  0  0  0  0  0
   36.3936   14.6634  -12.6309 C   0  0  0  0  0  0  0  0  0  0  0  0
   34.4807   16.6356   -8.2221 C   0  0  0  0  0  0  0  0  0  0  0  0
   35.7581   17.1078   -8.4872 C   0  0  0  0  0  0  0  0  0  0  0  0
   36.3541   16.9211   -9.7097 C   0  0  0  0  0  0  0  0  0  0  0  0
   35.6873   16.2492  -10.7200 C   0  0  0  0  0  0  0  0  0  0  0  0
   34.4505   15.7944  -10.4570 N   0  0  0  0  0  0  0  0  0  0  0  0
   33.8574   15.9718   -9.2631 C   0  0  0  0  0  0  0  0  0  0  0  0
   34.5984   16.4611   -5.8314 C   0  0  0  0  0  0  0  0  0  0  0  0
   33.8695   16.8193   -6.9895 O   0  0  0  0  0  0  0  0  0  0  0  0
 27 28  1  0  0  0
 28 21  1  0  0  0
 21 22  2  0  0  0
 22 23  1  0  0  0
 23 24  2  0  0  0
 24 25  1  0  0  0
 25 26  2  0  0  0
 24 18  1  0  0  0
 18 19  1  0  0  0
 19 20  1  0  0  0
 20 17  1  0  0  0
 17 16  1  0  0  0
 16  1  1  0  0  0
  1  2  2  0  0  0
  2  3  1  0  0  0
  3  4  1  0  0  0
  3  5  2  0  0  0
  5  6  1  0  0  0
  6  7  2  0  0  0
  7  8  1  0  0  0
  8  9  1  0  0  0
  9 10  2  0  0  0
 10 11  1  0  0  0
 11 12  1  0  0  0
 11 13  1  0  0  0
 13 14  2  0  0  0
 13 15  1  0  0  0
 26 21  1  0  0  0
 20 18  1  0  0  0
  7  1  1  0  0  0
 15  8  2  0  0  0
M  END
> <minimizedAffinity>
-8.37907

> <CNNscore>
0.2631022930

> <CNNaffinity>
6.5436134338

> <CNN_VS>
1.7216397524

> <CNNaffinity_variance>
0.3366428614

$$$$
[H]c1nc([C@@]2([H])C([H])([H])[C@]2([H])C([H])([H])Oc2nc(C([H])([H])[H])nc([H])c2-c2c([H])c([H])n(C([H])([H])[H])c(=O)c2[H])c([H])c([H])c1OC([H])([H])[H]


 28 31  0  0  0  0  0  0  0  0999 V2000
   39.2586   13.3099  -14.8821 C   0  0  0  0  0  0  0  0  0  0  0  0
   40.5487   13.6519  -14.7079 N   0  0  0  0  0  0  0  0  0  0  0  0
   41.5540   13.1975  -15.4441 C   0  0  0  0  0  0  0  0  0  0  0  0
   42.9817   13.6010  -15.2214 C   0  0  0  0  0  0  0  0  0  0  0  0
   41.2851   12.3338  -16.4387 N   0  0  0  0  0  0  0  0  0  0  0  0
   40.0100   11.9329  -16.6867 C   0  0  0  0  0  0  0  0  0  0  0  0
   38.9814   12.4250  -15.9007 C   0  0  0  0  0  0  0  0  0  0  0  0
   37.6030   12.0217  -16.1370 C   0  0  0  0  0  0  0  0  0  0  0  0
   37.2078   11.2188  -17.1852 C   0  0  0  0  0  0  0  0  0  0  0  0
   35.8938   10.8810  -17.3485 C   0  0  0  0  0  0  0  0  0  0  0  0
   34.9374   11.2975  -16.5236 N   0  0  0  0  0  0  0  0  0  0  0  0
   33.5718   10.9040  -16.7536 C   0  0  0  0  0  0  0  0  0  0  0  0
   35.2741   12.0848  -15.4835 C   0  0  0  0  0  0  0  0  0  0  0  0
   34.3376   12.4585  -14.7244 O   0  0  0  0  0  0  0  0  0  0  0  0
   36.5895   12.4545  -15.2750 C   0  0  0  0  0  0  0  0  0  0  0  0
   38.2292   13.7817  -14.1196 O   0  0  0  0  0  0  0  0  0  0  0  0
   38.3190   14.5615  -12.9754 C   0  0  0  0  0  0  0  0  0  0  0  0
   36.4282   15.6988  -11.6978 C   0  0  0  0  0  0  0  0  0  0  0  0
   37.3524   15.0671  -10.6849 C   0  0  0  0  0  0  0  0  0  0  0  0
   37.1392   14.4317  -12.0414 C   0  0  0  0  0  0  0  0  0  0  0  0
   32.2945   15.5910  -10.5620 C   0  0  0  0  0  0  0  0  0  0  0  0
   33.2808   15.9363   -9.6492 C   0  0  0  0  0  0  0  0  0  0  0  0
   34.6066   15.9736  -10.0033 C   0  0  0  0  0  0  0  0  0  0  0  0
   34.9968   15.6641  -11.2951 C   0  0  0  0  0  0  0  0  0  0  0  0
   34.0369   15.3305  -12.1744 N   0  0  0  0  0  0  0  0  0  0  0  0
   32.7354   15.2909  -11.8381 C   0  0  0  0  0  0  0  0  0  0  0  0
   30.1182   14.6392  -10.9038 C   0  0  0  0  0  0  0  0  0  0  0  0
   30.9515   15.5504  -10.2139 O   0  0  0  0  0  0  0  0  0  0  0  0
 27 28  1  0  0  0
 28 21  1  0  0  0
 21 22  2  0  0  0
 22 23  1  0  0  0
 23 24  2  0  0  0
 24 25  1  0  0  0
 25 26  2  0  0  0
 24 18  1  0  0  0
 18 19  1  0  0  0
 19 20  1  0  0  0
 20 17  1  0  0  0
 17 16  1  0  0  0
 16  1  1  0  0  0
  1  2  2  0  0  0
  2  3  1  0  0  0
  3  4  1  0  0  0
  3  5  2  0  0  0
  5  6  1  0  0  0
  6  7  2  0  0  0
  7  8  1  0  0  0
  8  9  1  0  0  0
  9 10  2  0  0  0
 10 11  1  0  0  0
 11 12  1  0  0  0
 11 13  1  0  0  0
 13 14  2  0  0  0
 13 15  1  0  0  0
 26 21  1  0  0  0
 20 18  1  0  0  0
  7  1  1  0  0  0
 15  8  2  0  0  0
M  END
> <minimizedAffinity>
-8.52700

> <CNNscore>
0.2198076695

> <CNNaffinity>
6.6209816933

> <CNN_VS>
1.4553425312

> <CNNaffinity_variance>
0.4187639356

$$$$
[H]c1nc([C@@]2([H])C([H])([H])[C@]2([H])C([H])([H])Oc2nc(C([H])([H])[H])nc([H])c2-c2c([H])c([H])n(C([H])([H])[H])c(=O)c2[H])c([H])c([H])c1OC([H])([H])[H]


 28 31  0  0  0  0  0  0  0  0999 V2000
   41.3273   13.7697  -14.7011 C   0  0  0  0  0  0  0  0  0  0  0  0
   40.4982   13.3320  -15.6668 N   0  0  0  0  0  0  0  0  0  0  0  0
   40.8695   12.5784  -16.6932 C   0  0  0  0  0  0  0  0  0  0  0  0
   39.9169   12.1080  -17.7524 C   0  0  0  0  0  0  0  0  0  0  0  0
   42.1604   12.2163  -16.7928 N   0  0  0  0  0  0  0  0  0  0  0  0
   43.0684   12.6131  -15.8622 C   0  0  0  0  0  0  0  0  0  0  0  0
   42.6502   13.3996  -14.8017 C   0  0  0  0  0  0  0  0  0  0  0  0
   43.5919   13.8420  -13.7838 C   0  0  0  0  0  0  0  0  0  0  0  0
   44.4824   14.8788  -13.9614 C   0  0  0  0  0  0  0  0  0  0  0  0
   45.3414   15.2399  -12.9619 C   0  0  0  0  0  0  0  0  0  0  0  0
   45.3695   14.6259  -11.7826 N   0  0  0  0  0  0  0  0  0  0  0  0
   46.3004   15.0573  -10.7725 C   0  0  0  0  0  0  0  0  0  0  0  0
   44.5177   13.6060  -11.5607 C   0  0  0  0  0  0  0  0  0  0  0  0
   44.5759   13.0500  -10.4291 O   0  0  0  0  0  0  0  0  0  0  0  0
   43.6293   13.2028  -12.5398 C   0  0  0  0  0  0  0  0  0  0  0  0
   40.9375   14.5457  -13.6477 O   0  0  0  0  0  0  0  0  0  0  0  0
   39.6996   15.1425  -13.4556 C   0  0  0  0  0  0  0  0  0  0  0  0
   37.2343   14.6664  -13.8983 C   0  0  0  0  0  0  0  0  0  0  0  0
   37.4611   14.5685  -12.4089 C   0  0  0  0  0  0  0  0  0  0  0  0
   38.5458   14.1704  -13.3856 C   0  0  0  0  0  0  0  0  0  0  0  0
   34.2939   11.9033  -15.3506 C   0  0  0  0  0  0  0  0  0  0  0  0
   35.6263   11.7947  -15.7224 C   0  0  0  0  0  0  0  0  0  0  0  0
   36.5747   12.6744  -15.2628 C   0  0  0  0  0  0  0  0  0  0  0  0
   36.2211   13.7035  -14.4069 C   0  0  0  0  0  0  0  0  0  0  0  0
   34.9293   13.8033  -14.0505 N   0  0  0  0  0  0  0  0  0  0  0  0
   33.9922   12.9471  -14.4949 C   0  0  0  0  0  0  0  0  0  0  0  0
   33.3535   10.6659  -17.1792 C   0  0  0  0  0  0  0  0  0  0  0  0
   33.3275   11.0192  -15.8098 O   0  0  0  0  0  0  0  0  0  0  0  0
 27 28  1  0  0  0
 28 21  1  0  0  0
 21 22  2  0  0  0
 22 23  1  0  0  0
 23 24  2  0  0  0
 24 25  1  0  0  0
 25 26  2  0  0  0
 24 18  1  0  0  0
 18 19  1  0  0  0
 19 20  1  0  0  0
 20 17  1  0  0  0
 17 16  1  0  0  0
 16  1  1  0  0  0
  1  2  2  0  0  0
  2  3  1  0  0  0
  3  4  1  0  0  0
  3  5  2  0  0  0
  5  6  1  0  0  0
  6  7  2  0  0  0
  7  8  1  0  0  0
  8  9  1  0  0  0
  9 10  2  0  0  0
 10 11  1  0  0  0
 11 12  1  0  0  0
 11 13  1  0  0  0
 13 14  2  0  0  0
 13 15  1  0  0  0
 26 21  1  0  0  0
 20 18  1  0  0  0
  7  1  1  0  0  0
 15  8  2  0  0  0
M  END
> <minimizedAffinity>
-7.77250

> <CNNscore>
0.2001224607

> <CNNaffinity>
6.5684614182

> <CNN_VS>
1.3144966364

> <CNNaffinity_variance>
0.1773351878

$$$$
[H]c1c(C(C([H])([H])[H])(C([H])([H])[H])C([H])([H])[H])noc1N([H])C(=O)[C@@]1([H])N(C(=O)c2c([H])c([H])c([H])c(C(F)(F)F)c2[H])C([H])([H])c2c([H])c([H])c([H])c([H])c2C1([H])[H]


 35 38  0  0  0  0  0  0  0  0999 V2000
   38.4170   15.6227  -11.6748 C   0  0  0  0  0  0  0  0  0  0  0  0
   38.6357   15.3651  -10.1640 C   0  0  0  0  0  0  0  0  0  0  0  0
   37.4247   15.9167   -9.4786 C   0  0  0  0  0  0  0  0  0  0  0  0
   37.4476   16.6707   -8.3531 C   0  0  0  0  0  0  0  0  0  0  0  0
   36.2577   17.1500   -7.8093 C   0  0  0  0  0  0  0  0  0  0  0  0
   35.0681   16.8684   -8.4046 C   0  0  0  0  0  0  0  0  0  0  0  0
   35.0552   16.1012   -9.5515 C   0  0  0  0  0  0  0  0  0  0  0  0
   36.2468   15.6256  -10.0814 C   0  0  0  0  0  0  0  0  0  0  0  0
   36.1431   14.7631  -11.2896 C   0  0  0  0  0  0  0  0  0  0  0  0
   37.3399   14.8278  -12.1535 N   0  0  0  0  0  0  0  0  0  0  0  0
   37.3470   14.1272  -13.3601 C   0  0  0  0  0  0  0  0  0  0  0  0
   38.4540   14.2781  -14.0391 O   0  0  0  0  0  0  0  0  0  0  0  0
   36.3694   13.2859  -13.9852 C   0  0  0  0  0  0  0  0  0  0  0  0
   35.0931   13.0810  -13.6098 C   0  0  0  0  0  0  0  0  0  0  0  0
   34.1855   12.2549  -14.3144 C   0  0  0  0  0  0  0  0  0  0  0  0
   34.5839   11.6060  -15.4450 C   0  0  0  0  0  0  0  0  0  0  0  0
   35.8936   11.7930  -15.8667 C   0  0  0  0  0  0  0  0  0  0  0  0
   36.7429   12.5987  -15.1624 C   0  0  0  0  0  0  0  0  0  0  0  0
   36.2614   11.0624  -17.1094 C   0  0  0  0  0  0  0  0  0  0  0  0
   35.8503   11.6595  -18.2553 F   0  0  0  0  0  0  0  0  0  0  0  0
   37.6379   10.8503  -17.0375 F   0  0  0  0  0  0  0  0  0  0  0  0
   35.7046    9.7855  -16.9585 F   0  0  0  0  0  0  0  0  0  0  0  0
   40.9076   15.2854  -11.5339 N   0  0  0  0  0  0  0  0  0  0  0  0
   39.7300   15.6801  -12.2666 C   0  0  0  0  0  0  0  0  0  0  0  0
   39.9384   16.0796  -13.4343 O   0  0  0  0  0  0  0  0  0  0  0  0
   40.6876   14.9401  -10.5547 H   0  0  0  0  0  0  0  0  0  0  0  0
   44.3318   15.7623  -12.5322 C   0  0  0  0  0  0  0  0  0  0  0  0
   43.2021   16.2767  -11.9479 C   0  0  0  0  0  0  0  0  0  0  0  0
   42.2250   15.3136  -11.9837 C   0  0  0  0  0  0  0  0  0  0  0  0
   42.7733   14.2356  -12.5910 O   0  0  0  0  0  0  0  0  0  0  0  0
   43.9902   14.5190  -12.8974 N   0  0  0  0  0  0  0  0  0  0  0  0
   45.6991   17.2117  -13.9759 C   0  0  0  0  0  0  0  0  0  0  0  0
   45.6594   16.3300  -12.7509 C   0  0  0  0  0  0  0  0  0  0  0  0
   46.7120   15.2187  -12.9146 C   0  0  0  0  0  0  0  0  0  0  0  0
   46.0474   17.1900  -11.5583 C   0  0  0  0  0  0  0  0  0  0  0  0
 32 33  1  0  0  0
 33 34  1  0  0  0
 33 35  1  0  0  0
 33 27  1  0  0  0
 27 28  1  0  0  0
 28 29  2  0  0  0
 29 23  1  0  0  0
 23 24  1  0  0  0
 24 25  2  0  0  0
 24  1  1  0  0  0
  1  2  1  0  0  0
  2  3  1  0  0  0
  3  4  2  0  0  0
  4  5  1  0  0  0
  5  6  2  0  0  0
  6  7  1  0  0  0
  7  8  2  0  0  0
  8  9  1  0  0  0
  9 10  1  0  0  0
 10 11  1  0  0  0
 11 12  2  0  0  0
 11 13  1  0  0  0
 13 14  2  0  0  0
 14 15  1  0  0  0
 15 16  2  0  0  0
 16 17  1  0  0  0
 17 18  2  0  0  0
 17 19  1  0  0  0
 19 20  1  0  0  0
 19 21  1  0  0  0
 19 22  1  0  0  0
 29 30  1  0  0  0
 30 31  1  0  0  0
 31 27  2  0  0  0
 10  1  1  0  0  0
 18 13  1  0  0  0
  8  3  1  0  0  0
 23 26  1  0  0  0
M  END
> <minimizedAffinity>
-8.99515

> <CNNscore>
0.3209514618

> <CNNaffinity>
6.4242119789

> <CNN_VS>
2.0618603230

> <CNNaffinity_variance>
0.0913495868

$$$$
[H]c1c(C(C([H])([H])[H])(C([H])([H])[H])C([H])([H])[H])noc1N([H])C(=O)[C@@]1([H])N(C(=O)c2c([H])c([H])c([H])c(C(F)(F)F)c2[H])C([H])([H])c2c([H])c([H])c([H])c([H])c2C1([H])[H]


 35 38  0  0  0  0  0  0  0  0999 V2000
   38.8210   15.4013  -12.2671 C   0  0  0  0  0  0  0  0  0  0  0  0
   38.8167   15.1179  -10.7452 C   0  0  0  0  0  0  0  0  0  0  0  0
   37.4932   15.6064  -10.2450 C   0  0  0  0  0  0  0  0  0  0  0  0
   37.3120   16.3348   -9.1170 C   0  0  0  0  0  0  0  0  0  0  0  0
   36.0340   16.7551   -8.7546 C   0  0  0  0  0  0  0  0  0  0  0  0
   34.9623   16.4412   -9.5304 C   0  0  0  0  0  0  0  0  0  0  0  0
   35.1571   15.7003  -10.6781 C   0  0  0  0  0  0  0  0  0  0  0  0
   36.4345   15.2836  -11.0264 C   0  0  0  0  0  0  0  0  0  0  0  0
   36.5530   14.4455  -12.2503 C   0  0  0  0  0  0  0  0  0  0  0  0
   37.8640   14.5762  -12.9188 N   0  0  0  0  0  0  0  0  0  0  0  0
   38.0849   13.9041  -14.1214 C   0  0  0  0  0  0  0  0  0  0  0  0
   39.2754   14.1134  -14.6196 O   0  0  0  0  0  0  0  0  0  0  0  0
   37.2504   13.0400  -14.9032 C   0  0  0  0  0  0  0  0  0  0  0  0
   35.9179   12.8722  -14.8119 C   0  0  0  0  0  0  0  0  0  0  0  0
   35.1698   12.0179  -15.6563 C   0  0  0  0  0  0  0  0  0  0  0  0
   35.7936   11.3003  -16.6331 C   0  0  0  0  0  0  0  0  0  0  0  0
   37.1684   11.4472  -16.7609 C   0  0  0  0  0  0  0  0  0  0  0  0
   37.8594   12.2818  -15.9289 C   0  0  0  0  0  0  0  0  0  0  0  0
   37.7853   10.6420  -17.8494 C   0  0  0  0  0  0  0  0  0  0  0  0
   39.1388   10.7078  -17.8997 F   0  0  0  0  0  0  0  0  0  0  0  0
   37.2810    9.3498  -17.7047 F   0  0  0  0  0  0  0  0  0  0  0  0
   37.1964   11.1149  -19.0296 F   0  0  0  0  0  0  0  0  0  0  0  0
   41.1192   14.4123  -12.5449 N   0  0  0  0  0  0  0  0  0  0  0  0
   40.2055   15.5230  -12.6490 C   0  0  0  0  0  0  0  0  0  0  0  0
   40.7064   16.5859  -13.0804 O   0  0  0  0  0  0  0  0  0  0  0  0
   40.6536   13.5273  -12.1892 H   0  0  0  0  0  0  0  0  0  0  0  0
   44.5301   14.0834  -13.6434 C   0  0  0  0  0  0  0  0  0  0  0  0
   43.2301   13.6518  -13.7216 C   0  0  0  0  0  0  0  0  0  0  0  0
   42.4754   14.4082  -12.8604 C   0  0  0  0  0  0  0  0  0  0  0  0
   43.3264   15.2804  -12.2718 O   0  0  0  0  0  0  0  0  0  0  0  0
   44.5064   15.0737  -12.7408 N   0  0  0  0  0  0  0  0  0  0  0  0
   46.5106   12.6264  -13.5463 C   0  0  0  0  0  0  0  0  0  0  0  0
   45.7412   13.6560  -14.3385 C   0  0  0  0  0  0  0  0  0  0  0  0
   46.6685   14.8535  -14.6136 C   0  0  0  0  0  0  0  0  0  0  0  0
   45.3667   13.0204  -15.6683 C   0  0  0  0  0  0  0  0  0  0  0  0
 32 33  1  0  0  0
 33 34  1  0  0  0
 33 35  1  0  0  0
 33 27  1  0  0  0
 27 28  1  0  0  0
 28 29  2  0  0  0
 29 23  1  0  0  0
 23 24  1  0  0  0
 24 25  2  0  0  0
 24  1  1  0  0  0
  1  2  1  0  0  0
  2  3  1  0  0  0
  3  4  2  0  0  0
  4  5  1  0  0  0
  5  6  2  0  0  0
  6  7  1  0  0  0
  7  8  2  0  0  0
  8  9  1  0  0  0
  9 10  1  0  0  0
 10 11  1  0  0  0
 11 12  2  0  0  0
 11 13  1  0  0  0
 13 14  2  0  0  0
 14 15  1  0  0  0
 15 16  2  0  0  0
 16 17  1  0  0  0
 17 18  2  0  0  0
 17 19  1  0  0  0
 19 20  1  0  0  0
 19 21  1  0  0  0
 19 22  1  0  0  0
 29 30  1  0  0  0
 30 31  1  0  0  0
 31 27  2  0  0  0
 10  1  1  0  0  0
 18 13  1  0  0  0
  8  3  1  0  0  0
 23 26  1  0  0  0
M  END
> <minimizedAffinity>
-9.12268

> <CNNscore>
0.2184340954

> <CNNaffinity>
6.5256905556

> <CNN_VS>
1.4254332781

> <CNNaffinity_variance>
0.1704786569

$$$$
[H]c1c(C(C([H])([H])[H])(C([H])([H])[H])C([H])([H])[H])noc1N([H])C(=O)[C@@]1([H])N(C(=O)c2c([H])c([H])c([H])c(C(F)(F)F)c2[H])C([H])([H])c2c([H])c([H])c([H])c([H])c2C1([H])[H]


 35 38  0  0  0  0  0  0  0  0999 V2000
   38.9789   15.6930  -11.9178 C   0  0  0  0  0  0  0  0  0  0  0  0
   38.8913   15.3598  -10.4085 C   0  0  0  0  0  0  0  0  0  0  0  0
   37.4872   15.6825  -10.0023 C   0  0  0  0  0  0  0  0  0  0  0  0
   37.1406   16.3483   -8.8742 C   0  0  0  0  0  0  0  0  0  0  0  0
   35.7997   16.6129   -8.6035 C   0  0  0  0  0  0  0  0  0  0  0  0
   34.8318   16.2093   -9.4690 C   0  0  0  0  0  0  0  0  0  0  0  0
   35.1948   15.5334  -10.6160 C   0  0  0  0  0  0  0  0  0  0  0  0
   36.5336   15.2717  -10.8727 C   0  0  0  0  0  0  0  0  0  0  0  0
   36.8377   14.4934  -12.1040 C   0  0  0  0  0  0  0  0  0  0  0  0
   38.1726   14.7900  -12.6635 N   0  0  0  0  0  0  0  0  0  0  0  0
   38.5579   14.1872  -13.8613 C   0  0  0  0  0  0  0  0  0  0  0  0
   39.7517   14.5428  -14.2585 O   0  0  0  0  0  0  0  0  0  0  0  0
   37.8873   13.2633  -14.7279 C   0  0  0  0  0  0  0  0  0  0  0  0
   38.4315   12.4621  -15.6627 C   0  0  0  0  0  0  0  0  0  0  0  0
   37.6895   11.5506  -16.4508 C   0  0  0  0  0  0  0  0  0  0  0  0
   36.3399   11.4449  -16.2901 C   0  0  0  0  0  0  0  0  0  0  0  0
   35.7405   12.2537  -15.3337 C   0  0  0  0  0  0  0  0  0  0  0  0
   36.4879   13.1222  -14.5896 C   0  0  0  0  0  0  0  0  0  0  0  0
   34.2680   12.0843  -15.2045 C   0  0  0  0  0  0  0  0  0  0  0  0
   33.6747   11.4907  -16.2695 F   0  0  0  0  0  0  0  0  0  0  0  0
   34.0619   11.4237  -13.9937 F   0  0  0  0  0  0  0  0  0  0  0  0
   33.7716   13.3760  -14.9846 F   0  0  0  0  0  0  0  0  0  0  0  0
   41.4110   15.0488  -11.8374 N   0  0  0  0  0  0  0  0  0  0  0  0
   40.3658   15.9791  -12.1860 C   0  0  0  0  0  0  0  0  0  0  0  0
   40.7552   17.0413  -12.7216 O   0  0  0  0  0  0  0  0  0  0  0  0
   41.0395   14.1563  -11.3994 H   0  0  0  0  0  0  0  0  0  0  0  0
   44.8796   15.3759  -12.7380 C   0  0  0  0  0  0  0  0  0  0  0  0
   43.5976   15.0673  -13.1169 C   0  0  0  0  0  0  0  0  0  0  0  0
   42.7806   15.2161  -12.0243 C   0  0  0  0  0  0  0  0  0  0  0  0
   43.5770   15.6064  -11.0021 O   0  0  0  0  0  0  0  0  0  0  0  0
   44.7839   15.6923  -11.4393 N   0  0  0  0  0  0  0  0  0  0  0  0
   47.3142   15.7000  -12.5883 C   0  0  0  0  0  0  0  0  0  0  0  0
   46.1349   15.4051  -13.4837 C   0  0  0  0  0  0  0  0  0  0  0  0
   46.0885   16.4680  -14.5962 C   0  0  0  0  0  0  0  0  0  0  0  0
   46.3776   14.0472  -14.1237 C   0  0  0  0  0  0  0  0  0  0  0  0
 32 33  1  0  0  0
 33 34  1  0  0  0
 33 35  1  0  0  0
 33 27  1  0  0  0
 27 28  1  0  0  0
 28 29  2  0  0  0
 29 23  1  0  0  0
 23 24  1  0  0  0
 24 25  2  0  0  0
 24  1  1  0  0  0
  1  2  1  0  0  0
  2  3  1  0  0  0
  3  4  2  0  0  0
  4  5  1  0  0  0
  5  6  2  0  0  0
  6  7  1  0  0  0
  7  8  2  0  0  0
  8  9  1  0  0  0
  9 10  1  0  0  0
 10 11  1  0  0  0
 11 12  2  0  0  0
 11 13  1  0  0  0
 13 14  2  0  0  0
 14 15  1  0  0  0
 15 16  2  0  0  0
 16 17  1  0  0  0
 17 18  2  0  0  0
 17 19  1  0  0  0
 19 20  1  0  0  0
 19 21  1  0  0  0
 19 22  1  0  0  0
 29 30  1  0  0  0
 30 31  1  0  0  0
 31 27  2  0  0  0
 10  1  1  0  0  0
 18 13  1  0  0  0
  8  3  1  0  0  0
 23 26  1  0  0  0
M  END
> <minimizedAffinity>
-9.18123

> <CNNscore>
0.1477182657

> <CNNaffinity>
6.0732369423

> <CNN_VS>
0.8971280456

> <CNNaffinity_variance>
0.2463535964

$$$$
[H]c1c(C(C([H])([H])[H])(C([H])([H])[H])C([H])([H])[H])noc1N([H])C(=O)[C@@]1([H])N(C(=O)c2c([H])c([H])c([H])c(C(F)(F)F)c2[H])C([H])([H])c2c([H])c([H])c([H])c([H])c2C1([H])[H]


 35 38  0  0  0  0  0  0  0  0999 V2000
   37.1291   14.9247  -12.2624 C   0  0  0  0  0  0  0  0  0  0  0  0
   36.4698   14.5887  -10.9025 C   0  0  0  0  0  0  0  0  0  0  0  0
   35.0246   14.9487  -11.0520 C   0  0  0  0  0  0  0  0  0  0  0  0
   34.2939   15.6197  -10.1291 C   0  0  0  0  0  0  0  0  0  0  0  0
   32.9570   15.9204  -10.3809 C   0  0  0  0  0  0  0  0  0  0  0  0
   32.3782   15.5468  -11.5533 C   0  0  0  0  0  0  0  0  0  0  0  0
   33.1310   14.8653  -12.4876 C   0  0  0  0  0  0  0  0  0  0  0  0
   34.4608   14.5676  -12.2235 C   0  0  0  0  0  0  0  0  0  0  0  0
   35.1884   13.7856  -13.2595 C   0  0  0  0  0  0  0  0  0  0  0  0
   36.6425   14.0471  -13.2696 N   0  0  0  0  0  0  0  0  0  0  0  0
   37.4369   13.4382  -14.2415 C   0  0  0  0  0  0  0  0  0  0  0  0
   38.7006   13.7620  -14.1538 O   0  0  0  0  0  0  0  0  0  0  0  0
   37.1211   12.5363  -15.3098 C   0  0  0  0  0  0  0  0  0  0  0  0
   37.9492   12.0480  -16.2520 C   0  0  0  0  0  0  0  0  0  0  0  0
   37.5530   11.1285  -17.2520 C   0  0  0  0  0  0  0  0  0  0  0  0
   36.2652   10.6847  -17.3048 C   0  0  0  0  0  0  0  0  0  0  0  0
   35.3797   11.1639  -16.3485 C   0  0  0  0  0  0  0  0  0  0  0  0
   35.7967   12.0505  -15.3965 C   0  0  0  0  0  0  0  0  0  0  0  0
   33.9934   10.6352  -16.4585 C   0  0  0  0  0  0  0  0  0  0  0  0
   33.2075   10.8897  -15.3832 F   0  0  0  0  0  0  0  0  0  0  0  0
   33.4897   11.1250  -17.6632 F   0  0  0  0  0  0  0  0  0  0  0  0
   34.1455    9.2599  -16.6789 F   0  0  0  0  0  0  0  0  0  0  0  0
   39.4339   15.6032  -13.0134 N   0  0  0  0  0  0  0  0  0  0  0  0
   38.5211   15.1733  -11.9832 C   0  0  0  0  0  0  0  0  0  0  0  0
   39.0294   15.0258  -10.8490 O   0  0  0  0  0  0  0  0  0  0  0  0
   38.9623   15.7300  -13.9557 H   0  0  0  0  0  0  0  0  0  0  0  0
   43.0115   15.8231  -12.6938 C   0  0  0  0  0  0  0  0  0  0  0  0
   41.8965   15.0358  -12.8334 C   0  0  0  0  0  0  0  0  0  0  0  0
   40.7964   15.8552  -12.8762 C   0  0  0  0  0  0  0  0  0  0  0  0
   41.2585   17.1216  -12.7574 O   0  0  0  0  0  0  0  0  0  0  0  0
   42.5401   17.0770  -12.6543 N   0  0  0  0  0  0  0  0  0  0  0  0
   45.1099   16.2120  -11.4690 C   0  0  0  0  0  0  0  0  0  0  0  0
   44.4317   15.4936  -12.6107 C   0  0  0  0  0  0  0  0  0  0  0  0
   45.1579   15.8591  -13.9179 C   0  0  0  0  0  0  0  0  0  0  0  0
   44.5940   14.0009  -12.3698 C   0  0  0  0  0  0  0  0  0  0  0  0
 32 33  1  0  0  0
 33 34  1  0  0  0
 33 35  1  0  0  0
 33 27  1  0  0  0
 27 28  1  0  0  0
 28 29  2  0  0  0
 29 23  1  0  0  0
 23 24  1  0  0  0
 24 25  2  0  0  0
 24  1  1  0  0  0
  1  2  1  0  0  0
  2  3  1  0  0  0
  3  4  2  0  0  0
  4  5  1  0  0  0
  5  6  2  0  0  0
  6  7  1  0  0  0
  7  8  2  0  0  0
  8  9  1  0  0  0
  9 10  1  0  0  0
 10 11  1  0  0  0
 11 12  2  0  0  0
 11 13  1  0  0  0
 13 14  2  0  0  0
 14 15  1  0  0  0
 15 16  2  0  0  0
 16 17  1  0  0  0
 17 18  2  0  0  0
 17 19  1  0  0  0
 19 20  1  0  0  0
 19 21  1  0  0  0
 19 22  1  0  0  0
 29 30  1  0  0  0
 30 31  1  0  0  0
 31 27  2  0  0  0
 10  1  1  0  0  0
 18 13  1  0  0  0
  8  3  1  0  0  0
 23 26  1  0  0  0
M  END
> <minimizedAffinity>
-9.77118

> <CNNscore>
0.1449950188

> <CNNaffinity>
6.3253083229

> <CNN_VS>
0.9171382189

> <CNNaffinity_variance>
0.1790022254

$$$$
[H]c1c(C(C([H])([H])[H])(C([H])([H])[H])C([H])([H])[H])noc1N([H])C(=O)[C@@]1([H])N(C(=O)c2c([H])c([H])c([H])c(C(F)(F)F)c2[H])C([H])([H])c2c([H])c([H])c([H])c([H])c2C1([H])[H]


 35 38  0  0  0  0  0  0  0  0999 V2000
   42.1343   14.9945  -12.8801 C   0  0  0  0  0  0  0  0  0  0  0  0
   43.4221   15.8157  -13.1329 C   0  0  0  0  0  0  0  0  0  0  0  0
   44.5472   14.8293  -13.0918 C   0  0  0  0  0  0  0  0  0  0  0  0
   45.7238   15.0224  -12.4483 C   0  0  0  0  0  0  0  0  0  0  0  0
   46.6974   14.0257  -12.4586 C   0  0  0  0  0  0  0  0  0  0  0  0
   46.4729   12.8534  -13.1099 C   0  0  0  0  0  0  0  0  0  0  0  0
   45.2709   12.6654  -13.7609 C   0  0  0  0  0  0  0  0  0  0  0  0
   44.3105   13.6674  -13.7473 C   0  0  0  0  0  0  0  0  0  0  0  0
   43.0631   13.4072  -14.5160 C   0  0  0  0  0  0  0  0  0  0  0  0
   41.8888   14.1237  -13.9768 N   0  0  0  0  0  0  0  0  0  0  0  0
   40.6370   13.9108  -14.5551 C   0  0  0  0  0  0  0  0  0  0  0  0
   39.6792   14.5887  -13.9786 O   0  0  0  0  0  0  0  0  0  0  0  0
   40.2152   13.0886  -15.6507 C   0  0  0  0  0  0  0  0  0  0  0  0
   40.9500   12.6595  -16.6936 C   0  0  0  0  0  0  0  0  0  0  0  0
   40.4537   11.8157  -17.7155 C   0  0  0  0  0  0  0  0  0  0  0  0
   39.1595   11.3887  -17.6846 C   0  0  0  0  0  0  0  0  0  0  0  0
   38.3686   11.8082  -16.6232 C   0  0  0  0  0  0  0  0  0  0  0  0
   38.8809   12.6224  -15.6531 C   0  0  0  0  0  0  0  0  0  0  0  0
   36.9700   11.3014  -16.6463 C   0  0  0  0  0  0  0  0  0  0  0  0
   36.7958   10.1637  -17.3631 F   0  0  0  0  0  0  0  0  0  0  0  0
   36.5749   11.2026  -15.3124 F   0  0  0  0  0  0  0  0  0  0  0  0
   36.2081   12.3608  -17.1568 F   0  0  0  0  0  0  0  0  0  0  0  0
   40.3179   15.5399  -11.2248 N   0  0  0  0  0  0  0  0  0  0  0  0
   41.1746   15.9141  -12.3227 C   0  0  0  0  0  0  0  0  0  0  0  0
   41.0124   17.0788  -12.7517 O   0  0  0  0  0  0  0  0  0  0  0  0
   40.4958   14.5516  -10.8813 H   0  0  0  0  0  0  0  0  0  0  0  0
   38.0744   17.6037   -9.3125 C   0  0  0  0  0  0  0  0  0  0  0  0
   39.2746   16.9437   -9.3919 C   0  0  0  0  0  0  0  0  0  0  0  0
   39.3431   16.3252  -10.6150 C   0  0  0  0  0  0  0  0  0  0  0  0
   38.1860   16.6143  -11.2546 O   0  0  0  0  0  0  0  0  0  0  0  0
   37.4706   17.3541  -10.4827 N   0  0  0  0  0  0  0  0  0  0  0  0
   37.5641   19.9003   -8.5915 C   0  0  0  0  0  0  0  0  0  0  0  0
   37.4848   18.4290   -8.2619 C   0  0  0  0  0  0  0  0  0  0  0  0
   38.1914   18.1914   -6.9151 C   0  0  0  0  0  0  0  0  0  0  0  0
   36.0140   18.0766   -8.1038 C   0  0  0  0  0  0  0  0  0  0  0  0
 32 33  1  0  0  0
 33 34  1  0  0  0
 33 35  1  0  0  0
 33 27  1  0  0  0
 27 28  1  0  0  0
 28 29  2  0  0  0
 29 23  1  0  0  0
 23 24  1  0  0  0
 24 25  2  0  0  0
 24  1  1  0  0  0
  1  2  1  0  0  0
  2  3  1  0  0  0
  3  4  2  0  0  0
  4  5  1  0  0  0
  5  6  2  0  0  0
  6  7  1  0  0  0
  7  8  2  0  0  0
  8  9  1  0  0  0
  9 10  1  0  0  0
 10 11  1  0  0  0
 11 12  2  0  0  0
 11 13  1  0  0  0
 13 14  2  0  0  0
 14 15  1  0  0  0
 15 16  2  0  0  0
 16 17  1  0  0  0
 17 18  2  0  0  0
 17 19  1  0  0  0
 19 20  1  0  0  0
 19 21  1  0  0  0
 19 22  1  0  0  0
 29 30  1  0  0  0
 30 31  1  0  0  0
 31 27  2  0  0  0
 10  1  1  0  0  0
 18 13  1  0  0  0
  8  3  1  0  0  0
 23 26  1  0  0  0
M  END
> <minimizedAffinity>
-9.98435

> <CNNscore>
0.1392435282

> <CNNaffinity>
5.8511238098

> <CNN_VS>
0.8147311211

> <CNNaffinity_variance>
0.2979819179

$$$$
[H]c1c(C(C([H])([H])[H])(C([H])([H])[H])C([H])([H])[H])noc1N([H])C(=O)[C@@]1([H])N(C(=O)c2c([H])c([H])c([H])c(C(F)(F)F)c2[H])C([H])([H])c2c([H])c([H])c([H])c([H])c2C1([H])[H]


 35 38  0  0  0  0  0  0  0  0999 V2000
   39.2310   14.9581  -12.4047 C   0  0  0  0  0  0  0  0  0  0  0  0
   38.4543   15.0977  -13.7366 C   0  0  0  0  0  0  0  0  0  0  0  0
   37.4005   14.0352  -13.7052 C   0  0  0  0  0  0  0  0  0  0  0  0
   37.0889   13.2221  -14.7433 C   0  0  0  0  0  0  0  0  0  0  0  0
   36.1007   12.2508  -14.5976 C   0  0  0  0  0  0  0  0  0  0  0  0
   35.4459   12.1096  -13.4143 C   0  0  0  0  0  0  0  0  0  0  0  0
   35.7714   12.9412  -12.3623 C   0  0  0  0  0  0  0  0  0  0  0  0
   36.7546   13.9081  -12.5210 C   0  0  0  0  0  0  0  0  0  0  0  0
   37.0100   14.7981  -11.3561 C   0  0  0  0  0  0  0  0  0  0  0  0
   38.3934   15.3150  -11.3127 N   0  0  0  0  0  0  0  0  0  0  0  0
   38.7928   16.1010  -10.2313 C   0  0  0  0  0  0  0  0  0  0  0  0
   40.0415   16.4817  -10.3020 O   0  0  0  0  0  0  0  0  0  0  0  0
   38.0913   16.5569   -9.0675 C   0  0  0  0  0  0  0  0  0  0  0  0
   37.5392   15.8136   -8.0905 C   0  0  0  0  0  0  0  0  0  0  0  0
   36.8938   16.3564   -6.9541 C   0  0  0  0  0  0  0  0  0  0  0  0
   36.7995   17.7073   -6.7984 C   0  0  0  0  0  0  0  0  0  0  0  0
   37.3585   18.5093   -7.7845 C   0  0  0  0  0  0  0  0  0  0  0  0
   37.9753   17.9513   -8.8684 C   0  0  0  0  0  0  0  0  0  0  0  0
   37.2268   19.9727   -7.5505 C   0  0  0  0  0  0  0  0  0  0  0  0
   38.1159   20.7340   -8.2350 F   0  0  0  0  0  0  0  0  0  0  0  0
   35.8916   20.2841   -7.8060 F   0  0  0  0  0  0  0  0  0  0  0  0
   37.3619   20.1325   -6.1650 F   0  0  0  0  0  0  0  0  0  0  0  0
   41.7382   14.7368  -12.3590 N   0  0  0  0  0  0  0  0  0  0  0  0
   40.5463   15.4949  -12.6487 C   0  0  0  0  0  0  0  0  0  0  0  0
   40.7435   16.6411  -13.1114 O   0  0  0  0  0  0  0  0  0  0  0  0
   41.5286   13.7669  -11.9823 H   0  0  0  0  0  0  0  0  0  0  0  0
   45.0910   16.0411  -12.4409 C   0  0  0  0  0  0  0  0  0  0  0  0
   43.8603   16.0177  -11.8349 C   0  0  0  0  0  0  0  0  0  0  0  0
   43.0573   15.1484  -12.5299 C   0  0  0  0  0  0  0  0  0  0  0  0
   43.8086   14.6633  -13.5456 O   0  0  0  0  0  0  0  0  0  0  0  0
   44.9787   15.1929  -13.4724 N   0  0  0  0  0  0  0  0  0  0  0  0
   46.4965   17.9815  -13.0011 C   0  0  0  0  0  0  0  0  0  0  0  0
   46.3186   16.7656  -12.1238 C   0  0  0  0  0  0  0  0  0  0  0  0
   47.5508   15.8583  -12.2907 C   0  0  0  0  0  0  0  0  0  0  0  0
   46.2664   17.2480  -10.6825 C   0  0  0  0  0  0  0  0  0  0  0  0
 32 33  1  0  0  0
 33 34  1  0  0  0
 33 35  1  0  0  0
 33 27  1  0  0  0
 27 28  1  0  0  0
 28 29  2  0  0  0
 29 23  1  0  0  0
 23 24  1  0  0  0
 24 25  2  0  0  0
 24  1  1  0  0  0
  1  2  1  0  0  0
  2  3  1  0  0  0
  3  4  2  0  0  0
  4  5  1  0  0  0
  5  6  2  0  0  0
  6  7  1  0  0  0
  7  8  2  0  0  0
  8  9  1  0  0  0
  9 10  1  0  0  0
 10 11  1  0  0  0
 11 12  2  0  0  0
 11 13  1  0  0  0
 13 14  2  0  0  0
 14 15  1  0  0  0
 15 16  2  0  0  0
 16 17  1  0  0  0
 17 18  2  0  0  0
 17 19  1  0  0  0
 19 20  1  0  0  0
 19 21  1  0  0  0
 19 22  1  0  0  0
 29 30  1  0  0  0
 30 31  1  0  0  0
 31 27  2  0  0  0
 10  1  1  0  0  0
 18 13  1  0  0  0
  8  3  1  0  0  0
 23 26  1  0  0  0
M  END
> <minimizedAffinity>
-7.41116

> <CNNscore>
0.1391707808

> <CNNaffinity>
5.7303824425

> <CNN_VS>
0.7975018024

> <CNNaffinity_variance>
0.2413053513

$$$$
[H]c1c(C(C([H])([H])[H])(C([H])([H])[H])C([H])([H])[H])noc1N([H])C(=O)[C@@]1([H])N(C(=O)c2c([H])c([H])c([H])c(C(F)(F)F)c2[H])C([H])([H])c2c([H])c([H])c([H])c([H])c2C1([H])[H]


 35 38  0  0  0  0  0  0  0  0999 V2000
   36.6460   14.0160  -13.7152 C   0  0  0  0  0  0  0  0  0  0  0  0
   35.7593   12.8381  -13.2429 C   0  0  0  0  0  0  0  0  0  0  0  0
   35.2697   12.1726  -14.4911 C   0  0  0  0  0  0  0  0  0  0  0  0
   33.9952   11.7642  -14.7027 C   0  0  0  0  0  0  0  0  0  0  0  0
   33.6436   11.1717  -15.9137 C   0  0  0  0  0  0  0  0  0  0  0  0
   34.5736   11.0026  -16.8911 C   0  0  0  0  0  0  0  0  0  0  0  0
   35.8686   11.4232  -16.6669 C   0  0  0  0  0  0  0  0  0  0  0  0
   36.2079   12.0082  -15.4547 C   0  0  0  0  0  0  0  0  0  0  0  0
   37.6355   12.3869  -15.2724 C   0  0  0  0  0  0  0  0  0  0  0  0
   37.8214   13.5198  -14.3425 N   0  0  0  0  0  0  0  0  0  0  0  0
   39.1042   14.0291  -14.1381 C   0  0  0  0  0  0  0  0  0  0  0  0
   39.1334   15.0384  -13.3075 O   0  0  0  0  0  0  0  0  0  0  0  0
   40.3803   13.6538  -14.6719 C   0  0  0  0  0  0  0  0  0  0  0  0
   40.6637   13.2315  -15.9182 C   0  0  0  0  0  0  0  0  0  0  0  0
   41.9678   12.9158  -16.3676 C   0  0  0  0  0  0  0  0  0  0  0  0
   43.0312   13.0288  -15.5222 C   0  0  0  0  0  0  0  0  0  0  0  0
   42.7805   13.4635  -14.2274 C   0  0  0  0  0  0  0  0  0  0  0  0
   41.5085   13.7606  -13.8273 C   0  0  0  0  0  0  0  0  0  0  0  0
   43.9840   13.5712  -13.3593 C   0  0  0  0  0  0  0  0  0  0  0  0
   45.0901   12.9621  -13.8534 F   0  0  0  0  0  0  0  0  0  0  0  0
   44.1489   14.9311  -13.0980 F   0  0  0  0  0  0  0  0  0  0  0  0
   43.5944   13.0256  -12.1289 F   0  0  0  0  0  0  0  0  0  0  0  0
   37.0110   14.6443  -11.3051 N   0  0  0  0  0  0  0  0  0  0  0  0
   36.6232   14.9876  -12.6508 C   0  0  0  0  0  0  0  0  0  0  0  0
   36.2612   16.1746  -12.8143 O   0  0  0  0  0  0  0  0  0  0  0  0
   37.3241   13.6346  -11.2110 H   0  0  0  0  0  0  0  0  0  0  0  0
   37.1427   17.1250   -8.7015 C   0  0  0  0  0  0  0  0  0  0  0  0
   37.3312   16.8056  -10.0224 C   0  0  0  0  0  0  0  0  0  0  0  0
   37.0131   15.4815  -10.1925 C   0  0  0  0  0  0  0  0  0  0  0  0
   36.6424   15.0184   -8.9761 O   0  0  0  0  0  0  0  0  0  0  0  0
   36.7248   15.9860   -8.1322 N   0  0  0  0  0  0  0  0  0  0  0  0
   36.0195   18.8284   -7.3263 C   0  0  0  0  0  0  0  0  0  0  0  0
   37.3089   18.3776   -7.9695 C   0  0  0  0  0  0  0  0  0  0  0  0
   37.8072   19.4967   -8.9016 C   0  0  0  0  0  0  0  0  0  0  0  0
   38.3290   18.1854   -6.8582 C   0  0  0  0  0  0  0  0  0  0  0  0
 32 33  1  0  0  0
 33 34  1  0  0  0
 33 35  1  0  0  0
 33 27  1  0  0  0
 27 28  1  0  0  0
 28 29  2  0  0  0
 29 23  1  0  0  0
 23 24  1  0  0  0
 24 25  2  0  0  0
 24  1  1  0  0  0
  1  2  1  0  0  0
  2  3  1  0  0  0
  3  4  2  0  0  0
  4  5  1  0  0  0
  5  6  2  0  0  0
  6  7  1  0  0  0
  7  8  2  0  0  0
  8  9  1  0  0  0
  9 10  1  0  0  0
 10 11  1  0  0  0
 11 12  2  0  0  0
 11 13  1  0  0  0
 13 14  2  0  0  0
 14 15  1  0  0  0
 15 16  2  0  0  0
 16 17  1  0  0  0
 17 18  2  0  0  0
 17 19  1  0  0  0
 19 20  1  0  0  0
 19 21  1  0  0  0
 19 22  1  0  0  0
 29 30  1  0  0  0
 30 31  1  0  0  0
 31 27  2  0  0  0
 10  1  1  0  0  0
 18 13  1  0  0  0
  8  3  1  0  0  0
 23 26  1  0  0  0
M  END
> <minimizedAffinity>
-9.98054

> <CNNscore>
0.0888461247

> <CNNaffinity>
6.1304731369

> <CNN_VS>
0.5446687937

> <CNNaffinity_variance>
0.1399913579

$$$$
[H]c1c(C(C([H])([H])[H])(C([H])([H])[H])C([H])([H])[H])noc1N([H])C(=O)[C@@]1([H])N(C(=O)c2c([H])c([H])c([H])c(C(F)(F)F)c2[H])C([H])([H])c2c([H])c([H])c([H])c([H])c2C1([H])[H]


 35 38  0  0  0  0  0  0  0  0999 V2000
   39.0827   15.1747  -12.2237 C   0  0  0  0  0  0  0  0  0  0  0  0
   38.6137   15.1602  -13.6990 C   0  0  0  0  0  0  0  0  0  0  0  0
   37.5963   14.0661  -13.7908 C   0  0  0  0  0  0  0  0  0  0  0  0
   37.5328   13.1487  -14.7860 C   0  0  0  0  0  0  0  0  0  0  0  0
   36.5529   12.1586  -14.7615 C   0  0  0  0  0  0  0  0  0  0  0  0
   35.6576   12.1035  -13.7395 C   0  0  0  0  0  0  0  0  0  0  0  0
   35.7314   13.0412  -12.7299 C   0  0  0  0  0  0  0  0  0  0  0  0
   36.7094   14.0255  -12.7674 C   0  0  0  0  0  0  0  0  0  0  0  0
   36.6891   15.0292  -11.6689 C   0  0  0  0  0  0  0  0  0  0  0  0
   38.0208   15.5998  -11.3792 N   0  0  0  0  0  0  0  0  0  0  0  0
   38.1610   16.4975  -10.3205 C   0  0  0  0  0  0  0  0  0  0  0  0
   39.3885   16.9169  -10.1572 O   0  0  0  0  0  0  0  0  0  0  0  0
   37.2146   17.0330   -9.3867 C   0  0  0  0  0  0  0  0  0  0  0  0
   37.3571   18.1078   -8.5890 C   0  0  0  0  0  0  0  0  0  0  0  0
   36.3478   18.5858   -7.7200 C   0  0  0  0  0  0  0  0  0  0  0  0
   35.1438   17.9503   -7.6513 C   0  0  0  0  0  0  0  0  0  0  0  0
   34.9565   16.8375   -8.4606 C   0  0  0  0  0  0  0  0  0  0  0  0
   35.9527   16.4040   -9.2888 C   0  0  0  0  0  0  0  0  0  0  0  0
   33.6196   16.1955   -8.3422 C   0  0  0  0  0  0  0  0  0  0  0  0
   32.9937   15.9775   -9.5252 F   0  0  0  0  0  0  0  0  0  0  0  0
   33.8118   15.0456   -7.5769 F   0  0  0  0  0  0  0  0  0  0  0  0
   32.8800   17.0468   -7.5106 F   0  0  0  0  0  0  0  0  0  0  0  0
   41.4607   15.2022  -11.3984 N   0  0  0  0  0  0  0  0  0  0  0  0
   40.4104   15.7357  -12.2299 C   0  0  0  0  0  0  0  0  0  0  0  0
   40.7369   16.7153  -12.9373 O   0  0  0  0  0  0  0  0  0  0  0  0
   41.1481   14.3652  -10.8255 H   0  0  0  0  0  0  0  0  0  0  0  0
   44.7559   16.4810  -10.7235 C   0  0  0  0  0  0  0  0  0  0  0  0
   43.4909   16.2102  -10.2666 C   0  0  0  0  0  0  0  0  0  0  0  0
   42.7702   15.6650  -11.2994 C   0  0  0  0  0  0  0  0  0  0  0  0
   43.6041   15.6181  -12.3642 O   0  0  0  0  0  0  0  0  0  0  0  0
   44.7446   16.0940  -12.0065 N   0  0  0  0  0  0  0  0  0  0  0  0
   45.5502   17.9400   -8.9083 C   0  0  0  0  0  0  0  0  0  0  0  0
   45.9302   17.0436  -10.0623 C   0  0  0  0  0  0  0  0  0  0  0  0
   46.7815   17.8576  -11.0533 C   0  0  0  0  0  0  0  0  0  0  0  0
   46.7860   15.9183   -9.5020 C   0  0  0  0  0  0  0  0  0  0  0  0
 32 33  1  0  0  0
 33 34  1  0  0  0
 33 35  1  0  0  0
 33 27  1  0  0  0
 27 28  1  0  0  0
 28 29  2  0  0  0
 29 23  1  0  0  0
 23 24  1  0  0  0
 24 25  2  0  0  0
 24  1  1  0  0  0
  1  2  1  0  0  0
  2  3  1  0  0  0
  3  4  2  0  0  0
  4  5  1  0  0  0
  5  6  2  0  0  0
  6  7  1  0  0  0
  7  8  2  0  0  0
  8  9  1  0  0  0
  9 10  1  0  0  0
 10 11  1  0  0  0
 11 12  2  0  0  0
 11 13  1  0  0  0
 13 14  2  0  0  0
 14 15  1  0  0  0
 15 16  2  0  0  0
 16 17  1  0  0  0
 17 18  2  0  0  0
 17 19  1  0  0  0
 19 20  1  0  0  0
 19 21  1  0  0  0
 19 22  1  0  0  0
 29 30  1  0  0  0
 30 31  1  0  0  0
 31 27  2  0  0  0
 10  1  1  0  0  0
 18 13  1  0  0  0
  8  3  1  0  0  0
 23 26  1  0  0  0
M  END
> <minimizedAffinity>
-7.60591

> <CNNscore>
0.0862084776

> <CNNaffinity>
5.5426678658

> <CNN_VS>
0.4778249562

> <CNNaffinity_variance>
0.3820970058

$$$$
[H]c1c(C(C([H])([H])[H])(C([H])([H])[H])C([H])([H])[H])noc1N([H])C(=O)[C@@]1([H])N(C(=O)c2c([H])c([H])c([H])c(C(F)(F)F)c2[H])C([H])([H])c2c([H])c([H])c([H])c([H])c2C1([H])[H]


 35 38  0  0  0  0  0  0  0  0999 V2000
   38.8736   14.8392  -12.4651 C   0  0  0  0  0  0  0  0  0  0  0  0
   38.0990   15.1259  -13.7745 C   0  0  0  0  0  0  0  0  0  0  0  0
   37.1316   13.9944  -13.9300 C   0  0  0  0  0  0  0  0  0  0  0  0
   36.8930   13.3325  -15.0879 C   0  0  0  0  0  0  0  0  0  0  0  0
   35.9829   12.2779  -15.1149 C   0  0  0  0  0  0  0  0  0  0  0  0
   35.3317   11.9037  -13.9813 C   0  0  0  0  0  0  0  0  0  0  0  0
   35.5825   12.5828  -12.8066 C   0  0  0  0  0  0  0  0  0  0  0  0
   36.4882   13.6347  -12.7932 C   0  0  0  0  0  0  0  0  0  0  0  0
   36.6637   14.3482  -11.4991 C   0  0  0  0  0  0  0  0  0  0  0  0
   38.0019   14.9558  -11.3481 N   0  0  0  0  0  0  0  0  0  0  0  0
   38.3297   15.5910  -10.1498 C   0  0  0  0  0  0  0  0  0  0  0  0
   39.5453   16.0721  -10.1353 O   0  0  0  0  0  0  0  0  0  0  0  0
   37.5853   15.8043   -8.9437 C   0  0  0  0  0  0  0  0  0  0  0  0
   36.9943   16.9394   -8.5264 C   0  0  0  0  0  0  0  0  0  0  0  0
   36.2452   17.0463   -7.3305 C   0  0  0  0  0  0  0  0  0  0  0  0
   36.0881   15.9617   -6.5199 C   0  0  0  0  0  0  0  0  0  0  0  0
   36.6814   14.7706   -6.9166 C   0  0  0  0  0  0  0  0  0  0  0  0
   37.3970   14.7028   -8.0783 C   0  0  0  0  0  0  0  0  0  0  0  0
   36.4660   13.6255   -5.9914 C   0  0  0  0  0  0  0  0  0  0  0  0
   36.8382   12.4211   -6.4909 F   0  0  0  0  0  0  0  0  0  0  0  0
   37.1009   13.9705   -4.7985 F   0  0  0  0  0  0  0  0  0  0  0  0
   35.1001   13.6613   -5.6810 F   0  0  0  0  0  0  0  0  0  0  0  0
   41.3877   14.8218  -12.3401 N   0  0  0  0  0  0  0  0  0  0  0  0
   40.1446   15.5061  -12.5962 C   0  0  0  0  0  0  0  0  0  0  0  0
   40.2567   16.7085  -12.9255 O   0  0  0  0  0  0  0  0  0  0  0  0
   41.2509   13.8024  -12.0779 H   0  0  0  0  0  0  0  0  0  0  0  0
   44.5988   16.4373  -12.1709 C   0  0  0  0  0  0  0  0  0  0  0  0
   43.3337   16.2944  -11.6594 C   0  0  0  0  0  0  0  0  0  0  0  0
   42.6711   15.3571  -12.4116 C   0  0  0  0  0  0  0  0  0  0  0  0
   43.5392   14.9508  -13.3671 O   0  0  0  0  0  0  0  0  0  0  0  0
   44.6452   15.5882  -13.2066 N   0  0  0  0  0  0  0  0  0  0  0  0
   45.6988   17.5686  -10.2829 C   0  0  0  0  0  0  0  0  0  0  0  0
   45.7250   17.2727  -11.7632 C   0  0  0  0  0  0  0  0  0  0  0  0
   45.7236   18.6084  -12.5284 C   0  0  0  0  0  0  0  0  0  0  0  0
   47.0288   16.5483  -12.0596 C   0  0  0  0  0  0  0  0  0  0  0  0
 32 33  1  0  0  0
 33 34  1  0  0  0
 33 35  1  0  0  0
 33 27  1  0  0  0
 27 28  1  0  0  0
 28 29  2  0  0  0
 29 23  1  0  0  0
 23 24  1  0  0  0
 24 25  2  0  0  0
 24  1  1  0  0  0
  1  2  1  0  0  0
  2  3  1  0  0  0
  3  4  2  0  0  0
  4  5  1  0  0  0
  5  6  2  0  0  0
  6  7  1  0  0  0
  7  8  2  0  0  0
  8  9  1  0  0  0
  9 10  1  0  0  0
 10 11  1  0  0  0
 11 12  2  0  0  0
 11 13  1  0  0  0
 13 14  2  0  0  0
 14 15  1  0  0  0
 15 16  2  0  0  0
 16 17  1  0  0  0
 17 18  2  0  0  0
 17 19  1  0  0  0
 19 20  1  0  0  0
 19 21  1  0  0  0
 19 22  1  0  0  0
 29 30  1  0  0  0
 30 31  1  0  0  0
 31 27  2  0  0  0
 10  1  1  0  0  0
 18 13  1  0  0  0
  8  3  1  0  0  0
 23 26  1  0  0  0
M  END
> <minimizedAffinity>
-7.64726

> <CNNscore>
0.0825894773

> <CNNaffinity>
5.6295981407

> <CNN_VS>
0.4649455547

> <CNNaffinity_variance>
0.2126811743

$$$$
[H]N=C(N([H])[H])N([H])C([H])([H])C([H])([H])C([H])([H])[C@@]([H])(C(=O)c1nc2c([H])c([H])c([H])c([H])c2s1)N([H])C(=O)[C@@]([H])(N([H])C(=O)[C@@]1([H])N(C(=O)[C@]([H])(N([H])C(=O)OC([H])([H])c2c([H])c([H])c([H])c([H])c2[H])C([H])([H])c2c([H])c([H])c([H])c([H])c2[H])C([H])([H])C([H])([H])C1([H])[H])C([H])([H])C([H])([H])C([H])([H])N=C(N([H])[H])N([H])[H]


 70 74  0  0  0  0  0  0  0  0999 V2000
   38.1228   14.3792  -12.7073 C   0  0  0  0  0  0  0  0  0  0  0  0
   37.5001   15.4366  -11.9723 N   0  0  0  0  0  0  0  0  0  0  0  0
   36.7297   15.3950  -10.8235 C   0  0  0  0  0  0  0  0  0  0  0  0
   36.4326   14.3128  -10.2377 O   0  0  0  0  0  0  0  0  0  0  0  0
   37.6611   16.4112  -12.4001 H   0  0  0  0  0  0  0  0  0  0  0  0
   36.2038   16.6751  -10.2136 C   0  0  0  0  0  0  0  0  0  0  0  0
   37.3108   17.5306   -9.6748 C   0  0  0  0  0  0  0  0  0  0  0  0
   37.5178   16.8878   -8.3077 C   0  0  0  0  0  0  0  0  0  0  0  0
   36.0873   16.5532   -7.8781 C   0  0  0  0  0  0  0  0  0  0  0  0
   35.3219   16.3811   -9.0795 N   0  0  0  0  0  0  0  0  0  0  0  0
   33.9591   15.9997   -9.2488 C   0  0  0  0  0  0  0  0  0  0  0  0
   33.5351   15.9395  -10.4649 O   0  0  0  0  0  0  0  0  0  0  0  0
   32.9849   15.6667   -8.2161 C   0  0  0  0  0  0  0  0  0  0  0  0
   33.4343   14.5467   -7.4266 N   0  0  0  0  0  0  0  0  0  0  0  0
   33.6267   14.6575   -6.0446 C   0  0  0  0  0  0  0  0  0  0  0  0
   33.4247   15.7313   -5.4439 O   0  0  0  0  0  0  0  0  0  0  0  0
   33.6406   13.5918   -7.8473 H   0  0  0  0  0  0  0  0  0  0  0  0
   34.0541   13.5833   -5.2500 O   0  0  0  0  0  0  0  0  0  0  0  0
   35.1393   13.7507   -4.3926 C   0  0  0  0  0  0  0  0  0  0  0  0
   36.4463   13.8975   -5.0421 C   0  0  0  0  0  0  0  0  0  0  0  0
   37.4155   14.7132   -4.5314 C   0  0  0  0  0  0  0  0  0  0  0  0
   38.6326   14.8467   -5.1534 C   0  0  0  0  0  0  0  0  0  0  0  0
   38.9065   14.1570   -6.3136 C   0  0  0  0  0  0  0  0  0  0  0  0
   37.9206   13.3427   -6.8106 C   0  0  0  0  0  0  0  0  0  0  0  0
   36.6992   13.1955   -6.2058 C   0  0  0  0  0  0  0  0  0  0  0  0
   31.5497   15.6473   -8.5932 C   0  0  0  0  0  0  0  0  0  0  0  0
   30.8093   16.4498   -7.5469 C   0  0  0  0  0  0  0  0  0  0  0  0
   31.0740   17.7657   -7.2802 C   0  0  0  0  0  0  0  0  0  0  0  0
   30.3476   18.4747   -6.3219 C   0  0  0  0  0  0  0  0  0  0  0  0
   29.3360   17.8691   -5.6103 C   0  0  0  0  0  0  0  0  0  0  0  0
   29.0714   16.5418   -5.8811 C   0  0  0  0  0  0  0  0  0  0  0  0
   29.7833   15.8375   -6.8241 C   0  0  0  0  0  0  0  0  0  0  0  0
   39.4587   14.7264  -13.1533 C   0  0  0  0  0  0  0  0  0  0  0  0
   39.8065   15.9523  -13.0943 O   0  0  0  0  0  0  0  0  0  0  0  0
   40.4079   13.8041  -13.6499 N   0  0  0  0  0  0  0  0  0  0  0  0
   40.1915   12.7975  -13.7228 H   0  0  0  0  0  0  0  0  0  0  0  0
   41.7742   14.2869  -14.0882 C   0  0  0  0  0  0  0  0  0  0  0  0
   42.1094   13.3690  -15.1978 C   0  0  0  0  0  0  0  0  0  0  0  0
   43.3302   13.1130  -15.4724 O   0  0  0  0  0  0  0  0  0  0  0  0
   41.0790   12.7216  -16.0103 C   0  0  0  0  0  0  0  0  0  0  0  0
   39.8183   12.4424  -15.8233 N   0  0  0  0  0  0  0  0  0  0  0  0
   39.1011   11.8472  -16.7353 C   0  0  0  0  0  0  0  0  0  0  0  0
   37.7373   11.5098  -16.6217 C   0  0  0  0  0  0  0  0  0  0  0  0
   37.1027   10.8930  -17.6446 C   0  0  0  0  0  0  0  0  0  0  0  0
   37.7107   10.5607  -18.8242 C   0  0  0  0  0  0  0  0  0  0  0  0
   39.0375   10.8805  -18.9543 C   0  0  0  0  0  0  0  0  0  0  0  0
   39.7279   11.5237  -17.9074 C   0  0  0  0  0  0  0  0  0  0  0  0
   41.3070   12.0929  -17.6285 S   0  0  0  0  0  0  0  0  0  0  0  0
   42.6226   14.0346  -12.8636 C   0  0  0  0  0  0  0  0  0  0  0  0
   43.4813   15.1142  -12.3657 C   0  0  0  0  0  0  0  0  0  0  0  0
   42.7404   16.1530  -11.5365 C   0  0  0  0  0  0  0  0  0  0  0  0
   41.8120   15.4373  -10.6854 N   0  0  0  0  0  0  0  0  0  0  0  0
   40.9786   14.9118  -11.0411 H   0  0  0  0  0  0  0  0  0  0  0  0
   42.0292   15.4402   -9.2850 C   0  0  0  0  0  0  0  0  0  0  0  0
   41.3700   16.3697   -8.4285 N   0  0  0  0  0  0  0  0  0  0  0  0
   42.8380   14.5956   -8.7159 N   0  0  0  0  0  0  0  0  0  0  0  0
   40.4088   16.2119   -8.0437 H   0  0  0  0  0  0  0  0  0  0  0  0
   41.8479   17.2615   -8.1558 H   0  0  0  0  0  0  0  0  0  0  0  0
   43.0075   14.5851   -7.6929 H   0  0  0  0  0  0  0  0  0  0  0  0
   37.2485   13.7187  -13.7623 C   0  0  0  0  0  0  0  0  0  0  0  0
   36.6841   12.4153  -13.2652 C   0  0  0  0  0  0  0  0  0  0  0  0
   35.2580   12.2265  -13.7745 C   0  0  0  0  0  0  0  0  0  0  0  0
   32.4885   14.3180  -12.4940 N   0  0  0  0  0  0  0  0  0  0  0  0
   33.3453   13.6269  -13.3814 C   0  0  0  0  0  0  0  0  0  0  0  0
   33.1038   13.6746  -14.7771 N   0  0  0  0  0  0  0  0  0  0  0  0
   34.3463   12.9528  -12.9338 N   0  0  0  0  0  0  0  0  0  0  0  0
   32.0575   15.2326  -12.6825 H   0  0  0  0  0  0  0  0  0  0  0  0
   32.2675   13.8699  -11.5643 H   0  0  0  0  0  0  0  0  0  0  0  0
   33.5503   14.3641  -15.4123 H   0  0  0  0  0  0  0  0  0  0  0  0
   32.4495   12.9973  -15.2267 H   0  0  0  0  0  0  0  0  0  0  0  0
 63 64  1  0  0  0
 64 65  1  0  0  0
 64 66  2  0  0  0
 66 62  1  0  0  0
 62 61  1  0  0  0
 61 60  1  0  0  0
 60  1  1  0  0  0
  1  2  1  0  0  0
  2  3  1  0  0  0
  3  4  2  0  0  0
  3  6  1  0  0  0
  6  7  1  0  0  0
  7  8  1  0  0  0
  8  9  1  0  0  0
  9 10  1  0  0  0
 10 11  1  0  0  0
 11 12  2  0  0  0
 11 13  1  0  0  0
 13 26  1  0  0  0
 26 27  1  0  0  0
 27 28  2  0  0  0
 28 29  1  0  0  0
 29 30  2  0  0  0
 30 31  1  0  0  0
 31 32  2  0  0  0
 13 14  1  0  0  0
 14 15  1  0  0  0
 15 16  2  0  0  0
 15 18  1  0  0  0
 18 19  1  0  0  0
 19 20  1  0  0  0
 20 21  2  0  0  0
 21 22  1  0  0  0
 22 23  2  0  0  0
 23 24  1  0  0  0
 24 25  2  0  0  0
  1 33  1  0  0  0
 33 34  2  0  0  0
 33 35  1  0  0  0
 35 37  1  0  0  0
 37 49  1  0  0  0
 49 50  1  0  0  0
 50 51  1  0  0  0
 51 52  1  0  0  0
 52 54  1  0  0  0
 54 55  1  0  0  0
 54 56  2  0  0  0
 37 38  1  0  0  0
 38 39  2  0  0  0
 38 40  1  0  0  0
 40 41  2  0  0  0
 41 42  1  0  0  0
 42 43  2  0  0  0
 43 44  1  0  0  0
 44 45  2  0  0  0
 45 46  1  0  0  0
 46 47  2  0  0  0
 47 48  1  0  0  0
 10  6  1  0  0  0
 32 27  1  0  0  0
 25 20  1  0  0  0
 48 40  1  0  0  0
 47 42  1  0  0  0
 63 67  1  0  0  0
 63 68  1  0  0  0
 65 69  1  0  0  0
 65 70  1  0  0  0
  2  5  1  0  0  0
 14 17  1  0  0  0
 35 36  1  0  0  0
 52 53  1  0  0  0
 55 57  1  0  0  0
 55 58  1  0  0  0
 56 59  1  0  0  0
M  END
> <minimizedAffinity>
-9.18486

> <CNNscore>
0.6401219964

> <CNNaffinity>
8.2550888062

> <CNN_VS>
5.2842640877

> <CNNaffinity_variance>
0.6699379086

$$$$
[H]N=C(N([H])[H])N([H])C([H])([H])C([H])([H])C([H])([H])[C@@]([H])(C(=O)c1nc2c([H])c([H])c([H])c([H])c2s1)N([H])C(=O)[C@@]([H])(N([H])C(=O)[C@@]1([H])N(C(=O)[C@]([H])(N([H])C(=O)OC([H])([H])c2c([H])c([H])c([H])c([H])c2[H])C([H])([H])c2c([H])c([H])c([H])c([H])c2[H])C([H])([H])C([H])([H])C1([H])[H])C([H])([H])C([H])([H])C([H])([H])N=C(N([H])[H])N([H])[H]


 70 74  0  0  0  0  0  0  0  0999 V2000
   38.8948   15.4279  -12.6206 C   0  0  0  0  0  0  0  0  0  0  0  0
   39.9230   15.5888  -11.6394 N   0  0  0  0  0  0  0  0  0  0  0  0
   41.1027   16.3105  -11.6894 C   0  0  0  0  0  0  0  0  0  0  0  0
   41.4642   16.9606  -12.7139 O   0  0  0  0  0  0  0  0  0  0  0  0
   39.7356   15.0495  -10.7268 H   0  0  0  0  0  0  0  0  0  0  0  0
   42.0230   16.3480  -10.4899 C   0  0  0  0  0  0  0  0  0  0  0  0
   43.4388   16.0275  -10.8645 C   0  0  0  0  0  0  0  0  0  0  0  0
   43.3887   14.5035  -10.8601 C   0  0  0  0  0  0  0  0  0  0  0  0
   42.4800   14.2046   -9.6652 C   0  0  0  0  0  0  0  0  0  0  0  0
   41.6214   15.3424   -9.5010 N   0  0  0  0  0  0  0  0  0  0  0  0
   40.5522   15.5564   -8.5830 C   0  0  0  0  0  0  0  0  0  0  0  0
   39.9597   16.6988   -8.6607 O   0  0  0  0  0  0  0  0  0  0  0  0
   40.0439   14.6415   -7.5677 C   0  0  0  0  0  0  0  0  0  0  0  0
   38.6081   14.5318   -7.6463 N   0  0  0  0  0  0  0  0  0  0  0  0
   37.9234   13.4654   -7.0520 C   0  0  0  0  0  0  0  0  0  0  0  0
   38.5291   12.5646   -6.4386 O   0  0  0  0  0  0  0  0  0  0  0  0
   38.0032   15.2449   -8.1532 H   0  0  0  0  0  0  0  0  0  0  0  0
   36.5273   13.3373   -7.1043 O   0  0  0  0  0  0  0  0  0  0  0  0
   35.7539   14.4098   -7.5430 C   0  0  0  0  0  0  0  0  0  0  0  0
   34.7610   14.9110   -6.5868 C   0  0  0  0  0  0  0  0  0  0  0  0
   33.9785   14.0655   -5.8529 C   0  0  0  0  0  0  0  0  0  0  0  0
   33.0478   14.5484   -4.9660 C   0  0  0  0  0  0  0  0  0  0  0  0
   32.8805   15.9046   -4.7942 C   0  0  0  0  0  0  0  0  0  0  0  0
   33.6758   16.7374   -5.5398 C   0  0  0  0  0  0  0  0  0  0  0  0
   34.6102   16.2763   -6.4306 C   0  0  0  0  0  0  0  0  0  0  0  0
   40.6024   14.7432   -6.1966 C   0  0  0  0  0  0  0  0  0  0  0  0
   41.8484   13.8869   -6.1647 C   0  0  0  0  0  0  0  0  0  0  0  0
   43.1145   14.4015   -6.0940 C   0  0  0  0  0  0  0  0  0  0  0  0
   44.2358   13.5716   -6.0416 C   0  0  0  0  0  0  0  0  0  0  0  0
   44.1029   12.2010   -6.0597 C   0  0  0  0  0  0  0  0  0  0  0  0
   42.8248   11.6848   -6.1315 C   0  0  0  0  0  0  0  0  0  0  0  0
   41.7157   12.4968   -6.1832 C   0  0  0  0  0  0  0  0  0  0  0  0
   37.6503   14.9529  -12.0462 C   0  0  0  0  0  0  0  0  0  0  0  0
   37.6759   14.5153  -10.8482 O   0  0  0  0  0  0  0  0  0  0  0  0
   36.4062   14.9391  -12.7173 N   0  0  0  0  0  0  0  0  0  0  0  0
   36.3154   15.2800  -13.6873 H   0  0  0  0  0  0  0  0  0  0  0  0
   35.1725   14.4162  -12.0126 C   0  0  0  0  0  0  0  0  0  0  0  0
   34.4122   13.7763  -13.1074 C   0  0  0  0  0  0  0  0  0  0  0  0
   33.1386   13.8657  -13.1419 O   0  0  0  0  0  0  0  0  0  0  0  0
   35.0714   13.0323  -14.1811 C   0  0  0  0  0  0  0  0  0  0  0  0
   36.3052   12.9376  -14.5947 N   0  0  0  0  0  0  0  0  0  0  0  0
   36.6391   12.1783  -15.6007 C   0  0  0  0  0  0  0  0  0  0  0  0
   37.9419   12.0133  -16.1128 C   0  0  0  0  0  0  0  0  0  0  0  0
   38.1593   11.1907  -17.1643 C   0  0  0  0  0  0  0  0  0  0  0  0
   37.1705   10.4817  -17.7896 C   0  0  0  0  0  0  0  0  0  0  0  0
   35.8959   10.6287  -17.3063 C   0  0  0  0  0  0  0  0  0  0  0  0
   35.6356   11.4776  -16.2119 C   0  0  0  0  0  0  0  0  0  0  0  0
   34.2756   11.9519  -15.3059 S   0  0  0  0  0  0  0  0  0  0  0  0
   34.5097   15.6828  -11.5229 C   0  0  0  0  0  0  0  0  0  0  0  0
   33.7879   15.6532  -10.2466 C   0  0  0  0  0  0  0  0  0  0  0  0
   32.2921   15.8971  -10.3833 C   0  0  0  0  0  0  0  0  0  0  0  0
   31.6777   14.6219  -10.6915 N   0  0  0  0  0  0  0  0  0  0  0  0
   32.1529   13.6974  -10.5620 H   0  0  0  0  0  0  0  0  0  0  0  0
   30.3556   14.6073  -11.2014 C   0  0  0  0  0  0  0  0  0  0  0  0
   30.0901   14.3784  -12.5832 N   0  0  0  0  0  0  0  0  0  0  0  0
   29.3236   14.8004  -10.4339 N   0  0  0  0  0  0  0  0  0  0  0  0
   30.0124   13.4210  -13.0005 H   0  0  0  0  0  0  0  0  0  0  0  0
   29.9629   15.1896  -13.2341 H   0  0  0  0  0  0  0  0  0  0  0  0
   28.3503   14.7928  -10.7918 H   0  0  0  0  0  0  0  0  0  0  0  0
   39.3204   14.7197  -13.8976 C   0  0  0  0  0  0  0  0  0  0  0  0
   40.5187   13.8408  -13.6607 C   0  0  0  0  0  0  0  0  0  0  0  0
   40.9441   13.1627  -14.9599 C   0  0  0  0  0  0  0  0  0  0  0  0
   44.3084   13.3918  -16.4809 N   0  0  0  0  0  0  0  0  0  0  0  0
   42.9513   13.0518  -16.2764 C   0  0  0  0  0  0  0  0  0  0  0  0
   42.2744   12.2455  -17.2252 N   0  0  0  0  0  0  0  0  0  0  0  0
   42.3217   13.4676  -15.2336 N   0  0  0  0  0  0  0  0  0  0  0  0
   45.0173   12.7693  -16.8905 H   0  0  0  0  0  0  0  0  0  0  0  0
   44.6292   14.3558  -16.1951 H   0  0  0  0  0  0  0  0  0  0  0  0
   42.1987   11.2128  -17.1489 H   0  0  0  0  0  0  0  0  0  0  0  0
   41.8153   12.6762  -18.0576 H   0  0  0  0  0  0  0  0  0  0  0  0
 63 64  1  0  0  0
 64 65  1  0  0  0
 64 66  2  0  0  0
 66 62  1  0  0  0
 62 61  1  0  0  0
 61 60  1  0  0  0
 60  1  1  0  0  0
  1  2  1  0  0  0
  2  3  1  0  0  0
  3  4  2  0  0  0
  3  6  1  0  0  0
  6  7  1  0  0  0
  7  8  1  0  0  0
  8  9  1  0  0  0
  9 10  1  0  0  0
 10 11  1  0  0  0
 11 12  2  0  0  0
 11 13  1  0  0  0
 13 26  1  0  0  0
 26 27  1  0  0  0
 27 28  2  0  0  0
 28 29  1  0  0  0
 29 30  2  0  0  0
 30 31  1  0  0  0
 31 32  2  0  0  0
 13 14  1  0  0  0
 14 15  1  0  0  0
 15 16  2  0  0  0
 15 18  1  0  0  0
 18 19  1  0  0  0
 19 20  1  0  0  0
 20 21  2  0  0  0
 21 22  1  0  0  0
 22 23  2  0  0  0
 23 24  1  0  0  0
 24 25  2  0  0  0
  1 33  1  0  0  0
 33 34  2  0  0  0
 33 35  1  0  0  0
 35 37  1  0  0  0
 37 49  1  0  0  0
 49 50  1  0  0  0
 50 51  1  0  0  0
 51 52  1  0  0  0
 52 54  1  0  0  0
 54 55  1  0  0  0
 54 56  2  0  0  0
 37 38  1  0  0  0
 38 39  2  0  0  0
 38 40  1  0  0  0
 40 41  2  0  0  0
 41 42  1  0  0  0
 42 43  2  0  0  0
 43 44  1  0  0  0
 44 45  2  0  0  0
 45 46  1  0  0  0
 46 47  2  0  0  0
 47 48  1  0  0  0
 10  6  1  0  0  0
 32 27  1  0  0  0
 25 20  1  0  0  0
 48 40  1  0  0  0
 47 42  1  0  0  0
 63 67  1  0  0  0
 63 68  1  0  0  0
 65 69  1  0  0  0
 65 70  1  0  0  0
  2  5  1  0  0  0
 14 17  1  0  0  0
 35 36  1  0  0  0
 52 53  1  0  0  0
 55 57  1  0  0  0
 55 58  1  0  0  0
 56 59  1  0  0  0
M  END
> <minimizedAffinity>
-8.93818

> <CNNscore>
0.4921037257

> <CNNaffinity>
8.3010053635

> <CNN_VS>
4.0849556923

> <CNNaffinity_variance>
0.4716688991

$$$$
[H]N=C(N([H])[H])N([H])C([H])([H])C([H])([H])C([H])([H])[C@@]([H])(C(=O)c1nc2c([H])c([H])c([H])c([H])c2s1)N([H])C(=O)[C@@]([H])(N([H])C(=O)[C@@]1([H])N(C(=O)[C@]([H])(N([H])C(=O)OC([H])([H])c2c([H])c([H])c([H])c([H])c2[H])C([H])([H])c2c([H])c([H])c([H])c([H])c2[H])C([H])([H])C([H])([H])C1([H])[H])C([H])([H])C([H])([H])C([H])([H])N=C(N([H])[H])N([H])[H]


 70 74  0  0  0  0  0  0  0  0999 V2000
   37.5885   14.6986  -12.5114 C   0  0  0  0  0  0  0  0  0  0  0  0
   37.4428   15.2992  -11.2214 N   0  0  0  0  0  0  0  0  0  0  0  0
   36.7632   16.4421  -10.8379 C   0  0  0  0  0  0  0  0  0  0  0  0
   36.1474   17.1807  -11.6612 O   0  0  0  0  0  0  0  0  0  0  0  0
   37.9564   14.7678  -10.4386 H   0  0  0  0  0  0  0  0  0  0  0  0
   36.7327   16.8570   -9.3839 C   0  0  0  0  0  0  0  0  0  0  0  0
   36.6958   18.3480   -9.2313 C   0  0  0  0  0  0  0  0  0  0  0  0
   38.1791   18.6768   -9.3613 C   0  0  0  0  0  0  0  0  0  0  0  0
   38.8429   17.5179   -8.6137 C   0  0  0  0  0  0  0  0  0  0  0  0
   37.9436   16.4026   -8.6929 N   0  0  0  0  0  0  0  0  0  0  0  0
   38.1002   15.0664   -8.2222 C   0  0  0  0  0  0  0  0  0  0  0  0
   37.1040   14.2740   -8.4267 O   0  0  0  0  0  0  0  0  0  0  0  0
   39.2494   14.4838   -7.5394 C   0  0  0  0  0  0  0  0  0  0  0  0
   40.2859   14.1376   -8.4804 N   0  0  0  0  0  0  0  0  0  0  0  0
   41.5771   14.6673   -8.3726 C   0  0  0  0  0  0  0  0  0  0  0  0
   41.8788   15.4655   -7.4634 O   0  0  0  0  0  0  0  0  0  0  0  0
   40.1257   13.4716   -9.2942 H   0  0  0  0  0  0  0  0  0  0  0  0
   42.6074   14.3418   -9.2672 O   0  0  0  0  0  0  0  0  0  0  0  0
   43.9326   14.4019   -8.8419 C   0  0  0  0  0  0  0  0  0  0  0  0
   44.7941   15.3358   -9.5747 C   0  0  0  0  0  0  0  0  0  0  0  0
   45.9948   14.9475  -10.0975 C   0  0  0  0  0  0  0  0  0  0  0  0
   46.7949   15.8341  -10.7756 C   0  0  0  0  0  0  0  0  0  0  0  0
   46.4033   17.1434  -10.9459 C   0  0  0  0  0  0  0  0  0  0  0  0
   45.1943   17.5141  -10.4140 C   0  0  0  0  0  0  0  0  0  0  0  0
   44.3809   16.6454   -9.7335 C   0  0  0  0  0  0  0  0  0  0  0  0
   38.9926   13.4820   -6.4751 C   0  0  0  0  0  0  0  0  0  0  0  0
   38.6184   14.2514   -5.2282 C   0  0  0  0  0  0  0  0  0  0  0  0
   37.4318   14.0839   -4.5673 C   0  0  0  0  0  0  0  0  0  0  0  0
   37.1389   14.7985   -3.4045 C   0  0  0  0  0  0  0  0  0  0  0  0
   38.0395   15.7000   -2.8825 C   0  0  0  0  0  0  0  0  0  0  0  0
   39.2353   15.8673   -3.5513 C   0  0  0  0  0  0  0  0  0  0  0  0
   39.5303   15.1662   -4.6974 C   0  0  0  0  0  0  0  0  0  0  0  0
   36.5236   13.7597  -12.8089 C   0  0  0  0  0  0  0  0  0  0  0  0
   36.0463   13.0751  -11.8442 O   0  0  0  0  0  0  0  0  0  0  0  0
   35.9727   13.5461  -14.0931 N   0  0  0  0  0  0  0  0  0  0  0  0
   36.3121   14.0677  -14.9166 H   0  0  0  0  0  0  0  0  0  0  0  0
   34.8619   12.5348  -14.2810 C   0  0  0  0  0  0  0  0  0  0  0  0
   35.1882   11.9235  -15.5871 C   0  0  0  0  0  0  0  0  0  0  0  0
   34.2638   11.4134  -16.3058 O   0  0  0  0  0  0  0  0  0  0  0  0
   36.5554   11.8815  -16.1067 C   0  0  0  0  0  0  0  0  0  0  0  0
   37.6760   12.4527  -15.7598 N   0  0  0  0  0  0  0  0  0  0  0  0
   38.7885   12.2375  -16.4050 C   0  0  0  0  0  0  0  0  0  0  0  0
   40.0416   12.8067  -16.1010 C   0  0  0  0  0  0  0  0  0  0  0  0
   41.1262   12.5002  -16.8487 C   0  0  0  0  0  0  0  0  0  0  0  0
   41.0940   11.6470  -17.9176 C   0  0  0  0  0  0  0  0  0  0  0  0
   39.8840   11.0829  -18.2296 C   0  0  0  0  0  0  0  0  0  0  0  0
   38.7347   11.3810  -17.4703 C   0  0  0  0  0  0  0  0  0  0  0  0
   37.0919   10.9379  -17.4806 S   0  0  0  0  0  0  0  0  0  0  0  0
   33.6296   13.4064  -14.3516 C   0  0  0  0  0  0  0  0  0  0  0  0
   32.8609   13.6418  -13.1250 C   0  0  0  0  0  0  0  0  0  0  0  0
   33.1461   14.9864  -12.4721 C   0  0  0  0  0  0  0  0  0  0  0  0
   31.9991   15.3140  -11.6500 N   0  0  0  0  0  0  0  0  0  0  0  0
   31.0053   15.1945  -11.9587 H   0  0  0  0  0  0  0  0  0  0  0  0
   32.2179   15.8298  -10.3484 C   0  0  0  0  0  0  0  0  0  0  0  0
   33.3656   15.4678   -9.5843 N   0  0  0  0  0  0  0  0  0  0  0  0
   31.3839   16.6574   -9.7908 N   0  0  0  0  0  0  0  0  0  0  0  0
   34.2909   15.9494   -9.6775 H   0  0  0  0  0  0  0  0  0  0  0  0
   33.3077   14.6855   -8.8895 H   0  0  0  0  0  0  0  0  0  0  0  0
   31.5299   17.0434   -8.8394 H   0  0  0  0  0  0  0  0  0  0  0  0
   38.9879   14.2037  -12.8432 C   0  0  0  0  0  0  0  0  0  0  0  0
   39.8702   15.3316  -13.3056 C   0  0  0  0  0  0  0  0  0  0  0  0
   40.8471   15.7272  -12.2020 C   0  0  0  0  0  0  0  0  0  0  0  0
   44.3320   15.4181  -13.4040 N   0  0  0  0  0  0  0  0  0  0  0  0
   43.0810   15.0998  -12.8270 C   0  0  0  0  0  0  0  0  0  0  0  0
   42.8547   13.8030  -12.3021 N   0  0  0  0  0  0  0  0  0  0  0  0
   42.1421   15.9786  -12.7726 N   0  0  0  0  0  0  0  0  0  0  0  0
   45.2418   15.0805  -13.0633 H   0  0  0  0  0  0  0  0  0  0  0  0
   44.3446   16.0495  -14.2496 H   0  0  0  0  0  0  0  0  0  0  0  0
   43.0024   13.5552  -11.3046 H   0  0  0  0  0  0  0  0  0  0  0  0
   42.5215   13.0304  -12.9194 H   0  0  0  0  0  0  0  0  0  0  0  0
 63 64  1  0  0  0
 64 65  1  0  0  0
 64 66  2  0  0  0
 66 62  1  0  0  0
 62 61  1  0  0  0
 61 60  1  0  0  0
 60  1  1  0  0  0
  1  2  1  0  0  0
  2  3  1  0  0  0
  3  4  2  0  0  0
  3  6  1  0  0  0
  6  7  1  0  0  0
  7  8  1  0  0  0
  8  9  1  0  0  0
  9 10  1  0  0  0
 10 11  1  0  0  0
 11 12  2  0  0  0
 11 13  1  0  0  0
 13 26  1  0  0  0
 26 27  1  0  0  0
 27 28  2  0  0  0
 28 29  1  0  0  0
 29 30  2  0  0  0
 30 31  1  0  0  0
 31 32  2  0  0  0
 13 14  1  0  0  0
 14 15  1  0  0  0
 15 16  2  0  0  0
 15 18  1  0  0  0
 18 19  1  0  0  0
 19 20  1  0  0  0
 20 21  2  0  0  0
 21 22  1  0  0  0
 22 23  2  0  0  0
 23 24  1  0  0  0
 24 25  2  0  0  0
  1 33  1  0  0  0
 33 34  2  0  0  0
 33 35  1  0  0  0
 35 37  1  0  0  0
 37 49  1  0  0  0
 49 50  1  0  0  0
 50 51  1  0  0  0
 51 52  1  0  0  0
 52 54  1  0  0  0
 54 55  1  0  0  0
 54 56  2  0  0  0
 37 38  1  0  0  0
 38 39  2  0  0  0
 38 40  1  0  0  0
 40 41  2  0  0  0
 41 42  1  0  0  0
 42 43  2  0  0  0
 43 44  1  0  0  0
 44 45  2  0  0  0
 45 46  1  0  0  0
 46 47  2  0  0  0
 47 48  1  0  0  0
 10  6  1  0  0  0
 32 27  1  0  0  0
 25 20  1  0  0  0
 48 40  1  0  0  0
 47 42  1  0  0  0
 63 67  1  0  0  0
 63 68  1  0  0  0
 65 69  1  0  0  0
 65 70  1  0  0  0
  2  5  1  0  0  0
 14 17  1  0  0  0
 35 36  1  0  0  0
 52 53  1  0  0  0
 55 57  1  0  0  0
 55 58  1  0  0  0
 56 59  1  0  0  0
M  END
> <minimizedAffinity>
-8.03538

> <CNNscore>
0.4131040573

> <CNNaffinity>
8.1662921906

> <CNN_VS>
3.3735284805

> <CNNaffinity_variance>
0.2907771170

$$$$
[H]N=C(N([H])[H])N([H])C([H])([H])C([H])([H])C([H])([H])[C@@]([H])(C(=O)c1nc2c([H])c([H])c([H])c([H])c2s1)N([H])C(=O)[C@@]([H])(N([H])C(=O)[C@@]1([H])N(C(=O)[C@]([H])(N([H])C(=O)OC([H])([H])c2c([H])c([H])c([H])c([H])c2[H])C([H])([H])c2c([H])c([H])c([H])c([H])c2[H])C([H])([H])C([H])([H])C1([H])[H])C([H])([H])C([H])([H])C([H])([H])N=C(N([H])[H])N([H])[H]


 70 74  0  0  0  0  0  0  0  0999 V2000
   39.5266   16.6913   -9.1480 C   0  0  0  0  0  0  0  0  0  0  0  0
   38.4623   17.4170   -8.5261 N   0  0  0  0  0  0  0  0  0  0  0  0
   37.6978   18.4677   -9.0022 C   0  0  0  0  0  0  0  0  0  0  0  0
   37.8768   18.9811  -10.1454 O   0  0  0  0  0  0  0  0  0  0  0  0
   38.2402   17.0836   -7.5269 H   0  0  0  0  0  0  0  0  0  0  0  0
   36.5936   19.0521   -8.1499 C   0  0  0  0  0  0  0  0  0  0  0  0
   36.7517   20.5325   -7.9727 C   0  0  0  0  0  0  0  0  0  0  0  0
   37.7493   20.5688   -6.8201 C   0  0  0  0  0  0  0  0  0  0  0  0
   37.2826   19.4066   -5.9402 C   0  0  0  0  0  0  0  0  0  0  0  0
   36.6198   18.4716   -6.8036 N   0  0  0  0  0  0  0  0  0  0  0  0
   36.0576   17.1952   -6.5097 C   0  0  0  0  0  0  0  0  0  0  0  0
   35.5071   16.5780   -7.4987 O   0  0  0  0  0  0  0  0  0  0  0  0
   36.0301   16.4997   -5.2283 C   0  0  0  0  0  0  0  0  0  0  0  0
   34.9201   16.9468   -4.4238 N   0  0  0  0  0  0  0  0  0  0  0  0
   33.7508   16.1866   -4.3053 C   0  0  0  0  0  0  0  0  0  0  0  0
   33.6205   15.0971   -4.8975 O   0  0  0  0  0  0  0  0  0  0  0  0
   34.9314   17.8647   -3.8864 H   0  0  0  0  0  0  0  0  0  0  0  0
   32.6590   16.5915   -3.5230 O   0  0  0  0  0  0  0  0  0  0  0  0
   32.2572   17.9254   -3.5403 C   0  0  0  0  0  0  0  0  0  0  0  0
   31.5884   18.3723   -4.7668 C   0  0  0  0  0  0  0  0  0  0  0  0
   30.4572   17.7639   -5.2317 C   0  0  0  0  0  0  0  0  0  0  0  0
   29.8449   18.1882   -6.3854 C   0  0  0  0  0  0  0  0  0  0  0  0
   30.3596   19.2435   -7.1052 C   0  0  0  0  0  0  0  0  0  0  0  0
   31.4958   19.8415   -6.6221 C   0  0  0  0  0  0  0  0  0  0  0  0
   32.1228   19.4336   -5.4733 C   0  0  0  0  0  0  0  0  0  0  0  0
   37.3135   16.3233   -4.5043 C   0  0  0  0  0  0  0  0  0  0  0  0
   38.0304   15.1626   -5.1566 C   0  0  0  0  0  0  0  0  0  0  0  0
   37.4213   14.2865   -6.0134 C   0  0  0  0  0  0  0  0  0  0  0  0
   38.1291   13.2430   -6.6126 C   0  0  0  0  0  0  0  0  0  0  0  0
   39.4704   13.0610   -6.3590 C   0  0  0  0  0  0  0  0  0  0  0  0
   40.0821   13.9459   -5.4942 C   0  0  0  0  0  0  0  0  0  0  0  0
   39.3905   14.9762   -4.9006 C   0  0  0  0  0  0  0  0  0  0  0  0
   39.0463   15.7280  -10.1203 C   0  0  0  0  0  0  0  0  0  0  0  0
   38.8499   14.5308   -9.7259 O   0  0  0  0  0  0  0  0  0  0  0  0
   38.7782   16.0179  -11.4777 N   0  0  0  0  0  0  0  0  0  0  0  0
   38.9146   16.9663  -11.8614 H   0  0  0  0  0  0  0  0  0  0  0  0
   38.2805   14.9257  -12.4003 C   0  0  0  0  0  0  0  0  0  0  0  0
   39.3054   14.8997  -13.4657 C   0  0  0  0  0  0  0  0  0  0  0  0
   40.2912   15.7110  -13.4277 O   0  0  0  0  0  0  0  0  0  0  0  0
   39.2410   13.9592  -14.5847 C   0  0  0  0  0  0  0  0  0  0  0  0
   40.0281   13.6891  -15.5896 N   0  0  0  0  0  0  0  0  0  0  0  0
   39.7325   12.7745  -16.4707 C   0  0  0  0  0  0  0  0  0  0  0  0
   40.5208   12.4152  -17.5826 C   0  0  0  0  0  0  0  0  0  0  0  0
   40.1029   11.4439  -18.4260 C   0  0  0  0  0  0  0  0  0  0  0  0
   38.9278   10.7602  -18.2727 C   0  0  0  0  0  0  0  0  0  0  0  0
   38.1466   11.0952  -17.1970 C   0  0  0  0  0  0  0  0  0  0  0  0
   38.5534   12.1025  -16.2991 C   0  0  0  0  0  0  0  0  0  0  0  0
   37.9419   12.8243  -14.8848 S   0  0  0  0  0  0  0  0  0  0  0  0
   36.9633   15.4812  -12.8900 C   0  0  0  0  0  0  0  0  0  0  0  0
   36.0560   16.1034  -11.9202 C   0  0  0  0  0  0  0  0  0  0  0  0
   35.0760   15.1278  -11.2850 C   0  0  0  0  0  0  0  0  0  0  0  0
   34.7230   14.1556  -12.2993 N   0  0  0  0  0  0  0  0  0  0  0  0
   35.3811   13.4275  -12.6655 H   0  0  0  0  0  0  0  0  0  0  0  0
   33.4133   14.1789  -12.8400 C   0  0  0  0  0  0  0  0  0  0  0  0
   33.1429   13.7219  -14.1630 N   0  0  0  0  0  0  0  0  0  0  0  0
   32.3977   14.6164  -12.1555 N   0  0  0  0  0  0  0  0  0  0  0  0
   32.9701   12.7159  -14.3974 H   0  0  0  0  0  0  0  0  0  0  0  0
   33.1101   14.4048  -14.9572 H   0  0  0  0  0  0  0  0  0  0  0  0
   31.4337   14.6399  -12.5370 H   0  0  0  0  0  0  0  0  0  0  0  0
   40.5943   16.1652   -8.2010 C   0  0  0  0  0  0  0  0  0  0  0  0
   41.9469   16.1464   -8.8602 C   0  0  0  0  0  0  0  0  0  0  0  0
   42.4229   14.7094   -9.0529 C   0  0  0  0  0  0  0  0  0  0  0  0
   44.9660   14.5464  -11.7344 N   0  0  0  0  0  0  0  0  0  0  0  0
   43.7181   14.5386  -11.0698 C   0  0  0  0  0  0  0  0  0  0  0  0
   42.5249   14.3452  -11.8097 N   0  0  0  0  0  0  0  0  0  0  0  0
   43.6537   14.7052   -9.7950 N   0  0  0  0  0  0  0  0  0  0  0  0
   45.2136   13.9457  -12.5317 H   0  0  0  0  0  0  0  0  0  0  0  0
   45.7074   15.2163  -11.3946 H   0  0  0  0  0  0  0  0  0  0  0  0
   42.0808   13.4168  -11.9478 H   0  0  0  0  0  0  0  0  0  0  0  0
   42.0378   15.1544  -12.2536 H   0  0  0  0  0  0  0  0  0  0  0  0
 63 64  1  0  0  0
 64 65  1  0  0  0
 64 66  2  0  0  0
 66 62  1  0  0  0
 62 61  1  0  0  0
 61 60  1  0  0  0
 60  1  1  0  0  0
  1  2  1  0  0  0
  2  3  1  0  0  0
  3  4  2  0  0  0
  3  6  1  0  0  0
  6  7  1  0  0  0
  7  8  1  0  0  0
  8  9  1  0  0  0
  9 10  1  0  0  0
 10 11  1  0  0  0
 11 12  2  0  0  0
 11 13  1  0  0  0
 13 26  1  0  0  0
 26 27  1  0  0  0
 27 28  2  0  0  0
 28 29  1  0  0  0
 29 30  2  0  0  0
 30 31  1  0  0  0
 31 32  2  0  0  0
 13 14  1  0  0  0
 14 15  1  0  0  0
 15 16  2  0  0  0
 15 18  1  0  0  0
 18 19  1  0  0  0
 19 20  1  0  0  0
 20 21  2  0  0  0
 21 22  1  0  0  0
 22 23  2  0  0  0
 23 24  1  0  0  0
 24 25  2  0  0  0
  1 33  1  0  0  0
 33 34  2  0  0  0
 33 35  1  0  0  0
 35 37  1  0  0  0
 37 49  1  0  0  0
 49 50  1  0  0  0
 50 51  1  0  0  0
 51 52  1  0  0  0
 52 54  1  0  0  0
 54 55  1  0  0  0
 54 56  2  0  0  0
 37 38  1  0  0  0
 38 39  2  0  0  0
 38 40  1  0  0  0
 40 41  2  0  0  0
 41 42  1  0  0  0
 42 43  2  0  0  0
 43 44  1  0  0  0
 44 45  2  0  0  0
 45 46  1  0  0  0
 46 47  2  0  0  0
 47 48  1  0  0  0
 10  6  1  0  0  0
 32 27  1  0  0  0
 25 20  1  0  0  0
 48 40  1  0  0  0
 47 42  1  0  0  0
 63 67  1  0  0  0
 63 68  1  0  0  0
 65 69  1  0  0  0
 65 70  1  0  0  0
  2  5  1  0  0  0
 14 17  1  0  0  0
 35 36  1  0  0  0
 52 53  1  0  0  0
 55 57  1  0  0  0
 55 58  1  0  0  0
 56 59  1  0  0  0
M  END
> <minimizedAffinity>
-8.24122

> <CNNscore>
0.3158339858

> <CNNaffinity>
7.7409958839

> <CNN_VS>
2.4448695183

> <CNNaffinity_variance>
0.3825911582

$$$$
[H]N=C(N([H])[H])N([H])C([H])([H])C([H])([H])C([H])([H])[C@@]([H])(C(=O)c1nc2c([H])c([H])c([H])c([H])c2s1)N([H])C(=O)[C@@]([H])(N([H])C(=O)[C@@]1([H])N(C(=O)[C@]([H])(N([H])C(=O)OC([H])([H])c2c([H])c([H])c([H])c([H])c2[H])C([H])([H])c2c([H])c([H])c([H])c([H])c2[H])C([H])([H])C([H])([H])C1([H])[H])C([H])([H])C([H])([H])C([H])([H])N=C(N([H])[H])N([H])[H]


 70 74  0  0  0  0  0  0  0  0999 V2000
   37.3974   16.5601   -7.8677 C   0  0  0  0  0  0  0  0  0  0  0  0
   38.0346   15.8663   -6.7914 N   0  0  0  0  0  0  0  0  0  0  0  0
   37.6032   15.6322   -5.4975 C   0  0  0  0  0  0  0  0  0  0  0  0
   36.4976   16.0630   -5.0564 O   0  0  0  0  0  0  0  0  0  0  0  0
   39.0062   15.4781   -7.0447 H   0  0  0  0  0  0  0  0  0  0  0  0
   38.4610   14.8323   -4.5427 C   0  0  0  0  0  0  0  0  0  0  0  0
   38.7623   15.5988   -3.2899 C   0  0  0  0  0  0  0  0  0  0  0  0
   39.9481   16.4365   -3.7559 C   0  0  0  0  0  0  0  0  0  0  0  0
   40.7147   15.4588   -4.6499 C   0  0  0  0  0  0  0  0  0  0  0  0
   39.7562   14.5175   -5.1540 N   0  0  0  0  0  0  0  0  0  0  0  0
   39.9265   13.4436   -6.0755 C   0  0  0  0  0  0  0  0  0  0  0  0
   38.8724   12.7481   -6.3352 O   0  0  0  0  0  0  0  0  0  0  0  0
   41.1459   13.0353   -6.7632 C   0  0  0  0  0  0  0  0  0  0  0  0
   41.1974   13.5909   -8.0929 N   0  0  0  0  0  0  0  0  0  0  0  0
   42.0213   14.6806   -8.3979 C   0  0  0  0  0  0  0  0  0  0  0  0
   42.7364   15.2184   -7.5296 O   0  0  0  0  0  0  0  0  0  0  0  0
   40.6200   13.2076   -8.8998 H   0  0  0  0  0  0  0  0  0  0  0  0
   42.0989   15.2361   -9.6837 O   0  0  0  0  0  0  0  0  0  0  0  0
   43.1323   14.8550  -10.5367 C   0  0  0  0  0  0  0  0  0  0  0  0
   43.8814   15.9522  -11.1583 C   0  0  0  0  0  0  0  0  0  0  0  0
   43.7605   16.2431  -12.4874 C   0  0  0  0  0  0  0  0  0  0  0  0
   44.4731   17.2691  -13.0581 C   0  0  0  0  0  0  0  0  0  0  0  0
   45.3313   18.0336  -12.2995 C   0  0  0  0  0  0  0  0  0  0  0  0
   45.4388   17.7262  -10.9669 C   0  0  0  0  0  0  0  0  0  0  0  0
   44.7372   16.7065  -10.3776 C   0  0  0  0  0  0  0  0  0  0  0  0
   41.5697   11.6180   -6.6464 C   0  0  0  0  0  0  0  0  0  0  0  0
   42.4645   11.5253   -5.4309 C   0  0  0  0  0  0  0  0  0  0  0  0
   43.4973   12.3898   -5.1881 C   0  0  0  0  0  0  0  0  0  0  0  0
   44.2825   12.2816   -4.0390 C   0  0  0  0  0  0  0  0  0  0  0  0
   44.0418   11.2959   -3.1080 C   0  0  0  0  0  0  0  0  0  0  0  0
   42.9998   10.4252   -3.3556 C   0  0  0  0  0  0  0  0  0  0  0  0
   42.2221   10.5263   -4.4857 C   0  0  0  0  0  0  0  0  0  0  0  0
   37.1361   15.6984   -9.0049 C   0  0  0  0  0  0  0  0  0  0  0  0
   36.6251   14.5517   -8.7784 O   0  0  0  0  0  0  0  0  0  0  0  0
   37.4061   16.0358  -10.3509 N   0  0  0  0  0  0  0  0  0  0  0  0
   37.8180   16.9479  -10.6037 H   0  0  0  0  0  0  0  0  0  0  0  0
   37.0907   15.0499  -11.4557 C   0  0  0  0  0  0  0  0  0  0  0  0
   38.2942   15.1164  -12.3121 C   0  0  0  0  0  0  0  0  0  0  0  0
   39.2259   15.9485  -12.0462 O   0  0  0  0  0  0  0  0  0  0  0  0
   38.4707   14.2458  -13.4748 C   0  0  0  0  0  0  0  0  0  0  0  0
   37.6797   13.4511  -14.1419 N   0  0  0  0  0  0  0  0  0  0  0  0
   38.0955   12.7711  -15.1739 C   0  0  0  0  0  0  0  0  0  0  0  0
   37.3142   11.8939  -15.9528 C   0  0  0  0  0  0  0  0  0  0  0  0
   37.8649   11.2461  -17.0048 C   0  0  0  0  0  0  0  0  0  0  0  0
   39.1727   11.3855  -17.3811 C   0  0  0  0  0  0  0  0  0  0  0  0
   39.9496   12.2344  -16.6358 C   0  0  0  0  0  0  0  0  0  0  0  0
   39.4064   12.9249  -15.5337 C   0  0  0  0  0  0  0  0  0  0  0  0
   39.9610   14.0348  -14.3694 S   0  0  0  0  0  0  0  0  0  0  0  0
   35.8840   15.6718  -12.1192 C   0  0  0  0  0  0  0  0  0  0  0  0
   34.5502   15.3515  -11.6002 C   0  0  0  0  0  0  0  0  0  0  0  0
   33.6012   14.7953  -12.6516 C   0  0  0  0  0  0  0  0  0  0  0  0
   34.4153   14.1701  -13.6740 N   0  0  0  0  0  0  0  0  0  0  0  0
   35.0390   14.6986  -14.3289 H   0  0  0  0  0  0  0  0  0  0  0  0
   34.3752   12.7602  -13.8103 C   0  0  0  0  0  0  0  0  0  0  0  0
   33.5069   12.1243  -14.7451 N   0  0  0  0  0  0  0  0  0  0  0  0
   35.1284   11.9811  -13.0912 N   0  0  0  0  0  0  0  0  0  0  0  0
   33.7557   11.9808  -15.7522 H   0  0  0  0  0  0  0  0  0  0  0  0
   32.5688   11.7747  -14.4355 H   0  0  0  0  0  0  0  0  0  0  0  0
   35.1105   10.9480  -13.1792 H   0  0  0  0  0  0  0  0  0  0  0  0
   38.0000   17.9126   -8.2160 C   0  0  0  0  0  0  0  0  0  0  0  0
   37.2892   19.0278   -7.4980 C   0  0  0  0  0  0  0  0  0  0  0  0
   37.4684   20.3426   -8.2517 C   0  0  0  0  0  0  0  0  0  0  0  0
   35.8298   23.3613   -6.8782 N   0  0  0  0  0  0  0  0  0  0  0  0
   36.1801   22.3095   -7.7557 C   0  0  0  0  0  0  0  0  0  0  0  0
   35.5569   22.2111   -9.0248 N   0  0  0  0  0  0  0  0  0  0  0  0
   37.0627   21.4372   -7.4135 N   0  0  0  0  0  0  0  0  0  0  0  0
   35.6100   24.3233   -7.1685 H   0  0  0  0  0  0  0  0  0  0  0  0
   35.7875   23.1545   -5.8441 H   0  0  0  0  0  0  0  0  0  0  0  0
   35.9555   22.6206   -9.8917 H   0  0  0  0  0  0  0  0  0  0  0  0
   34.6491   21.7081   -9.1335 H   0  0  0  0  0  0  0  0  0  0  0  0
 63 64  1  0  0  0
 64 65  1  0  0  0
 64 66  2  0  0  0
 66 62  1  0  0  0
 62 61  1  0  0  0
 61 60  1  0  0  0
 60  1  1  0  0  0
  1  2  1  0  0  0
  2  3  1  0  0  0
  3  4  2  0  0  0
  3  6  1  0  0  0
  6  7  1  0  0  0
  7  8  1  0  0  0
  8  9  1  0  0  0
  9 10  1  0  0  0
 10 11  1  0  0  0
 11 12  2  0  0  0
 11 13  1  0  0  0
 13 26  1  0  0  0
 26 27  1  0  0  0
 27 28  2  0  0  0
 28 29  1  0  0  0
 29 30  2  0  0  0
 30 31  1  0  0  0
 31 32  2  0  0  0
 13 14  1  0  0  0
 14 15  1  0  0  0
 15 16  2  0  0  0
 15 18  1  0  0  0
 18 19  1  0  0  0
 19 20  1  0  0  0
 20 21  2  0  0  0
 21 22  1  0  0  0
 22 23  2  0  0  0
 23 24  1  0  0  0
 24 25  2  0  0  0
  1 33  1  0  0  0
 33 34  2  0  0  0
 33 35  1  0  0  0
 35 37  1  0  0  0
 37 49  1  0  0  0
 49 50  1  0  0  0
 50 51  1  0  0  0
 51 52  1  0  0  0
 52 54  1  0  0  0
 54 55  1  0  0  0
 54 56  2  0  0  0
 37 38  1  0  0  0
 38 39  2  0  0  0
 38 40  1  0  0  0
 40 41  2  0  0  0
 41 42  1  0  0  0
 42 43  2  0  0  0
 43 44  1  0  0  0
 44 45  2  0  0  0
 45 46  1  0  0  0
 46 47  2  0  0  0
 47 48  1  0  0  0
 10  6  1  0  0  0
 32 27  1  0  0  0
 25 20  1  0  0  0
 48 40  1  0  0  0
 47 42  1  0  0  0
 63 67  1  0  0  0
 63 68  1  0  0  0
 65 69  1  0  0  0
 65 70  1  0  0  0
  2  5  1  0  0  0
 14 17  1  0  0  0
 35 36  1  0  0  0
 52 53  1  0  0  0
 55 57  1  0  0  0
 55 58  1  0  0  0
 56 59  1  0  0  0
M  END
> <minimizedAffinity>
-8.87187

> <CNNscore>
0.3012014627

> <CNNaffinity>
7.5243644714

> <CNN_VS>
2.2663495541

> <CNNaffinity_variance>
0.9432463646

$$$$
[H]N=C(N([H])[H])N([H])C([H])([H])C([H])([H])C([H])([H])[C@@]([H])(C(=O)c1nc2c([H])c([H])c([H])c([H])c2s1)N([H])C(=O)[C@@]([H])(N([H])C(=O)[C@@]1([H])N(C(=O)[C@]([H])(N([H])C(=O)OC([H])([H])c2c([H])c([H])c([H])c([H])c2[H])C([H])([H])c2c([H])c([H])c([H])c([H])c2[H])C([H])([H])C([H])([H])C1([H])[H])C([H])([H])C([H])([H])C([H])([H])N=C(N([H])[H])N([H])[H]


 70 74  0  0  0  0  0  0  0  0999 V2000
   39.6478   16.6876  -10.1460 C   0  0  0  0  0  0  0  0  0  0  0  0
   38.6907   17.2765   -9.2610 N   0  0  0  0  0  0  0  0  0  0  0  0
   37.8367   18.3486   -9.4514 C   0  0  0  0  0  0  0  0  0  0  0  0
   37.8094   19.0193  -10.5247 O   0  0  0  0  0  0  0  0  0  0  0  0
   38.6476   16.8016   -8.2958 H   0  0  0  0  0  0  0  0  0  0  0  0
   36.8821   18.7648   -8.3548 C   0  0  0  0  0  0  0  0  0  0  0  0
   37.1002   20.1883   -7.9377 C   0  0  0  0  0  0  0  0  0  0  0  0
   38.2548   20.0160   -6.9567 C   0  0  0  0  0  0  0  0  0  0  0  0
   37.8922   18.7115   -6.2429 C   0  0  0  0  0  0  0  0  0  0  0  0
   37.0889   17.9482   -7.1545 N   0  0  0  0  0  0  0  0  0  0  0  0
   36.5442   16.6382   -7.0171 C   0  0  0  0  0  0  0  0  0  0  0  0
   35.8415   16.2106   -8.0098 O   0  0  0  0  0  0  0  0  0  0  0  0
   36.6857   15.7203   -5.8929 C   0  0  0  0  0  0  0  0  0  0  0  0
   35.4026   15.4264   -5.3040 N   0  0  0  0  0  0  0  0  0  0  0  0
   34.8883   14.1247   -5.2853 C   0  0  0  0  0  0  0  0  0  0  0  0
   35.5162   13.1701   -5.7845 O   0  0  0  0  0  0  0  0  0  0  0  0
   34.7885   16.1728   -4.8598 H   0  0  0  0  0  0  0  0  0  0  0  0
   33.6480   13.8075   -4.7116 O   0  0  0  0  0  0  0  0  0  0  0  0
   32.5428   14.6145   -4.9722 C   0  0  0  0  0  0  0  0  0  0  0  0
   31.8953   14.4061   -6.2718 C   0  0  0  0  0  0  0  0  0  0  0  0
   31.9467   15.3476   -7.2600 C   0  0  0  0  0  0  0  0  0  0  0  0
   31.3301   15.1425   -8.4699 C   0  0  0  0  0  0  0  0  0  0  0  0
   30.6415   13.9757   -8.7170 C   0  0  0  0  0  0  0  0  0  0  0  0
   30.6015   13.0424   -7.7124 C   0  0  0  0  0  0  0  0  0  0  0  0
   31.2095   13.2273   -6.4977 C   0  0  0  0  0  0  0  0  0  0  0  0
   37.7894   15.9625   -4.9310 C   0  0  0  0  0  0  0  0  0  0  0  0
   39.0303   15.3266   -5.5164 C   0  0  0  0  0  0  0  0  0  0  0  0
   40.3005   15.6577   -5.1295 C   0  0  0  0  0  0  0  0  0  0  0  0
   41.4172   15.0262   -5.6799 C   0  0  0  0  0  0  0  0  0  0  0  0
   41.2754   14.0446   -6.6354 C   0  0  0  0  0  0  0  0  0  0  0  0
   39.9931   13.7130   -7.0240 C   0  0  0  0  0  0  0  0  0  0  0  0
   38.8886   14.3312   -6.4856 C   0  0  0  0  0  0  0  0  0  0  0  0
   39.0859   15.6016  -10.9264 C   0  0  0  0  0  0  0  0  0  0  0  0
   38.4534   14.6855  -10.3035 O   0  0  0  0  0  0  0  0  0  0  0  0
   39.1869   15.4822  -12.3314 N   0  0  0  0  0  0  0  0  0  0  0  0
   39.6839   16.1891  -12.8960 H   0  0  0  0  0  0  0  0  0  0  0  0
   38.5591   14.2991  -13.0370 C   0  0  0  0  0  0  0  0  0  0  0  0
   39.6270   13.8595  -13.9603 C   0  0  0  0  0  0  0  0  0  0  0  0
   40.8461   14.1531  -13.7178 O   0  0  0  0  0  0  0  0  0  0  0  0
   39.3417   13.0795  -15.1649 C   0  0  0  0  0  0  0  0  0  0  0  0
   39.9585   12.9072  -16.3017 N   0  0  0  0  0  0  0  0  0  0  0  0
   39.4804   12.1326  -17.2353 C   0  0  0  0  0  0  0  0  0  0  0  0
   40.0772   11.8861  -18.4882 C   0  0  0  0  0  0  0  0  0  0  0  0
   39.4798   11.0561  -19.3736 C   0  0  0  0  0  0  0  0  0  0  0  0
   38.2954   10.4155  -19.1325 C   0  0  0  0  0  0  0  0  0  0  0  0
   37.6988   10.6423  -17.9191 C   0  0  0  0  0  0  0  0  0  0  0  0
   38.2953   11.5012  -16.9741 C   0  0  0  0  0  0  0  0  0  0  0  0
   37.9402   12.0581  -15.4061 S   0  0  0  0  0  0  0  0  0  0  0  0
   37.3968   14.9293  -13.7687 C   0  0  0  0  0  0  0  0  0  0  0  0
   36.0995   15.0159  -13.0901 C   0  0  0  0  0  0  0  0  0  0  0  0
   35.7967   13.8244  -12.1933 C   0  0  0  0  0  0  0  0  0  0  0  0
   34.7281   13.0762  -12.8232 N   0  0  0  0  0  0  0  0  0  0  0  0
   34.7705   12.0479  -13.0183 H   0  0  0  0  0  0  0  0  0  0  0  0
   33.5488   13.7622  -13.2062 C   0  0  0  0  0  0  0  0  0  0  0  0
   33.0868   13.7586  -14.5548 N   0  0  0  0  0  0  0  0  0  0  0  0
   32.8328   14.4255  -12.3467 N   0  0  0  0  0  0  0  0  0  0  0  0
   32.4926   12.9944  -14.9546 H   0  0  0  0  0  0  0  0  0  0  0  0
   33.3398   14.5462  -15.1979 H   0  0  0  0  0  0  0  0  0  0  0  0
   31.9678   14.9325  -12.6113 H   0  0  0  0  0  0  0  0  0  0  0  0
   41.0078   16.3952   -9.5308 C   0  0  0  0  0  0  0  0  0  0  0  0
   42.0134   16.0175  -10.5846 C   0  0  0  0  0  0  0  0  0  0  0  0
   42.9175   14.8975  -10.0775 C   0  0  0  0  0  0  0  0  0  0  0  0
   45.0065   12.8003  -12.2961 N   0  0  0  0  0  0  0  0  0  0  0  0
   44.2174   13.2162  -11.1991 C   0  0  0  0  0  0  0  0  0  0  0  0
   43.9618   12.3189  -10.1323 N   0  0  0  0  0  0  0  0  0  0  0  0
   43.7273   14.4057  -11.1582 N   0  0  0  0  0  0  0  0  0  0  0  0
   45.8279   12.1846  -12.2322 H   0  0  0  0  0  0  0  0  0  0  0  0
   44.7411   13.1418  -13.2588 H   0  0  0  0  0  0  0  0  0  0  0  0
   44.5400   12.2735   -9.2711 H   0  0  0  0  0  0  0  0  0  0  0  0
   43.1590   11.6537  -10.1782 H   0  0  0  0  0  0  0  0  0  0  0  0
 63 64  1  0  0  0
 64 65  1  0  0  0
 64 66  2  0  0  0
 66 62  1  0  0  0
 62 61  1  0  0  0
 61 60  1  0  0  0
 60  1  1  0  0  0
  1  2  1  0  0  0
  2  3  1  0  0  0
  3  4  2  0  0  0
  3  6  1  0  0  0
  6  7  1  0  0  0
  7  8  1  0  0  0
  8  9  1  0  0  0
  9 10  1  0  0  0
 10 11  1  0  0  0
 11 12  2  0  0  0
 11 13  1  0  0  0
 13 26  1  0  0  0
 26 27  1  0  0  0
 27 28  2  0  0  0
 28 29  1  0  0  0
 29 30  2  0  0  0
 30 31  1  0  0  0
 31 32  2  0  0  0
 13 14  1  0  0  0
 14 15  1  0  0  0
 15 16  2  0  0  0
 15 18  1  0  0  0
 18 19  1  0  0  0
 19 20  1  0  0  0
 20 21  2  0  0  0
 21 22  1  0  0  0
 22 23  2  0  0  0
 23 24  1  0  0  0
 24 25  2  0  0  0
  1 33  1  0  0  0
 33 34  2  0  0  0
 33 35  1  0  0  0
 35 37  1  0  0  0
 37 49  1  0  0  0
 49 50  1  0  0  0
 50 51  1  0  0  0
 51 52  1  0  0  0
 52 54  1  0  0  0
 54 55  1  0  0  0
 54 56  2  0  0  0
 37 38  1  0  0  0
 38 39  2  0  0  0
 38 40  1  0  0  0
 40 41  2  0  0  0
 41 42  1  0  0  0
 42 43  2  0  0  0
 43 44  1  0  0  0
 44 45  2  0  0  0
 45 46  1  0  0  0
 46 47  2  0  0  0
 47 48  1  0  0  0
 10  6  1  0  0  0
 32 27  1  0  0  0
 25 20  1  0  0  0
 48 40  1  0  0  0
 47 42  1  0  0  0
 63 67  1  0  0  0
 63 68  1  0  0  0
 65 69  1  0  0  0
 65 70  1  0  0  0
  2  5  1  0  0  0
 14 17  1  0  0  0
 35 36  1  0  0  0
 52 53  1  0  0  0
 55 57  1  0  0  0
 55 58  1  0  0  0
 56 59  1  0  0  0
M  END
> <minimizedAffinity>
-8.45740

> <CNNscore>
0.2366613150

> <CNNaffinity>
7.6838250160

> <CNN_VS>
1.8184641600

> <CNNaffinity_variance>
0.8134508133

$$$$
[H]N=C(N([H])[H])N([H])C([H])([H])C([H])([H])C([H])([H])[C@@]([H])(C(=O)c1nc2c([H])c([H])c([H])c([H])c2s1)N([H])C(=O)[C@@]([H])(N([H])C(=O)[C@@]1([H])N(C(=O)[C@]([H])(N([H])C(=O)OC([H])([H])c2c([H])c([H])c([H])c([H])c2[H])C([H])([H])c2c([H])c([H])c([H])c([H])c2[H])C([H])([H])C([H])([H])C1([H])[H])C([H])([H])C([H])([H])C([H])([H])N=C(N([H])[H])N([H])[H]


 70 74  0  0  0  0  0  0  0  0999 V2000
   40.2976   15.7807   -7.9707 C   0  0  0  0  0  0  0  0  0  0  0  0
   39.8625   16.9073   -7.2042 N   0  0  0  0  0  0  0  0  0  0  0  0
   39.2858   16.9659   -5.9476 C   0  0  0  0  0  0  0  0  0  0  0  0
   39.0256   15.9318   -5.2653 O   0  0  0  0  0  0  0  0  0  0  0  0
   40.0080   17.8498   -7.7035 H   0  0  0  0  0  0  0  0  0  0  0  0
   38.9388   18.3028   -5.3316 C   0  0  0  0  0  0  0  0  0  0  0  0
   39.2001   18.3200   -3.8554 C   0  0  0  0  0  0  0  0  0  0  0  0
   37.9179   17.6761   -3.3393 C   0  0  0  0  0  0  0  0  0  0  0  0
   36.8533   18.2657   -4.2675 C   0  0  0  0  0  0  0  0  0  0  0  0
   37.5112   18.5926   -5.5000 N   0  0  0  0  0  0  0  0  0  0  0  0
   36.9730   19.1067   -6.7156 C   0  0  0  0  0  0  0  0  0  0  0  0
   37.8197   19.3181   -7.6646 O   0  0  0  0  0  0  0  0  0  0  0  0
   35.5819   19.4211   -7.0196 C   0  0  0  0  0  0  0  0  0  0  0  0
   34.9965   18.4056   -7.8596 N   0  0  0  0  0  0  0  0  0  0  0  0
   34.2202   17.3718   -7.3230 C   0  0  0  0  0  0  0  0  0  0  0  0
   34.0117   17.2843   -6.0969 O   0  0  0  0  0  0  0  0  0  0  0  0
   35.1226   18.3890   -8.9157 H   0  0  0  0  0  0  0  0  0  0  0  0
   33.6309   16.3760   -8.1161 O   0  0  0  0  0  0  0  0  0  0  0  0
   32.2542   16.3908   -8.3289 C   0  0  0  0  0  0  0  0  0  0  0  0
   31.5490   15.1428   -8.0179 C   0  0  0  0  0  0  0  0  0  0  0  0
   31.8913   14.3719   -6.9435 C   0  0  0  0  0  0  0  0  0  0  0  0
   31.2271   13.2020   -6.6677 C   0  0  0  0  0  0  0  0  0  0  0  0
   30.1939   12.7758   -7.4724 C   0  0  0  0  0  0  0  0  0  0  0  0
   29.8648   13.5637   -8.5461 C   0  0  0  0  0  0  0  0  0  0  0  0
   30.5150   14.7344   -8.8394 C   0  0  0  0  0  0  0  0  0  0  0  0
   35.2478   20.8207   -7.3823 C   0  0  0  0  0  0  0  0  0  0  0  0
   34.3586   21.3593   -6.2842 C   0  0  0  0  0  0  0  0  0  0  0  0
   34.0104   20.6375   -5.1749 C   0  0  0  0  0  0  0  0  0  0  0  0
   33.2065   21.1844   -4.1731 C   0  0  0  0  0  0  0  0  0  0  0  0
   32.7355   22.4749   -4.2699 C   0  0  0  0  0  0  0  0  0  0  0  0
   33.0880   23.2004   -5.3900 C   0  0  0  0  0  0  0  0  0  0  0  0
   33.8798   22.6676   -6.3805 C   0  0  0  0  0  0  0  0  0  0  0  0
   39.3171   15.3700   -8.9576 C   0  0  0  0  0  0  0  0  0  0  0  0
   38.3706   14.6053   -8.5744 O   0  0  0  0  0  0  0  0  0  0  0  0
   39.3317   15.7556  -10.3175 N   0  0  0  0  0  0  0  0  0  0  0  0
   40.0685   16.3736  -10.6926 H   0  0  0  0  0  0  0  0  0  0  0  0
   38.2519   15.2601  -11.2558 C   0  0  0  0  0  0  0  0  0  0  0  0
   38.9341   15.2462  -12.5675 C   0  0  0  0  0  0  0  0  0  0  0  0
   39.8613   16.0881  -12.8177 O   0  0  0  0  0  0  0  0  0  0  0  0
   38.5888   14.2835  -13.6140 C   0  0  0  0  0  0  0  0  0  0  0  0
   37.4676   13.7712  -14.0416 N   0  0  0  0  0  0  0  0  0  0  0  0
   37.4315   12.9116  -15.0214 C   0  0  0  0  0  0  0  0  0  0  0  0
   36.2708   12.3106  -15.5489 C   0  0  0  0  0  0  0  0  0  0  0  0
   36.3662   11.4318  -16.5726 C   0  0  0  0  0  0  0  0  0  0  0  0
   37.5507   11.0707  -17.1542 C   0  0  0  0  0  0  0  0  0  0  0  0
   38.6915   11.6444  -16.6552 C   0  0  0  0  0  0  0  0  0  0  0  0
   38.6266   12.5642  -15.5892 C   0  0  0  0  0  0  0  0  0  0  0  0
   39.7277   13.4917  -14.6824 S   0  0  0  0  0  0  0  0  0  0  0  0
   37.2103   16.3511  -11.1667 C   0  0  0  0  0  0  0  0  0  0  0  0
   35.8147   15.9753  -10.9180 C   0  0  0  0  0  0  0  0  0  0  0  0
   35.4431   14.6042  -11.4634 C   0  0  0  0  0  0  0  0  0  0  0  0
   34.8204   14.8125  -12.7547 N   0  0  0  0  0  0  0  0  0  0  0  0
   35.2926   15.2836  -13.5624 H   0  0  0  0  0  0  0  0  0  0  0  0
   33.4924   14.3592  -12.9527 C   0  0  0  0  0  0  0  0  0  0  0  0
   33.1323   13.5732  -14.0861 N   0  0  0  0  0  0  0  0  0  0  0  0
   32.5414   14.6373  -12.1103 N   0  0  0  0  0  0  0  0  0  0  0  0
   33.2445   12.5325  -14.1205 H   0  0  0  0  0  0  0  0  0  0  0  0
   32.7343   14.0342  -14.9388 H   0  0  0  0  0  0  0  0  0  0  0  0
   31.5650   14.3131  -12.2412 H   0  0  0  0  0  0  0  0  0  0  0  0
   40.9086   14.6440   -7.1656 C   0  0  0  0  0  0  0  0  0  0  0  0
   41.8373   13.8147   -8.0107 C   0  0  0  0  0  0  0  0  0  0  0  0
   42.9598   13.2364   -7.1536 C   0  0  0  0  0  0  0  0  0  0  0  0
   41.9247   10.8983   -4.4804 N   0  0  0  0  0  0  0  0  0  0  0  0
   42.4957   11.4028   -5.6714 C   0  0  0  0  0  0  0  0  0  0  0  0
   43.1743   10.5273   -6.5555 N   0  0  0  0  0  0  0  0  0  0  0  0
   42.4049   12.6532   -5.9630 N   0  0  0  0  0  0  0  0  0  0  0  0
   41.4683    9.9813   -4.3872 H   0  0  0  0  0  0  0  0  0  0  0  0
   41.9646   11.5005   -3.6145 H   0  0  0  0  0  0  0  0  0  0  0  0
   42.7179   10.0639   -7.3649 H   0  0  0  0  0  0  0  0  0  0  0  0
   44.1864   10.3131   -6.4184 H   0  0  0  0  0  0  0  0  0  0  0  0
 63 64  1  0  0  0
 64 65  1  0  0  0
 64 66  2  0  0  0
 66 62  1  0  0  0
 62 61  1  0  0  0
 61 60  1  0  0  0
 60  1  1  0  0  0
  1  2  1  0  0  0
  2  3  1  0  0  0
  3  4  2  0  0  0
  3  6  1  0  0  0
  6  7  1  0  0  0
  7  8  1  0  0  0
  8  9  1  0  0  0
  9 10  1  0  0  0
 10 11  1  0  0  0
 11 12  2  0  0  0
 11 13  1  0  0  0
 13 26  1  0  0  0
 26 27  1  0  0  0
 27 28  2  0  0  0
 28 29  1  0  0  0
 29 30  2  0  0  0
 30 31  1  0  0  0
 31 32  2  0  0  0
 13 14  1  0  0  0
 14 15  1  0  0  0
 15 16  2  0  0  0
 15 18  1  0  0  0
 18 19  1  0  0  0
 19 20  1  0  0  0
 20 21  2  0  0  0
 21 22  1  0  0  0
 22 23  2  0  0  0
 23 24  1  0  0  0
 24 25  2  0  0  0
  1 33  1  0  0  0
 33 34  2  0  0  0
 33 35  1  0  0  0
 35 37  1  0  0  0
 37 49  1  0  0  0
 49 50  1  0  0  0
 50 51  1  0  0  0
 51 52  1  0  0  0
 52 54  1  0  0  0
 54 55  1  0  0  0
 54 56  2  0  0  0
 37 38  1  0  0  0
 38 39  2  0  0  0
 38 40  1  0  0  0
 40 41  2  0  0  0
 41 42  1  0  0  0
 42 43  2  0  0  0
 43 44  1  0  0  0
 44 45  2  0  0  0
 45 46  1  0  0  0
 46 47  2  0  0  0
 47 48  1  0  0  0
 10  6  1  0  0  0
 32 27  1  0  0  0
 25 20  1  0  0  0
 48 40  1  0  0  0
 47 42  1  0  0  0
 63 67  1  0  0  0
 63 68  1  0  0  0
 65 69  1  0  0  0
 65 70  1  0  0  0
  2  5  1  0  0  0
 14 17  1  0  0  0
 35 36  1  0  0  0
 52 53  1  0  0  0
 55 57  1  0  0  0
 55 58  1  0  0  0
 56 59  1  0  0  0
M  END
> <minimizedAffinity>
-8.33862

> <CNNscore>
0.2267321050

> <CNNaffinity>
7.5004577637

> <CNN_VS>
1.7005945444

> <CNNaffinity_variance>
0.7052117586

$$$$
[H]N=C(N([H])[H])N([H])C([H])([H])C([H])([H])C([H])([H])[C@@]([H])(C(=O)c1nc2c([H])c([H])c([H])c([H])c2s1)N([H])C(=O)[C@@]([H])(N([H])C(=O)[C@@]1([H])N(C(=O)[C@]([H])(N([H])C(=O)OC([H])([H])c2c([H])c([H])c([H])c([H])c2[H])C([H])([H])c2c([H])c([H])c([H])c([H])c2[H])C([H])([H])C([H])([H])C1([H])[H])C([H])([H])C([H])([H])C([H])([H])N=C(N([H])[H])N([H])[H]


 70 74  0  0  0  0  0  0  0  0999 V2000
   36.3071   16.5004   -9.3596 C   0  0  0  0  0  0  0  0  0  0  0  0
   36.0451   15.9211   -8.0784 N   0  0  0  0  0  0  0  0  0  0  0  0
   34.8489   15.5409   -7.4958 C   0  0  0  0  0  0  0  0  0  0  0  0
   33.7300   15.6939   -8.0680 O   0  0  0  0  0  0  0  0  0  0  0  0
   36.9304   15.7715   -7.4844 H   0  0  0  0  0  0  0  0  0  0  0  0
   34.8386   14.9129   -6.1200 C   0  0  0  0  0  0  0  0  0  0  0  0
   33.7714   15.5021   -5.2473 C   0  0  0  0  0  0  0  0  0  0  0  0
   34.4847   16.7518   -4.7426 C   0  0  0  0  0  0  0  0  0  0  0  0
   35.9171   16.2549   -4.5329 C   0  0  0  0  0  0  0  0  0  0  0  0
   36.1116   15.1550   -5.4337 N   0  0  0  0  0  0  0  0  0  0  0  0
   37.2785   14.3774   -5.6889 C   0  0  0  0  0  0  0  0  0  0  0  0
   37.1497   13.4310   -6.5549 O   0  0  0  0  0  0  0  0  0  0  0  0
   38.6015   14.5213   -5.0929 C   0  0  0  0  0  0  0  0  0  0  0  0
   39.3312   13.2790   -5.1536 N   0  0  0  0  0  0  0  0  0  0  0  0
   40.4067   13.1057   -6.0325 C   0  0  0  0  0  0  0  0  0  0  0  0
   40.7703   14.0161   -6.8030 O   0  0  0  0  0  0  0  0  0  0  0  0
   39.0935   12.4413   -4.5427 H   0  0  0  0  0  0  0  0  0  0  0  0
   41.1405   11.9123   -6.1070 O   0  0  0  0  0  0  0  0  0  0  0  0
   41.6234   11.3275   -4.9385 C   0  0  0  0  0  0  0  0  0  0  0  0
   43.0787   11.1586   -4.8662 C   0  0  0  0  0  0  0  0  0  0  0  0
   43.7429   11.1467   -3.6727 C   0  0  0  0  0  0  0  0  0  0  0  0
   45.1067   10.9946   -3.6197 C   0  0  0  0  0  0  0  0  0  0  0  0
   45.8415   10.8494   -4.7755 C   0  0  0  0  0  0  0  0  0  0  0  0
   45.1565   10.8636   -5.9639 C   0  0  0  0  0  0  0  0  0  0  0  0
   43.7960   11.0145   -6.0391 C   0  0  0  0  0  0  0  0  0  0  0  0
   38.7115   15.2647   -3.8133 C   0  0  0  0  0  0  0  0  0  0  0  0
   39.6991   16.3872   -4.0403 C   0  0  0  0  0  0  0  0  0  0  0  0
   39.8071   17.0679   -5.2226 C   0  0  0  0  0  0  0  0  0  0  0  0
   40.7169   18.1150   -5.3794 C   0  0  0  0  0  0  0  0  0  0  0  0
   41.5396   18.4983   -4.3436 C   0  0  0  0  0  0  0  0  0  0  0  0
   41.4288   17.8097   -3.1525 C   0  0  0  0  0  0  0  0  0  0  0  0
   40.5343   16.7772   -2.9913 C   0  0  0  0  0  0  0  0  0  0  0  0
   36.8584   15.5422  -10.2988 C   0  0  0  0  0  0  0  0  0  0  0  0
   36.5976   14.3075  -10.1122 O   0  0  0  0  0  0  0  0  0  0  0  0
   37.6660   15.8757  -11.4101 N   0  0  0  0  0  0  0  0  0  0  0  0
   37.9137   16.8557  -11.6191 H   0  0  0  0  0  0  0  0  0  0  0  0
   38.1862   14.7846  -12.3216 C   0  0  0  0  0  0  0  0  0  0  0  0
   39.4605   15.3470  -12.8173 C   0  0  0  0  0  0  0  0  0  0  0  0
   39.8255   16.5188  -12.4639 O   0  0  0  0  0  0  0  0  0  0  0  0
   40.3452   14.5997  -13.7117 C   0  0  0  0  0  0  0  0  0  0  0  0
   40.1676   13.9499  -14.8291 N   0  0  0  0  0  0  0  0  0  0  0  0
   41.1517   13.3577  -15.4464 C   0  0  0  0  0  0  0  0  0  0  0  0
   41.0536   12.6379  -16.6543 C   0  0  0  0  0  0  0  0  0  0  0  0
   42.1540   12.0689  -17.1972 C   0  0  0  0  0  0  0  0  0  0  0  0
   43.4006   12.1439  -16.6386 C   0  0  0  0  0  0  0  0  0  0  0  0
   43.5169   12.8398  -15.4631 C   0  0  0  0  0  0  0  0  0  0  0  0
   42.3899   13.4448  -14.8713 C   0  0  0  0  0  0  0  0  0  0  0  0
   42.0657   14.3705  -13.4809 S   0  0  0  0  0  0  0  0  0  0  0  0
   37.1310   14.7251  -13.4016 C   0  0  0  0  0  0  0  0  0  0  0  0
   36.6562   13.4127  -13.8524 C   0  0  0  0  0  0  0  0  0  0  0  0
   35.5669   12.8197  -12.9709 C   0  0  0  0  0  0  0  0  0  0  0  0
   34.7051   13.9109  -12.5642 N   0  0  0  0  0  0  0  0  0  0  0  0
   34.9992   14.6765  -11.9125 H   0  0  0  0  0  0  0  0  0  0  0  0
   33.3814   13.9588  -13.0678 C   0  0  0  0  0  0  0  0  0  0  0  0
   32.2968   14.4344  -12.2743 N   0  0  0  0  0  0  0  0  0  0  0  0
   33.0942   13.5729  -14.2761 N   0  0  0  0  0  0  0  0  0  0  0  0
   32.0518   15.4490  -12.1883 H   0  0  0  0  0  0  0  0  0  0  0  0
   31.7006   13.7573  -11.7413 H   0  0  0  0  0  0  0  0  0  0  0  0
   32.1309   13.6018  -14.6590 H   0  0  0  0  0  0  0  0  0  0  0  0
   37.0141   17.8469   -9.3315 C   0  0  0  0  0  0  0  0  0  0  0  0
   37.3333   18.2661   -7.9220 C   0  0  0  0  0  0  0  0  0  0  0  0
   36.3210   19.2985   -7.4338 C   0  0  0  0  0  0  0  0  0  0  0  0
   36.6175   22.8966   -8.2398 N   0  0  0  0  0  0  0  0  0  0  0  0
   36.0599   21.6215   -7.9905 C   0  0  0  0  0  0  0  0  0  0  0  0
   34.6564   21.4381   -8.0613 N   0  0  0  0  0  0  0  0  0  0  0  0
   36.8161   20.6213   -7.6994 N   0  0  0  0  0  0  0  0  0  0  0  0
   36.2732   23.5639   -8.9427 H   0  0  0  0  0  0  0  0  0  0  0  0
   37.4510   23.1969   -7.6663 H   0  0  0  0  0  0  0  0  0  0  0  0
   34.1632   21.1181   -8.9172 H   0  0  0  0  0  0  0  0  0  0  0  0
   34.0535   21.6239   -7.2301 H   0  0  0  0  0  0  0  0  0  0  0  0
 63 64  1  0  0  0
 64 65  1  0  0  0
 64 66  2  0  0  0
 66 62  1  0  0  0
 62 61  1  0  0  0
 61 60  1  0  0  0
 60  1  1  0  0  0
  1  2  1  0  0  0
  2  3  1  0  0  0
  3  4  2  0  0  0
  3  6  1  0  0  0
  6  7  1  0  0  0
  7  8  1  0  0  0
  8  9  1  0  0  0
  9 10  1  0  0  0
 10 11  1  0  0  0
 11 12  2  0  0  0
 11 13  1  0  0  0
 13 26  1  0  0  0
 26 27  1  0  0  0
 27 28  2  0  0  0
 28 29  1  0  0  0
 29 30  2  0  0  0
 30 31  1  0  0  0
 31 32  2  0  0  0
 13 14  1  0  0  0
 14 15  1  0  0  0
 15 16  2  0  0  0
 15 18  1  0  0  0
 18 19  1  0  0  0
 19 20  1  0  0  0
 20 21  2  0  0  0
 21 22  1  0  0  0
 22 23  2  0  0  0
 23 24  1  0  0  0
 24 25  2  0  0  0
  1 33  1  0  0  0
 33 34  2  0  0  0
 33 35  1  0  0  0
 35 37  1  0  0  0
 37 49  1  0  0  0
 49 50  1  0  0  0
 50 51  1  0  0  0
 51 52  1  0  0  0
 52 54  1  0  0  0
 54 55  1  0  0  0
 54 56  2  0  0  0
 37 38  1  0  0  0
 38 39  2  0  0  0
 38 40  1  0  0  0
 40 41  2  0  0  0
 41 42  1  0  0  0
 42 43  2  0  0  0
 43 44  1  0  0  0
 44 45  2  0  0  0
 45 46  1  0  0  0
 46 47  2  0  0  0
 47 48  1  0  0  0
 10  6  1  0  0  0
 32 27  1  0  0  0
 25 20  1  0  0  0
 48 40  1  0  0  0
 47 42  1  0  0  0
 63 67  1  0  0  0
 63 68  1  0  0  0
 65 69  1  0  0  0
 65 70  1  0  0  0
  2  5  1  0  0  0
 14 17  1  0  0  0
 35 36  1  0  0  0
 52 53  1  0  0  0
 55 57  1  0  0  0
 55 58  1  0  0  0
 56 59  1  0  0  0
M  END
> <minimizedAffinity>
-8.25331

> <CNNscore>
0.2208834738

> <CNNaffinity>
7.3036789894

> <CNN_VS>
1.6132619381

> <CNNaffinity_variance>
0.6488064528

$$$$
[H]N=C(N([H])[H])N([H])C([H])([H])C([H])([H])C([H])([H])[C@@]([H])(C(=O)c1nc2c([H])c([H])c([H])c([H])c2s1)N([H])C(=O)[C@@]([H])(N([H])C(=O)[C@@]1([H])N(C(=O)[C@]([H])(N([H])C(=O)OC([H])([H])c2c([H])c([H])c([H])c([H])c2[H])C([H])([H])c2c([H])c([H])c([H])c([H])c2[H])C([H])([H])C([H])([H])C1([H])[H])C([H])([H])C([H])([H])C([H])([H])N=C(N([H])[H])N([H])[H]


 70 74  0  0  0  0  0  0  0  0999 V2000
   33.7470   15.8673   -9.9600 C   0  0  0  0  0  0  0  0  0  0  0  0
   35.0002   15.2122  -10.1753 N   0  0  0  0  0  0  0  0  0  0  0  0
   36.2930   15.6721   -9.9955 C   0  0  0  0  0  0  0  0  0  0  0  0
   36.5528   16.8475   -9.6036 O   0  0  0  0  0  0  0  0  0  0  0  0
   34.9021   14.2051  -10.5425 H   0  0  0  0  0  0  0  0  0  0  0  0
   37.4692   14.7613  -10.2681 C   0  0  0  0  0  0  0  0  0  0  0  0
   38.7338   15.2882   -9.6592 C   0  0  0  0  0  0  0  0  0  0  0  0
   39.1679   16.2781  -10.7347 C   0  0  0  0  0  0  0  0  0  0  0  0
   38.7998   15.5463  -12.0277 C   0  0  0  0  0  0  0  0  0  0  0  0
   37.7181   14.6588  -11.7095 N   0  0  0  0  0  0  0  0  0  0  0  0
   36.9618   13.7982  -12.5573 C   0  0  0  0  0  0  0  0  0  0  0  0
   36.0462   13.0974  -11.9806 O   0  0  0  0  0  0  0  0  0  0  0  0
   37.0940   13.6140  -13.9978 C   0  0  0  0  0  0  0  0  0  0  0  0
   38.3884   14.0543  -14.4563 N   0  0  0  0  0  0  0  0  0  0  0  0
   39.3009   13.1634  -15.0333 C   0  0  0  0  0  0  0  0  0  0  0  0
   39.0330   11.9529  -15.1657 O   0  0  0  0  0  0  0  0  0  0  0  0
   38.7129   15.0644  -14.3806 H   0  0  0  0  0  0  0  0  0  0  0  0
   40.5629   13.5645  -15.4965 O   0  0  0  0  0  0  0  0  0  0  0  0
   41.2988   12.7106  -16.3150 C   0  0  0  0  0  0  0  0  0  0  0  0
   42.7457   12.6903  -16.0753 C   0  0  0  0  0  0  0  0  0  0  0  0
   43.6011   12.0111  -16.8957 C   0  0  0  0  0  0  0  0  0  0  0  0
   44.9532   11.9947  -16.6558 C   0  0  0  0  0  0  0  0  0  0  0  0
   45.4820   12.6666  -15.5762 C   0  0  0  0  0  0  0  0  0  0  0  0
   44.6071   13.3429  -14.7644 C   0  0  0  0  0  0  0  0  0  0  0  0
   43.2545   13.3718  -14.9855 C   0  0  0  0  0  0  0  0  0  0  0  0
   35.9471   13.9994  -14.8571 C   0  0  0  0  0  0  0  0  0  0  0  0
   35.3638   12.7193  -15.4120 C   0  0  0  0  0  0  0  0  0  0  0  0
   34.1689   12.1950  -14.9994 C   0  0  0  0  0  0  0  0  0  0  0  0
   33.6565   11.0227  -15.5579 C   0  0  0  0  0  0  0  0  0  0  0  0
   34.3411   10.3526  -16.5473 C   0  0  0  0  0  0  0  0  0  0  0  0
   35.5461   10.8834  -16.9613 C   0  0  0  0  0  0  0  0  0  0  0  0
   36.0565   12.0382  -16.4152 C   0  0  0  0  0  0  0  0  0  0  0  0
   33.4644   16.0740   -8.5524 C   0  0  0  0  0  0  0  0  0  0  0  0
   33.8119   17.1857   -8.0320 O   0  0  0  0  0  0  0  0  0  0  0  0
   32.8298   15.1320   -7.7108 N   0  0  0  0  0  0  0  0  0  0  0  0
   32.5222   14.2139   -8.0683 H   0  0  0  0  0  0  0  0  0  0  0  0
   32.5894   15.4615   -6.2528 C   0  0  0  0  0  0  0  0  0  0  0  0
   33.2499   14.3425   -5.5474 C   0  0  0  0  0  0  0  0  0  0  0  0
   32.5487   13.4321   -4.9900 O   0  0  0  0  0  0  0  0  0  0  0  0
   34.7061   14.2271   -5.4629 C   0  0  0  0  0  0  0  0  0  0  0  0
   35.6316   13.8030   -6.2789 N   0  0  0  0  0  0  0  0  0  0  0  0
   36.8943   13.8104   -5.9534 C   0  0  0  0  0  0  0  0  0  0  0  0
   37.9587   13.3755   -6.7686 C   0  0  0  0  0  0  0  0  0  0  0  0
   39.2312   13.4367   -6.3141 C   0  0  0  0  0  0  0  0  0  0  0  0
   39.5724   13.9071   -5.0756 C   0  0  0  0  0  0  0  0  0  0  0  0
   38.5510   14.3349   -4.2673 C   0  0  0  0  0  0  0  0  0  0  0  0
   37.2141   14.2848   -4.7108 C   0  0  0  0  0  0  0  0  0  0  0  0
   35.6841   14.6904   -4.0865 S   0  0  0  0  0  0  0  0  0  0  0  0
   31.0838   15.3954   -6.1428 C   0  0  0  0  0  0  0  0  0  0  0  0
   30.3372   16.6385   -5.9241 C   0  0  0  0  0  0  0  0  0  0  0  0
   29.8744   17.3092   -7.2092 C   0  0  0  0  0  0  0  0  0  0  0  0
   30.9067   18.2489   -7.5965 N   0  0  0  0  0  0  0  0  0  0  0  0
   31.3709   18.2533   -8.5355 H   0  0  0  0  0  0  0  0  0  0  0  0
   31.3261   19.2258   -6.6595 C   0  0  0  0  0  0  0  0  0  0  0  0
   32.6510   19.2365   -6.1336 N   0  0  0  0  0  0  0  0  0  0  0  0
   30.5238   20.1580   -6.2369 N   0  0  0  0  0  0  0  0  0  0  0  0
   33.4569   19.6949   -6.6206 H   0  0  0  0  0  0  0  0  0  0  0  0
   32.8554   18.7702   -5.2177 H   0  0  0  0  0  0  0  0  0  0  0  0
   30.8156   20.8797   -5.5517 H   0  0  0  0  0  0  0  0  0  0  0  0
   32.5818   15.3236  -10.7726 C   0  0  0  0  0  0  0  0  0  0  0  0
   31.2957   16.0179  -10.4140 C   0  0  0  0  0  0  0  0  0  0  0  0
   30.1427   15.0185  -10.3895 C   0  0  0  0  0  0  0  0  0  0  0  0
   29.9524   12.4463   -7.7377 N   0  0  0  0  0  0  0  0  0  0  0  0
   29.5885   13.4878   -8.6219 C   0  0  0  0  0  0  0  0  0  0  0  0
   28.2746   14.0179   -8.5862 N   0  0  0  0  0  0  0  0  0  0  0  0
   30.4408   13.9621   -9.4618 N   0  0  0  0  0  0  0  0  0  0  0  0
   29.6312   12.3594   -6.7645 H   0  0  0  0  0  0  0  0  0  0  0  0
   30.6029   11.6951   -8.0933 H   0  0  0  0  0  0  0  0  0  0  0  0
   28.0081   14.8509   -8.0265 H   0  0  0  0  0  0  0  0  0  0  0  0
   27.5077   13.5753   -9.1386 H   0  0  0  0  0  0  0  0  0  0  0  0
 63 64  1  0  0  0
 64 65  1  0  0  0
 64 66  2  0  0  0
 66 62  1  0  0  0
 62 61  1  0  0  0
 61 60  1  0  0  0
 60  1  1  0  0  0
  1  2  1  0  0  0
  2  3  1  0  0  0
  3  4  2  0  0  0
  3  6  1  0  0  0
  6  7  1  0  0  0
  7  8  1  0  0  0
  8  9  1  0  0  0
  9 10  1  0  0  0
 10 11  1  0  0  0
 11 12  2  0  0  0
 11 13  1  0  0  0
 13 26  1  0  0  0
 26 27  1  0  0  0
 27 28  2  0  0  0
 28 29  1  0  0  0
 29 30  2  0  0  0
 30 31  1  0  0  0
 31 32  2  0  0  0
 13 14  1  0  0  0
 14 15  1  0  0  0
 15 16  2  0  0  0
 15 18  1  0  0  0
 18 19  1  0  0  0
 19 20  1  0  0  0
 20 21  2  0  0  0
 21 22  1  0  0  0
 22 23  2  0  0  0
 23 24  1  0  0  0
 24 25  2  0  0  0
  1 33  1  0  0  0
 33 34  2  0  0  0
 33 35  1  0  0  0
 35 37  1  0  0  0
 37 49  1  0  0  0
 49 50  1  0  0  0
 50 51  1  0  0  0
 51 52  1  0  0  0
 52 54  1  0  0  0
 54 55  1  0  0  0
 54 56  2  0  0  0
 37 38  1  0  0  0
 38 39  2  0  0  0
 38 40  1  0  0  0
 40 41  2  0  0  0
 41 42  1  0  0  0
 42 43  2  0  0  0
 43 44  1  0  0  0
 44 45  2  0  0  0
 45 46  1  0  0  0
 46 47  2  0  0  0
 47 48  1  0  0  0
 10  6  1  0  0  0
 32 27  1  0  0  0
 25 20  1  0  0  0
 48 40  1  0  0  0
 47 42  1  0  0  0
 63 67  1  0  0  0
 63 68  1  0  0  0
 65 69  1  0  0  0
 65 70  1  0  0  0
  2  5  1  0  0  0
 14 17  1  0  0  0
 35 36  1  0  0  0
 52 53  1  0  0  0
 55 57  1  0  0  0
 55 58  1  0  0  0
 56 59  1  0  0  0
M  END
> <minimizedAffinity>
-9.30240

> <CNNscore>
0.1942945868

> <CNNaffinity>
7.4097871780

> <CNN_VS>
1.4396815300

> <CNNaffinity_variance>
1.0089999437

$$$$
[H]N=C(N([H])[H])N([H])C([H])([H])C([H])([H])C([H])([H])[C@@]([H])(C(=O)c1nc2c([H])c([H])c([H])c([H])c2s1)N([H])C(=O)[C@@]([H])(N([H])C(=O)[C@]([H])(N([H])[H])[C@]([H])(O[H])C([H])([H])[H])C([H])([H])c1c([H])c([H])c([H])c([H])c1[H]


 47 49  0  0  0  0  0  0  0  0999 V2000
   36.9267   14.0561  -12.9365 C   0  0  0  0  0  0  0  0  0  0  0  0
   36.4683   13.5762  -11.8479 O   0  0  0  0  0  0  0  0  0  0  0  0
   36.2846   13.7540  -14.1567 N   0  0  0  0  0  0  0  0  0  0  0  0
   36.7095   14.1429  -15.0279 H   0  0  0  0  0  0  0  0  0  0  0  0
   38.1313   14.9255  -12.8222 C   0  0  0  0  0  0  0  0  0  0  0  0
   38.2221   16.0809  -10.5913 C   0  0  0  0  0  0  0  0  0  0  0  0
   37.4577   16.9873  -10.9680 O   0  0  0  0  0  0  0  0  0  0  0  0
   38.5990   15.0021  -11.4706 N   0  0  0  0  0  0  0  0  0  0  0  0
   39.2262   14.2598  -11.0830 H   0  0  0  0  0  0  0  0  0  0  0  0
   38.7911   16.0574   -9.2074 C   0  0  0  0  0  0  0  0  0  0  0  0
   38.5780   14.7495   -8.5882 N   0  0  0  0  0  0  0  0  0  0  0  0
   39.3293   14.5799   -7.8582 H   0  0  0  0  0  0  0  0  0  0  0  0
   38.7429   13.9732   -9.2967 H   0  0  0  0  0  0  0  0  0  0  0  0
   38.1120   16.8281   -6.9156 C   0  0  0  0  0  0  0  0  0  0  0  0
   38.0655   17.1281   -8.3892 C   0  0  0  0  0  0  0  0  0  0  0  0
   38.6326   18.3597   -8.6326 O   0  0  0  0  0  0  0  0  0  0  0  0
   38.0577   19.0490   -8.1742 H   0  0  0  0  0  0  0  0  0  0  0  0
   39.1400   14.7643  -13.8882 C   0  0  0  0  0  0  0  0  0  0  0  0
   40.5331   14.9298  -13.4565 C   0  0  0  0  0  0  0  0  0  0  0  0
   40.9119   16.1006  -12.8458 C   0  0  0  0  0  0  0  0  0  0  0  0
   42.2134   16.2970  -12.4086 C   0  0  0  0  0  0  0  0  0  0  0  0
   43.1718   15.3186  -12.5744 C   0  0  0  0  0  0  0  0  0  0  0  0
   42.8062   14.1260  -13.1910 C   0  0  0  0  0  0  0  0  0  0  0  0
   41.4955   13.9406  -13.6260 C   0  0  0  0  0  0  0  0  0  0  0  0
   35.0982   12.9332  -14.1278 C   0  0  0  0  0  0  0  0  0  0  0  0
   35.1148   12.0313  -15.2852 C   0  0  0  0  0  0  0  0  0  0  0  0
   34.1029   11.4095  -15.6436 O   0  0  0  0  0  0  0  0  0  0  0  0
   36.3615   11.8631  -16.0408 C   0  0  0  0  0  0  0  0  0  0  0  0
   37.5638   12.3293  -15.7754 N   0  0  0  0  0  0  0  0  0  0  0  0
   38.5681   12.0607  -16.5520 C   0  0  0  0  0  0  0  0  0  0  0  0
   39.8918   12.4876  -16.3763 C   0  0  0  0  0  0  0  0  0  0  0  0
   40.8740   12.1404  -17.2547 C   0  0  0  0  0  0  0  0  0  0  0  0
   40.6287   11.3588  -18.3517 C   0  0  0  0  0  0  0  0  0  0  0  0
   39.3461   10.9259  -18.5516 C   0  0  0  0  0  0  0  0  0  0  0  0
   38.3147   11.2742  -17.6522 C   0  0  0  0  0  0  0  0  0  0  0  0
   36.6506   10.9786  -17.4929 S   0  0  0  0  0  0  0  0  0  0  0  0
   33.8577   13.7783  -14.1537 C   0  0  0  0  0  0  0  0  0  0  0  0
   33.0904   13.7507  -12.8710 C   0  0  0  0  0  0  0  0  0  0  0  0
   33.1401   15.1367  -12.2627 C   0  0  0  0  0  0  0  0  0  0  0  0
   32.1163   15.2378  -11.2166 N   0  0  0  0  0  0  0  0  0  0  0  0
   32.3037   15.8949  -10.4219 H   0  0  0  0  0  0  0  0  0  0  0  0
   30.9253   14.5029  -11.2472 C   0  0  0  0  0  0  0  0  0  0  0  0
   30.1013   14.5497  -12.3971 N   0  0  0  0  0  0  0  0  0  0  0  0
   30.6139   13.7940  -10.1897 N   0  0  0  0  0  0  0  0  0  0  0  0
   30.4147   15.0542  -13.2388 H   0  0  0  0  0  0  0  0  0  0  0  0
   29.1848   14.0758  -12.3875 H   0  0  0  0  0  0  0  0  0  0  0  0
   29.7083   13.2601  -10.2643 H   0  0  0  0  0  0  0  0  0  0  0  0
 14 15  1  0  0  0
 15 16  1  0  0  0
 15 10  1  0  0  0
 10 11  1  0  0  0
 10  6  1  0  0  0
  6  7  2  0  0  0
  6  8  1  0  0  0
  8  5  1  0  0  0
  5 18  1  0  0  0
 18 19  1  0  0  0
 19 20  2  0  0  0
 20 21  1  0  0  0
 21 22  2  0  0  0
 22 23  1  0  0  0
 23 24  2  0  0  0
  5  1  1  0  0  0
  1  2  2  0  0  0
  1  3  1  0  0  0
  3 25  1  0  0  0
 25 37  1  0  0  0
 37 38  1  0  0  0
 38 39  1  0  0  0
 39 40  1  0  0  0
 40 42  1  0  0  0
 42 43  1  0  0  0
 42 44  2  0  0  0
 25 26  1  0  0  0
 26 27  2  0  0  0
 26 28  1  0  0  0
 28 29  2  0  0  0
 29 30  1  0  0  0
 30 31  2  0  0  0
 31 32  1  0  0  0
 32 33  2  0  0  0
 33 34  1  0  0  0
 34 35  2  0  0  0
 35 36  1  0  0  0
 24 19  1  0  0  0
 36 28  1  0  0  0
 35 30  1  0  0  0
 16 17  1  0  0  0
 11 12  1  0  0  0
 11 13  1  0  0  0
  8  9  1  0  0  0
  3  4  1  0  0  0
 40 41  1  0  0  0
 43 45  1  0  0  0
 43 46  1  0  0  0
 44 47  1  0  0  0
M  END
> <minimizedAffinity>
-8.78251

> <CNNscore>
0.7858921289

> <CNNaffinity>
7.5923614502

> <CNN_VS>
5.9667773247

> <CNNaffinity_variance>
0.1150316969

$$$$
[H]N=C(N([H])[H])N([H])C([H])([H])C([H])([H])C([H])([H])[C@@]([H])(C(=O)c1nc2c([H])c([H])c([H])c([H])c2s1)N([H])C(=O)[C@@]([H])(N([H])C(=O)[C@]([H])(N([H])[H])[C@]([H])(O[H])C([H])([H])[H])C([H])([H])c1c([H])c([H])c([H])c([H])c1[H]


 47 49  0  0  0  0  0  0  0  0999 V2000
   39.6378   14.7256  -13.3348 C   0  0  0  0  0  0  0  0  0  0  0  0
   40.0560   15.9300  -13.3303 O   0  0  0  0  0  0  0  0  0  0  0  0
   40.4653   13.7020  -13.8450 N   0  0  0  0  0  0  0  0  0  0  0  0
   40.0733   12.7341  -13.8577 H   0  0  0  0  0  0  0  0  0  0  0  0
   38.2752   14.4950  -12.7783 C   0  0  0  0  0  0  0  0  0  0  0  0
   37.9833   15.7379  -10.6127 C   0  0  0  0  0  0  0  0  0  0  0  0
   37.6975   16.7987  -11.1965 O   0  0  0  0  0  0  0  0  0  0  0  0
   38.2780   14.5323  -11.3465 N   0  0  0  0  0  0  0  0  0  0  0  0
   38.4875   13.6693  -10.7934 H   0  0  0  0  0  0  0  0  0  0  0  0
   38.0358   15.6523   -9.1196 C   0  0  0  0  0  0  0  0  0  0  0  0
   37.9130   16.9833   -8.5257 N   0  0  0  0  0  0  0  0  0  0  0  0
   37.5032   16.8964   -7.5506 H   0  0  0  0  0  0  0  0  0  0  0  0
   37.1853   17.5564   -9.0488 H   0  0  0  0  0  0  0  0  0  0  0  0
   40.5135   16.0282   -8.9538 C   0  0  0  0  0  0  0  0  0  0  0  0
   39.3902   15.0511   -8.7366 C   0  0  0  0  0  0  0  0  0  0  0  0
   39.3644   14.6558   -7.4172 O   0  0  0  0  0  0  0  0  0  0  0  0
   40.2235   14.1604   -7.2371 H   0  0  0  0  0  0  0  0  0  0  0  0
   37.1730   15.1829  -13.4795 C   0  0  0  0  0  0  0  0  0  0  0  0
   35.9801   14.3619  -13.7196 C   0  0  0  0  0  0  0  0  0  0  0  0
   35.9885   13.4503  -14.7472 C   0  0  0  0  0  0  0  0  0  0  0  0
   34.8901   12.6431  -15.0035 C   0  0  0  0  0  0  0  0  0  0  0  0
   33.7504   12.7314  -14.2311 C   0  0  0  0  0  0  0  0  0  0  0  0
   33.7239   13.6493  -13.1857 C   0  0  0  0  0  0  0  0  0  0  0  0
   34.8336   14.4548  -12.9383 C   0  0  0  0  0  0  0  0  0  0  0  0
   41.7838   14.0508  -14.3164 C   0  0  0  0  0  0  0  0  0  0  0  0
   42.1930   13.0860  -15.3435 C   0  0  0  0  0  0  0  0  0  0  0  0
   43.3792   12.7554  -15.4938 O   0  0  0  0  0  0  0  0  0  0  0  0
   41.1707   12.4940  -16.2139 C   0  0  0  0  0  0  0  0  0  0  0  0
   39.9184   12.1937  -15.9403 N   0  0  0  0  0  0  0  0  0  0  0  0
   39.1411   11.6896  -16.8490 C   0  0  0  0  0  0  0  0  0  0  0  0
   37.7942   11.3360  -16.6874 C   0  0  0  0  0  0  0  0  0  0  0  0
   37.0663   10.8174  -17.7159 C   0  0  0  0  0  0  0  0  0  0  0  0
   37.6025   10.6136  -18.9592 C   0  0  0  0  0  0  0  0  0  0  0  0
   38.9156   10.9485  -19.1493 C   0  0  0  0  0  0  0  0  0  0  0  0
   39.6861   11.4882  -18.0962 C   0  0  0  0  0  0  0  0  0  0  0  0
   41.2775   12.0357  -17.8732 S   0  0  0  0  0  0  0  0  0  0  0  0
   42.7758   14.0522  -13.1895 C   0  0  0  0  0  0  0  0  0  0  0  0
   43.7245   15.2068  -13.2315 C   0  0  0  0  0  0  0  0  0  0  0  0
   45.0828   14.7169  -12.7750 C   0  0  0  0  0  0  0  0  0  0  0  0
   45.4721   13.5586  -13.5872 N   0  0  0  0  0  0  0  0  0  0  0  0
   45.0519   12.6318  -13.3362 H   0  0  0  0  0  0  0  0  0  0  0  0
   46.3646   13.6511  -14.6618 C   0  0  0  0  0  0  0  0  0  0  0  0
   47.0602   14.8617  -14.8939 N   0  0  0  0  0  0  0  0  0  0  0  0
   46.5177   12.5968  -15.4252 N   0  0  0  0  0  0  0  0  0  0  0  0
   46.9749   15.6438  -14.2290 H   0  0  0  0  0  0  0  0  0  0  0  0
   47.6531   14.9564  -15.7329 H   0  0  0  0  0  0  0  0  0  0  0  0
   47.2001   12.7191  -16.2189 H   0  0  0  0  0  0  0  0  0  0  0  0
 14 15  1  0  0  0
 15 16  1  0  0  0
 15 10  1  0  0  0
 10 11  1  0  0  0
 10  6  1  0  0  0
  6  7  2  0  0  0
  6  8  1  0  0  0
  8  5  1  0  0  0
  5 18  1  0  0  0
 18 19  1  0  0  0
 19 20  2  0  0  0
 20 21  1  0  0  0
 21 22  2  0  0  0
 22 23  1  0  0  0
 23 24  2  0  0  0
  5  1  1  0  0  0
  1  2  2  0  0  0
  1  3  1  0  0  0
  3 25  1  0  0  0
 25 37  1  0  0  0
 37 38  1  0  0  0
 38 39  1  0  0  0
 39 40  1  0  0  0
 40 42  1  0  0  0
 42 43  1  0  0  0
 42 44  2  0  0  0
 25 26  1  0  0  0
 26 27  2  0  0  0
 26 28  1  0  0  0
 28 29  2  0  0  0
 29 30  1  0  0  0
 30 31  2  0  0  0
 31 32  1  0  0  0
 32 33  2  0  0  0
 33 34  1  0  0  0
 34 35  2  0  0  0
 35 36  1  0  0  0
 24 19  1  0  0  0
 36 28  1  0  0  0
 35 30  1  0  0  0
 16 17  1  0  0  0
 11 12  1  0  0  0
 11 13  1  0  0  0
  8  9  1  0  0  0
  3  4  1  0  0  0
 40 41  1  0  0  0
 43 45  1  0  0  0
 43 46  1  0  0  0
 44 47  1  0  0  0
M  END
> <minimizedAffinity>
-7.81572

> <CNNscore>
0.6090356112

> <CNNaffinity>
7.1709489822

> <CNN_VS>
4.3673634529

> <CNNaffinity_variance>
0.0777744427

$$$$
[H]N=C(N([H])[H])N([H])C([H])([H])C([H])([H])C([H])([H])[C@@]([H])(C(=O)c1nc2c([H])c([H])c([H])c([H])c2s1)N([H])C(=O)[C@@]([H])(N([H])C(=O)[C@]([H])(N([H])[H])[C@]([H])(O[H])C([H])([H])[H])C([H])([H])c1c([H])c([H])c([H])c([H])c1[H]


 47 49  0  0  0  0  0  0  0  0999 V2000
   40.0248   15.2200  -13.1461 C   0  0  0  0  0  0  0  0  0  0  0  0
   40.6755   16.3050  -12.9882 O   0  0  0  0  0  0  0  0  0  0  0  0
   40.6860   14.0766  -13.6441 N   0  0  0  0  0  0  0  0  0  0  0  0
   40.1101   13.2171  -13.7865 H   0  0  0  0  0  0  0  0  0  0  0  0
   38.5826   15.2519  -12.7737 C   0  0  0  0  0  0  0  0  0  0  0  0
   37.5870   15.9335  -10.5682 C   0  0  0  0  0  0  0  0  0  0  0  0
   37.1641   14.7855  -10.3420 O   0  0  0  0  0  0  0  0  0  0  0  0
   38.3194   16.2408  -11.7715 N   0  0  0  0  0  0  0  0  0  0  0  0
   38.6671   17.2207  -11.8883 H   0  0  0  0  0  0  0  0  0  0  0  0
   37.3620   17.0575   -9.6061 C   0  0  0  0  0  0  0  0  0  0  0  0
   37.6124   18.3444  -10.2545 N   0  0  0  0  0  0  0  0  0  0  0  0
   37.0444   19.0984   -9.7696 H   0  0  0  0  0  0  0  0  0  0  0  0
   37.2239   18.3418  -11.2449 H   0  0  0  0  0  0  0  0  0  0  0  0
   38.1443   17.9246   -7.3827 C   0  0  0  0  0  0  0  0  0  0  0  0
   38.3425   16.8775   -8.4448 C   0  0  0  0  0  0  0  0  0  0  0  0
   38.1864   15.6229   -7.8978 O   0  0  0  0  0  0  0  0  0  0  0  0
   38.9232   15.4983   -7.2215 H   0  0  0  0  0  0  0  0  0  0  0  0
   37.6295   15.1432  -13.8960 C   0  0  0  0  0  0  0  0  0  0  0  0
   36.6286   14.0781  -13.7611 C   0  0  0  0  0  0  0  0  0  0  0  0
   35.4834   14.1335  -14.5177 C   0  0  0  0  0  0  0  0  0  0  0  0
   34.5160   13.1431  -14.4345 C   0  0  0  0  0  0  0  0  0  0  0  0
   34.6746   12.0674  -13.5853 C   0  0  0  0  0  0  0  0  0  0  0  0
   35.8285   11.9946  -12.8111 C   0  0  0  0  0  0  0  0  0  0  0  0
   36.7931   12.9958  -12.9036 C   0  0  0  0  0  0  0  0  0  0  0  0
   42.0983   14.1642  -13.9271 C   0  0  0  0  0  0  0  0  0  0  0  0
   42.3648   13.5279  -15.2222 C   0  0  0  0  0  0  0  0  0  0  0  0
   43.4898   13.5553  -15.7445 O   0  0  0  0  0  0  0  0  0  0  0  0
   41.2716   12.8378  -15.9165 C   0  0  0  0  0  0  0  0  0  0  0  0
   40.0183   12.6815  -15.5448 N   0  0  0  0  0  0  0  0  0  0  0  0
   39.1727   12.0537  -16.3029 C   0  0  0  0  0  0  0  0  0  0  0  0
   37.8169   11.8285  -16.0264 C   0  0  0  0  0  0  0  0  0  0  0  0
   37.0142   11.1587  -16.9003 C   0  0  0  0  0  0  0  0  0  0  0  0
   37.4800   10.6709  -18.0918 C   0  0  0  0  0  0  0  0  0  0  0  0
   38.7997   10.8741  -18.3912 C   0  0  0  0  0  0  0  0  0  0  0  0
   39.6472   11.5667  -17.4990 C   0  0  0  0  0  0  0  0  0  0  0  0
   41.2756   12.0441  -17.4477 S   0  0  0  0  0  0  0  0  0  0  0  0
   42.9056   13.4966  -12.8517 C   0  0  0  0  0  0  0  0  0  0  0  0
   44.0463   14.3279  -12.3594 C   0  0  0  0  0  0  0  0  0  0  0  0
   43.5032   15.3282  -11.3604 C   0  0  0  0  0  0  0  0  0  0  0  0
   42.6675   14.6228  -10.3821 N   0  0  0  0  0  0  0  0  0  0  0  0
   42.8913   13.6162  -10.1951 H   0  0  0  0  0  0  0  0  0  0  0  0
   41.6074   15.2384   -9.7060 C   0  0  0  0  0  0  0  0  0  0  0  0
   40.9311   14.5396   -8.6775 N   0  0  0  0  0  0  0  0  0  0  0  0
   41.2754   16.4549  -10.0630 N   0  0  0  0  0  0  0  0  0  0  0  0
   41.2684   13.6160   -8.3703 H   0  0  0  0  0  0  0  0  0  0  0  0
   40.0982   14.9605   -8.2374 H   0  0  0  0  0  0  0  0  0  0  0  0
   40.4721   16.8720   -9.5232 H   0  0  0  0  0  0  0  0  0  0  0  0
 14 15  1  0  0  0
 15 16  1  0  0  0
 15 10  1  0  0  0
 10 11  1  0  0  0
 10  6  1  0  0  0
  6  7  2  0  0  0
  6  8  1  0  0  0
  8  5  1  0  0  0
  5 18  1  0  0  0
 18 19  1  0  0  0
 19 20  2  0  0  0
 20 21  1  0  0  0
 21 22  2  0  0  0
 22 23  1  0  0  0
 23 24  2  0  0  0
  5  1  1  0  0  0
  1  2  2  0  0  0
  1  3  1  0  0  0
  3 25  1  0  0  0
 25 37  1  0  0  0
 37 38  1  0  0  0
 38 39  1  0  0  0
 39 40  1  0  0  0
 40 42  1  0  0  0
 42 43  1  0  0  0
 42 44  2  0  0  0
 25 26  1  0  0  0
 26 27  2  0  0  0
 26 28  1  0  0  0
 28 29  2  0  0  0
 29 30  1  0  0  0
 30 31  2  0  0  0
 31 32  1  0  0  0
 32 33  2  0  0  0
 33 34  1  0  0  0
 34 35  2  0  0  0
 35 36  1  0  0  0
 24 19  1  0  0  0
 36 28  1  0  0  0
 35 30  1  0  0  0
 16 17  1  0  0  0
 11 12  1  0  0  0
 11 13  1  0  0  0
  8  9  1  0  0  0
  3  4  1  0  0  0
 40 41  1  0  0  0
 43 45  1  0  0  0
 43 46  1  0  0  0
 44 47  1  0  0  0
M  END
> <minimizedAffinity>
-7.94808

> <CNNscore>
0.5468305945

> <CNNaffinity>
7.1028165817

> <CNN_VS>
3.8840374947

> <CNNaffinity_variance>
0.2540583909

$$$$
[H]N=C(N([H])[H])N([H])C([H])([H])C([H])([H])C([H])([H])[C@@]([H])(C(=O)c1nc2c([H])c([H])c([H])c([H])c2s1)N([H])C(=O)[C@@]([H])(N([H])C(=O)[C@]([H])(N([H])[H])[C@]([H])(O[H])C([H])([H])[H])C([H])([H])c1c([H])c([H])c([H])c([H])c1[H]


 47 49  0  0  0  0  0  0  0  0999 V2000
   39.6323   14.8964  -13.0859 C   0  0  0  0  0  0  0  0  0  0  0  0
   40.0937   16.0816  -12.9971 O   0  0  0  0  0  0  0  0  0  0  0  0
   40.4287   13.8788  -13.6540 N   0  0  0  0  0  0  0  0  0  0  0  0
   40.0021   12.9289  -13.7349 H   0  0  0  0  0  0  0  0  0  0  0  0
   38.2550   14.6803  -12.5603 C   0  0  0  0  0  0  0  0  0  0  0  0
   37.3942   16.2365  -10.7834 C   0  0  0  0  0  0  0  0  0  0  0  0
   36.7902   16.9390  -11.6138 O   0  0  0  0  0  0  0  0  0  0  0  0
   38.1472   15.0753  -11.1878 N   0  0  0  0  0  0  0  0  0  0  0  0
   38.6118   14.5152  -10.4361 H   0  0  0  0  0  0  0  0  0  0  0  0
   37.3723   16.5545   -9.3213 C   0  0  0  0  0  0  0  0  0  0  0  0
   36.3579   17.5680   -9.0328 N   0  0  0  0  0  0  0  0  0  0  0  0
   36.0314   17.4623   -8.0286 H   0  0  0  0  0  0  0  0  0  0  0  0
   35.4770   17.3818   -9.5994 H   0  0  0  0  0  0  0  0  0  0  0  0
   39.4714   16.1803   -7.9942 C   0  0  0  0  0  0  0  0  0  0  0  0
   38.7521   17.0990   -8.9441 C   0  0  0  0  0  0  0  0  0  0  0  0
   39.5066   17.2761  -10.0830 O   0  0  0  0  0  0  0  0  0  0  0  0
   40.3561   17.7440   -9.8086 H   0  0  0  0  0  0  0  0  0  0  0  0
   37.1561   15.0591  -13.4707 C   0  0  0  0  0  0  0  0  0  0  0  0
   36.1561   14.0113  -13.7083 C   0  0  0  0  0  0  0  0  0  0  0  0
   36.2004   12.8594  -12.9612 C   0  0  0  0  0  0  0  0  0  0  0  0
   35.2687   11.8477  -13.1404 C   0  0  0  0  0  0  0  0  0  0  0  0
   34.2645   11.9676  -14.0789 C   0  0  0  0  0  0  0  0  0  0  0  0
   34.2040   13.1276  -14.8450 C   0  0  0  0  0  0  0  0  0  0  0  0
   35.1459   14.1368  -14.6556 C   0  0  0  0  0  0  0  0  0  0  0  0
   41.7650   14.2088  -14.0872 C   0  0  0  0  0  0  0  0  0  0  0  0
   42.0771   13.4391  -15.2969 C   0  0  0  0  0  0  0  0  0  0  0  0
   43.2346   13.3504  -15.7344 O   0  0  0  0  0  0  0  0  0  0  0  0
   40.9909   12.7532  -16.0062 C   0  0  0  0  0  0  0  0  0  0  0  0
   39.7314   12.6042  -15.6531 N   0  0  0  0  0  0  0  0  0  0  0  0
   38.8940   11.9791  -16.4226 C   0  0  0  0  0  0  0  0  0  0  0  0
   37.5330   11.7616  -16.1662 C   0  0  0  0  0  0  0  0  0  0  0  0
   36.7402   11.0940  -17.0507 C   0  0  0  0  0  0  0  0  0  0  0  0
   37.2214   10.6011  -18.2339 C   0  0  0  0  0  0  0  0  0  0  0  0
   38.5465   10.7968  -18.5137 C   0  0  0  0  0  0  0  0  0  0  0  0
   39.3841   11.4869  -17.6103 C   0  0  0  0  0  0  0  0  0  0  0  0
   41.0140   11.9560  -17.5354 S   0  0  0  0  0  0  0  0  0  0  0  0
   42.7695   13.9064  -13.0133 C   0  0  0  0  0  0  0  0  0  0  0  0
   43.3995   15.1278  -12.4250 C   0  0  0  0  0  0  0  0  0  0  0  0
   44.7367   15.3410  -13.1033 C   0  0  0  0  0  0  0  0  0  0  0  0
   44.8141   16.7246  -13.5854 N   0  0  0  0  0  0  0  0  0  0  0  0
   44.0088   17.3574  -13.3632 H   0  0  0  0  0  0  0  0  0  0  0  0
   45.9047   17.2141  -14.3140 C   0  0  0  0  0  0  0  0  0  0  0  0
   46.6758   16.3278  -15.1034 N   0  0  0  0  0  0  0  0  0  0  0  0
   46.1749   18.4938  -14.2294 N   0  0  0  0  0  0  0  0  0  0  0  0
   46.3884   15.3441  -15.2085 H   0  0  0  0  0  0  0  0  0  0  0  0
   47.5275   16.6724  -15.5729 H   0  0  0  0  0  0  0  0  0  0  0  0
   47.0047   18.8105  -14.7966 H   0  0  0  0  0  0  0  0  0  0  0  0
 14 15  1  0  0  0
 15 16  1  0  0  0
 15 10  1  0  0  0
 10 11  1  0  0  0
 10  6  1  0  0  0
  6  7  2  0  0  0
  6  8  1  0  0  0
  8  5  1  0  0  0
  5 18  1  0  0  0
 18 19  1  0  0  0
 19 20  2  0  0  0
 20 21  1  0  0  0
 21 22  2  0  0  0
 22 23  1  0  0  0
 23 24  2  0  0  0
  5  1  1  0  0  0
  1  2  2  0  0  0
  1  3  1  0  0  0
  3 25  1  0  0  0
 25 37  1  0  0  0
 37 38  1  0  0  0
 38 39  1  0  0  0
 39 40  1  0  0  0
 40 42  1  0  0  0
 42 43  1  0  0  0
 42 44  2  0  0  0
 25 26  1  0  0  0
 26 27  2  0  0  0
 26 28  1  0  0  0
 28 29  2  0  0  0
 29 30  1  0  0  0
 30 31  2  0  0  0
 31 32  1  0  0  0
 32 33  2  0  0  0
 33 34  1  0  0  0
 34 35  2  0  0  0
 35 36  1  0  0  0
 24 19  1  0  0  0
 36 28  1  0  0  0
 35 30  1  0  0  0
 16 17  1  0  0  0
 11 12  1  0  0  0
 11 13  1  0  0  0
  8  9  1  0  0  0
  3  4  1  0  0  0
 40 41  1  0  0  0
 43 45  1  0  0  0
 43 46  1  0  0  0
 44 47  1  0  0  0
M  END
> <minimizedAffinity>
-8.36477

> <CNNscore>
0.4620466828

> <CNNaffinity>
6.9619841576

> <CNN_VS>
3.2167615891

> <CNNaffinity_variance>
0.1290703565

$$$$
[H]N=C(N([H])[H])N([H])C([H])([H])C([H])([H])C([H])([H])[C@@]([H])(C(=O)c1nc2c([H])c([H])c([H])c([H])c2s1)N([H])C(=O)[C@@]([H])(N([H])C(=O)[C@]([H])(N([H])[H])[C@]([H])(O[H])C([H])([H])[H])C([H])([H])c1c([H])c([H])c([H])c([H])c1[H]


 47 49  0  0  0  0  0  0  0  0999 V2000
   40.6206   15.9559  -12.0646 C   0  0  0  0  0  0  0  0  0  0  0  0
   40.8023   17.0003  -12.7730 O   0  0  0  0  0  0  0  0  0  0  0  0
   41.6911   15.0595  -11.8568 N   0  0  0  0  0  0  0  0  0  0  0  0
   41.4922   14.2016  -11.2954 H   0  0  0  0  0  0  0  0  0  0  0  0
   39.2565   15.7704  -11.4949 C   0  0  0  0  0  0  0  0  0  0  0  0
   37.1258   15.1767  -12.6897 C   0  0  0  0  0  0  0  0  0  0  0  0
   36.5875   16.2550  -12.3808 O   0  0  0  0  0  0  0  0  0  0  0  0
   38.4745   14.8671  -12.2848 N   0  0  0  0  0  0  0  0  0  0  0  0
   38.8750   13.9528  -12.5983 H   0  0  0  0  0  0  0  0  0  0  0  0
   36.4068   14.1430  -13.4984 C   0  0  0  0  0  0  0  0  0  0  0  0
   35.5293   14.7800  -14.4800 N   0  0  0  0  0  0  0  0  0  0  0  0
   35.3914   14.1260  -15.3044 H   0  0  0  0  0  0  0  0  0  0  0  0
   36.0097   15.6246  -14.9130 H   0  0  0  0  0  0  0  0  0  0  0  0
   35.7780   11.8306  -12.7469 C   0  0  0  0  0  0  0  0  0  0  0  0
   35.5631   13.3045  -12.5353 C   0  0  0  0  0  0  0  0  0  0  0  0
   35.8745   13.6395  -11.2359 O   0  0  0  0  0  0  0  0  0  0  0  0
   35.2204   13.1586  -10.6386 H   0  0  0  0  0  0  0  0  0  0  0  0
   39.1900   15.6307  -10.0267 C   0  0  0  0  0  0  0  0  0  0  0  0
   38.6971   16.8135   -9.3109 C   0  0  0  0  0  0  0  0  0  0  0  0
   38.6549   16.7981   -7.9380 C   0  0  0  0  0  0  0  0  0  0  0  0
   38.2100   17.8970   -7.2181 C   0  0  0  0  0  0  0  0  0  0  0  0
   37.7941   19.0442   -7.8616 C   0  0  0  0  0  0  0  0  0  0  0  0
   37.8298   19.0780   -9.2522 C   0  0  0  0  0  0  0  0  0  0  0  0
   38.2787   17.9677   -9.9642 C   0  0  0  0  0  0  0  0  0  0  0  0
   42.9775   15.3759  -12.4288 C   0  0  0  0  0  0  0  0  0  0  0  0
   43.4610   14.2149  -13.1849 C   0  0  0  0  0  0  0  0  0  0  0  0
   44.5675   13.7020  -12.9579 O   0  0  0  0  0  0  0  0  0  0  0  0
   42.6108   13.6434  -14.2356 C   0  0  0  0  0  0  0  0  0  0  0  0
   41.3097   13.4424  -14.2346 N   0  0  0  0  0  0  0  0  0  0  0  0
   40.7130   12.9402  -15.2717 C   0  0  0  0  0  0  0  0  0  0  0  0
   39.3402   12.6861  -15.3986 C   0  0  0  0  0  0  0  0  0  0  0  0
   38.8166   12.1593  -16.5410 C   0  0  0  0  0  0  0  0  0  0  0  0
   39.5939   11.8505  -17.6250 C   0  0  0  0  0  0  0  0  0  0  0  0
   40.9386   12.0866  -17.5327 C   0  0  0  0  0  0  0  0  0  0  0  0
   41.4999   12.6329  -16.3578 C   0  0  0  0  0  0  0  0  0  0  0  0
   43.0416   13.0859  -15.8099 S   0  0  0  0  0  0  0  0  0  0  0  0
   43.9671   15.7407  -11.3604 C   0  0  0  0  0  0  0  0  0  0  0  0
   44.4317   17.1595  -11.4372 C   0  0  0  0  0  0  0  0  0  0  0  0
   45.0664   17.3742  -12.7953 C   0  0  0  0  0  0  0  0  0  0  0  0
   44.2078   18.2589  -13.5909 N   0  0  0  0  0  0  0  0  0  0  0  0
   43.4781   17.8076  -14.1928 H   0  0  0  0  0  0  0  0  0  0  0  0
   44.3291   19.6534  -13.5702 C   0  0  0  0  0  0  0  0  0  0  0  0
   43.3234   20.4540  -14.1626 N   0  0  0  0  0  0  0  0  0  0  0  0
   45.3897   20.1690  -12.9984 N   0  0  0  0  0  0  0  0  0  0  0  0
   42.4665   20.0190  -14.5335 H   0  0  0  0  0  0  0  0  0  0  0  0
   43.4535   21.4759  -14.2210 H   0  0  0  0  0  0  0  0  0  0  0  0
   45.4324   21.2219  -13.0099 H   0  0  0  0  0  0  0  0  0  0  0  0
 14 15  1  0  0  0
 15 16  1  0  0  0
 15 10  1  0  0  0
 10 11  1  0  0  0
 10  6  1  0  0  0
  6  7  2  0  0  0
  6  8  1  0  0  0
  8  5  1  0  0  0
  5 18  1  0  0  0
 18 19  1  0  0  0
 19 20  2  0  0  0
 20 21  1  0  0  0
 21 22  2  0  0  0
 22 23  1  0  0  0
 23 24  2  0  0  0
  5  1  1  0  0  0
  1  2  2  0  0  0
  1  3  1  0  0  0
  3 25  1  0  0  0
 25 37  1  0  0  0
 37 38  1  0  0  0
 38 39  1  0  0  0
 39 40  1  0  0  0
 40 42  1  0  0  0
 42 43  1  0  0  0
 42 44  2  0  0  0
 25 26  1  0  0  0
 26 27  2  0  0  0
 26 28  1  0  0  0
 28 29  2  0  0  0
 29 30  1  0  0  0
 30 31  2  0  0  0
 31 32  1  0  0  0
 32 33  2  0  0  0
 33 34  1  0  0  0
 34 35  2  0  0  0
 35 36  1  0  0  0
 24 19  1  0  0  0
 36 28  1  0  0  0
 35 30  1  0  0  0
 16 17  1  0  0  0
 11 12  1  0  0  0
 11 13  1  0  0  0
  8  9  1  0  0  0
  3  4  1  0  0  0
 40 41  1  0  0  0
 43 45  1  0  0  0
 43 46  1  0  0  0
 44 47  1  0  0  0
M  END
> <minimizedAffinity>
-8.76555

> <CNNscore>
0.3372723460

> <CNNaffinity>
6.2662816048

> <CNN_VS>
2.1134436131

> <CNNaffinity_variance>
0.7279866338

$$$$
[H]N=C(N([H])[H])N([H])C([H])([H])C([H])([H])C([H])([H])[C@@]([H])(C(=O)c1nc2c([H])c([H])c([H])c([H])c2s1)N([H])C(=O)[C@@]([H])(N([H])C(=O)[C@]([H])(N([H])[H])[C@]([H])(O[H])C([H])([H])[H])C([H])([H])c1c([H])c([H])c([H])c([H])c1[H]


 47 49  0  0  0  0  0  0  0  0999 V2000
   37.1673   14.9556  -11.7337 C   0  0  0  0  0  0  0  0  0  0  0  0
   37.8387   16.0297  -11.5890 O   0  0  0  0  0  0  0  0  0  0  0  0
   36.2442   14.5707  -10.7375 N   0  0  0  0  0  0  0  0  0  0  0  0
   35.7366   13.6693  -10.8807 H   0  0  0  0  0  0  0  0  0  0  0  0
   37.4172   14.1808  -12.9815 C   0  0  0  0  0  0  0  0  0  0  0  0
   35.1693   13.3095  -13.6940 C   0  0  0  0  0  0  0  0  0  0  0  0
   35.1401   12.4736  -12.7730 O   0  0  0  0  0  0  0  0  0  0  0  0
   36.2831   14.2107  -13.8558 N   0  0  0  0  0  0  0  0  0  0  0  0
   36.2332   14.9048  -14.6370 H   0  0  0  0  0  0  0  0  0  0  0  0
   34.0524   13.4283  -14.6829 C   0  0  0  0  0  0  0  0  0  0  0  0
   32.8036   13.7762  -14.0056 N   0  0  0  0  0  0  0  0  0  0  0  0
   32.1672   14.2879  -14.6834 H   0  0  0  0  0  0  0  0  0  0  0  0
   32.9837   14.4971  -13.2444 H   0  0  0  0  0  0  0  0  0  0  0  0
   35.1787   11.6144  -16.0054 C   0  0  0  0  0  0  0  0  0  0  0  0
   33.8936   12.0693  -15.3690 C   0  0  0  0  0  0  0  0  0  0  0  0
   33.4714   11.1338  -14.4501 O   0  0  0  0  0  0  0  0  0  0  0  0
   33.2643   10.2885  -14.9583 H   0  0  0  0  0  0  0  0  0  0  0  0
   38.7530   14.3547  -13.5858 C   0  0  0  0  0  0  0  0  0  0  0  0
   39.0439   13.4669  -14.7179 C   0  0  0  0  0  0  0  0  0  0  0  0
   39.9311   13.8782  -15.6827 C   0  0  0  0  0  0  0  0  0  0  0  0
   40.2476   13.0682  -16.7631 C   0  0  0  0  0  0  0  0  0  0  0  0
   39.6785   11.8193  -16.9030 C   0  0  0  0  0  0  0  0  0  0  0  0
   38.7774   11.3859  -15.9353 C   0  0  0  0  0  0  0  0  0  0  0  0
   38.4674   12.2088  -14.8545 C   0  0  0  0  0  0  0  0  0  0  0  0
   36.0631   15.4323   -9.5942 C   0  0  0  0  0  0  0  0  0  0  0  0
   36.3356   14.6661   -8.3727 C   0  0  0  0  0  0  0  0  0  0  0  0
   35.4377   14.0611   -7.7670 O   0  0  0  0  0  0  0  0  0  0  0  0
   37.7079   14.6116   -7.8559 C   0  0  0  0  0  0  0  0  0  0  0  0
   38.2760   13.6950   -7.1006 N   0  0  0  0  0  0  0  0  0  0  0  0
   39.5215   13.7987   -6.7516 C   0  0  0  0  0  0  0  0  0  0  0  0
   40.2413   12.8916   -5.9613 C   0  0  0  0  0  0  0  0  0  0  0  0
   41.5540   13.0968   -5.6591 C   0  0  0  0  0  0  0  0  0  0  0  0
   42.2432   14.1919   -6.1070 C   0  0  0  0  0  0  0  0  0  0  0  0
   41.5685   15.0966   -6.8808 C   0  0  0  0  0  0  0  0  0  0  0  0
   40.2083   14.9011   -7.2056 C   0  0  0  0  0  0  0  0  0  0  0  0
   39.0142   15.7110   -8.1002 S   0  0  0  0  0  0  0  0  0  0  0  0
   34.6682   15.9857   -9.5523 C   0  0  0  0  0  0  0  0  0  0  0  0
   33.8622   15.6641  -10.7696 C   0  0  0  0  0  0  0  0  0  0  0  0
   32.3980   15.6839  -10.3834 C   0  0  0  0  0  0  0  0  0  0  0  0
   31.5856   15.3912  -11.5697 N   0  0  0  0  0  0  0  0  0  0  0  0
   31.9504   15.7195  -12.4957 H   0  0  0  0  0  0  0  0  0  0  0  0
   30.3687   14.7022  -11.5046 C   0  0  0  0  0  0  0  0  0  0  0  0
   29.7160   14.5471  -10.2583 N   0  0  0  0  0  0  0  0  0  0  0  0
   29.8781   14.2160  -12.6185 N   0  0  0  0  0  0  0  0  0  0  0  0
   30.0899   15.0087   -9.4167 H   0  0  0  0  0  0  0  0  0  0  0  0
   28.8637   13.9689  -10.1974 H   0  0  0  0  0  0  0  0  0  0  0  0
   28.9612   13.7070  -12.5145 H   0  0  0  0  0  0  0  0  0  0  0  0
 14 15  1  0  0  0
 15 16  1  0  0  0
 15 10  1  0  0  0
 10 11  1  0  0  0
 10  6  1  0  0  0
  6  7  2  0  0  0
  6  8  1  0  0  0
  8  5  1  0  0  0
  5 18  1  0  0  0
 18 19  1  0  0  0
 19 20  2  0  0  0
 20 21  1  0  0  0
 21 22  2  0  0  0
 22 23  1  0  0  0
 23 24  2  0  0  0
  5  1  1  0  0  0
  1  2  2  0  0  0
  1  3  1  0  0  0
  3 25  1  0  0  0
 25 37  1  0  0  0
 37 38  1  0  0  0
 38 39  1  0  0  0
 39 40  1  0  0  0
 40 42  1  0  0  0
 42 43  1  0  0  0
 42 44  2  0  0  0
 25 26  1  0  0  0
 26 27  2  0  0  0
 26 28  1  0  0  0
 28 29  2  0  0  0
 29 30  1  0  0  0
 30 31  2  0  0  0
 31 32  1  0  0  0
 32 33  2  0  0  0
 33 34  1  0  0  0
 34 35  2  0  0  0
 35 36  1  0  0  0
 24 19  1  0  0  0
 36 28  1  0  0  0
 35 30  1  0  0  0
 16 17  1  0  0  0
 11 12  1  0  0  0
 11 13  1  0  0  0
  8  9  1  0  0  0
  3  4  1  0  0  0
 40 41  1  0  0  0
 43 45  1  0  0  0
 43 46  1  0  0  0
 44 47  1  0  0  0
M  END
> <minimizedAffinity>
-8.50746

> <CNNscore>
0.3140144050

> <CNNaffinity>
6.8239774704

> <CNN_VS>
2.1428272724

> <CNNaffinity_variance>
0.1812668294

$$$$
[H]N=C(N([H])[H])N([H])C([H])([H])C([H])([H])C([H])([H])[C@@]([H])(C(=O)c1nc2c([H])c([H])c([H])c([H])c2s1)N([H])C(=O)[C@@]([H])(N([H])C(=O)[C@]([H])(N([H])[H])[C@]([H])(O[H])C([H])([H])[H])C([H])([H])c1c([H])c([H])c([H])c([H])c1[H]


 47 49  0  0  0  0  0  0  0  0999 V2000
   38.0034   14.3782  -13.2275 C   0  0  0  0  0  0  0  0  0  0  0  0
   37.0308   15.0394  -13.7198 O   0  0  0  0  0  0  0  0  0  0  0  0
   38.4389   14.6529  -11.9131 N   0  0  0  0  0  0  0  0  0  0  0  0
   39.2573   14.1094  -11.5588 H   0  0  0  0  0  0  0  0  0  0  0  0
   38.6089   13.3375  -14.1050 C   0  0  0  0  0  0  0  0  0  0  0  0
   40.9856   13.6052  -14.8794 C   0  0  0  0  0  0  0  0  0  0  0  0
   40.6334   14.0788  -15.9746 O   0  0  0  0  0  0  0  0  0  0  0  0
   40.0188   13.2168  -13.8829 N   0  0  0  0  0  0  0  0  0  0  0  0
   40.3833   12.8475  -12.9744 H   0  0  0  0  0  0  0  0  0  0  0  0
   42.4291   13.4137  -14.5340 C   0  0  0  0  0  0  0  0  0  0  0  0
   42.9037   14.5105  -13.6906 N   0  0  0  0  0  0  0  0  0  0  0  0
   43.7156   14.1714  -13.0973 H   0  0  0  0  0  0  0  0  0  0  0  0
   42.1645   14.7709  -12.9713 H   0  0  0  0  0  0  0  0  0  0  0  0
   44.6848   13.1444  -15.6047 C   0  0  0  0  0  0  0  0  0  0  0  0
   43.2220   13.4033  -15.8430 C   0  0  0  0  0  0  0  0  0  0  0  0
   42.7096   12.4423  -16.6865 O   0  0  0  0  0  0  0  0  0  0  0  0
   43.1747   12.5459  -17.5747 H   0  0  0  0  0  0  0  0  0  0  0  0
   37.8294   12.0924  -14.2524 C   0  0  0  0  0  0  0  0  0  0  0  0
   37.6692   11.6185  -15.6324 C   0  0  0  0  0  0  0  0  0  0  0  0
   36.4061   11.5018  -16.1596 C   0  0  0  0  0  0  0  0  0  0  0  0
   36.2059   11.0717  -17.4629 C   0  0  0  0  0  0  0  0  0  0  0  0
   37.2738   10.7461  -18.2733 C   0  0  0  0  0  0  0  0  0  0  0  0
   38.5608   10.8582  -17.7562 C   0  0  0  0  0  0  0  0  0  0  0  0
   38.7489   11.2914  -16.4454 C   0  0  0  0  0  0  0  0  0  0  0  0
   37.7394   15.6581  -11.1500 C   0  0  0  0  0  0  0  0  0  0  0  0
   38.7104   16.6387  -10.6511 C   0  0  0  0  0  0  0  0  0  0  0  0
   39.8403   16.7517  -11.1506 O   0  0  0  0  0  0  0  0  0  0  0  0
   38.3330   17.5114   -9.5334 C   0  0  0  0  0  0  0  0  0  0  0  0
   37.9024   18.7553   -9.5587 N   0  0  0  0  0  0  0  0  0  0  0  0
   37.5910   19.3741   -8.4614 C   0  0  0  0  0  0  0  0  0  0  0  0
   37.1160   20.6889   -8.3549 C   0  0  0  0  0  0  0  0  0  0  0  0
   36.8128   21.2402   -7.1463 C   0  0  0  0  0  0  0  0  0  0  0  0
   36.9514   20.5479   -5.9732 C   0  0  0  0  0  0  0  0  0  0  0  0
   37.4133   19.2617   -6.0433 C   0  0  0  0  0  0  0  0  0  0  0  0
   37.7320   18.6724   -7.2863 C   0  0  0  0  0  0  0  0  0  0  0  0
   38.3042   17.1739   -7.8423 S   0  0  0  0  0  0  0  0  0  0  0  0
   36.9962   15.0414  -10.0005 C   0  0  0  0  0  0  0  0  0  0  0  0
   35.5496   15.4158   -9.9559 C   0  0  0  0  0  0  0  0  0  0  0  0
   35.0778   15.6416  -11.3772 C   0  0  0  0  0  0  0  0  0  0  0  0
   34.5156   14.3911  -11.8997 N   0  0  0  0  0  0  0  0  0  0  0  0
   34.8641   13.4953  -11.4820 H   0  0  0  0  0  0  0  0  0  0  0  0
   33.5504   14.3584  -12.9131 C   0  0  0  0  0  0  0  0  0  0  0  0
   32.2062   14.0527  -12.5921 N   0  0  0  0  0  0  0  0  0  0  0  0
   33.9387   14.6108  -14.1392 N   0  0  0  0  0  0  0  0  0  0  0  0
   31.9219   13.9366  -11.6089 H   0  0  0  0  0  0  0  0  0  0  0  0
   31.5126   13.9467  -13.3487 H   0  0  0  0  0  0  0  0  0  0  0  0
   33.1740   14.5734  -14.8633 H   0  0  0  0  0  0  0  0  0  0  0  0
 14 15  1  0  0  0
 15 16  1  0  0  0
 15 10  1  0  0  0
 10 11  1  0  0  0
 10  6  1  0  0  0
  6  7  2  0  0  0
  6  8  1  0  0  0
  8  5  1  0  0  0
  5 18  1  0  0  0
 18 19  1  0  0  0
 19 20  2  0  0  0
 20 21  1  0  0  0
 21 22  2  0  0  0
 22 23  1  0  0  0
 23 24  2  0  0  0
  5  1  1  0  0  0
  1  2  2  0  0  0
  1  3  1  0  0  0
  3 25  1  0  0  0
 25 37  1  0  0  0
 37 38  1  0  0  0
 38 39  1  0  0  0
 39 40  1  0  0  0
 40 42  1  0  0  0
 42 43  1  0  0  0
 42 44  2  0  0  0
 25 26  1  0  0  0
 26 27  2  0  0  0
 26 28  1  0  0  0
 28 29  2  0  0  0
 29 30  1  0  0  0
 30 31  2  0  0  0
 31 32  1  0  0  0
 32 33  2  0  0  0
 33 34  1  0  0  0
 34 35  2  0  0  0
 35 36  1  0  0  0
 24 19  1  0  0  0
 36 28  1  0  0  0
 35 30  1  0  0  0
 16 17  1  0  0  0
 11 12  1  0  0  0
 11 13  1  0  0  0
  8  9  1  0  0  0
  3  4  1  0  0  0
 40 41  1  0  0  0
 43 45  1  0  0  0
 43 46  1  0  0  0
 44 47  1  0  0  0
M  END
> <minimizedAffinity>
-8.80746

> <CNNscore>
0.2596210837

> <CNNaffinity>
6.2016668320

> <CNN_VS>
1.6100834608

> <CNNaffinity_variance>
0.6887269020

$$$$
[H]N=C(N([H])[H])N([H])C([H])([H])C([H])([H])C([H])([H])[C@@]([H])(C(=O)c1nc2c([H])c([H])c([H])c([H])c2s1)N([H])C(=O)[C@@]([H])(N([H])C(=O)[C@]([H])(N([H])[H])[C@]([H])(O[H])C([H])([H])[H])C([H])([H])c1c([H])c([H])c([H])c([H])c1[H]


 47 49  0  0  0  0  0  0  0  0999 V2000
   38.9997   15.1583  -13.2584 C   0  0  0  0  0  0  0  0  0  0  0  0
   39.1084   15.6241  -14.4402 O   0  0  0  0  0  0  0  0  0  0  0  0
   40.1629   14.8902  -12.5049 N   0  0  0  0  0  0  0  0  0  0  0  0
   40.0305   14.4816  -11.5529 H   0  0  0  0  0  0  0  0  0  0  0  0
   37.6139   14.9376  -12.7578 C   0  0  0  0  0  0  0  0  0  0  0  0
   36.5867   14.7069  -10.4749 C   0  0  0  0  0  0  0  0  0  0  0  0
   35.9225   13.7111  -10.8141 O   0  0  0  0  0  0  0  0  0  0  0  0
   37.4688   15.3726  -11.4008 N   0  0  0  0  0  0  0  0  0  0  0  0
   38.0161   16.1898  -11.0440 H   0  0  0  0  0  0  0  0  0  0  0  0
   36.5097   15.2680   -9.0897 C   0  0  0  0  0  0  0  0  0  0  0  0
   36.6871   14.2083   -8.0973 N   0  0  0  0  0  0  0  0  0  0  0  0
   37.0788   14.6259   -7.2038 H   0  0  0  0  0  0  0  0  0  0  0  0
   37.4482   13.5334   -8.4085 H   0  0  0  0  0  0  0  0  0  0  0  0
   35.1820   17.1648   -8.1165 C   0  0  0  0  0  0  0  0  0  0  0  0
   35.1232   15.8934   -8.9189 C   0  0  0  0  0  0  0  0  0  0  0  0
   34.5749   16.1479  -10.1567 O   0  0  0  0  0  0  0  0  0  0  0  0
   33.6234   16.4446  -10.0064 H   0  0  0  0  0  0  0  0  0  0  0  0
   36.5311   15.2719  -13.7040 C   0  0  0  0  0  0  0  0  0  0  0  0
   35.7464   14.1269  -14.1811 C   0  0  0  0  0  0  0  0  0  0  0  0
   36.3756   13.1278  -14.8832 C   0  0  0  0  0  0  0  0  0  0  0  0
   35.6784   12.0201  -15.3420 C   0  0  0  0  0  0  0  0  0  0  0  0
   34.3256   11.8870  -15.1064 C   0  0  0  0  0  0  0  0  0  0  0  0
   33.6714   12.8893  -14.3967 C   0  0  0  0  0  0  0  0  0  0  0  0
   34.3828   13.9974  -13.9412 C   0  0  0  0  0  0  0  0  0  0  0  0
   41.4481   15.1885  -13.0893 C   0  0  0  0  0  0  0  0  0  0  0  0
   42.0852   13.9336  -13.5047 C   0  0  0  0  0  0  0  0  0  0  0  0
   43.0037   13.4188  -12.8487 O   0  0  0  0  0  0  0  0  0  0  0  0
   41.6207   13.2682  -14.7273 C   0  0  0  0  0  0  0  0  0  0  0  0
   40.4302   12.7807  -15.0074 N   0  0  0  0  0  0  0  0  0  0  0  0
   40.1878   12.2385  -16.1612 C   0  0  0  0  0  0  0  0  0  0  0  0
   38.9671   11.6930  -16.5830 C   0  0  0  0  0  0  0  0  0  0  0  0
   38.8210   11.1514  -17.8247 C   0  0  0  0  0  0  0  0  0  0  0  0
   39.8492   11.1093  -18.7280 C   0  0  0  0  0  0  0  0  0  0  0  0
   41.0542   11.6336  -18.3464 C   0  0  0  0  0  0  0  0  0  0  0  0
   41.2251   12.2001  -17.0643 C   0  0  0  0  0  0  0  0  0  0  0  0
   42.4756   12.9443  -16.1898 S   0  0  0  0  0  0  0  0  0  0  0  0
   42.3289   15.9124  -12.1127 C   0  0  0  0  0  0  0  0  0  0  0  0
   41.6044   16.3872  -10.8943 C   0  0  0  0  0  0  0  0  0  0  0  0
   42.3512   15.8844   -9.6766 C   0  0  0  0  0  0  0  0  0  0  0  0
   41.5868   16.2248   -8.4714 N   0  0  0  0  0  0  0  0  0  0  0  0
   41.6348   17.2163   -8.1352 H   0  0  0  0  0  0  0  0  0  0  0  0
   40.8128   15.2894   -7.7745 C   0  0  0  0  0  0  0  0  0  0  0  0
   39.9983   14.3799   -8.4906 N   0  0  0  0  0  0  0  0  0  0  0  0
   40.8708   15.2980   -6.4652 N   0  0  0  0  0  0  0  0  0  0  0  0
   40.0366   14.3496   -9.5195 H   0  0  0  0  0  0  0  0  0  0  0  0
   39.3657   13.7476   -7.9761 H   0  0  0  0  0  0  0  0  0  0  0  0
   40.2698   14.5745   -5.9897 H   0  0  0  0  0  0  0  0  0  0  0  0
 14 15  1  0  0  0
 15 16  1  0  0  0
 15 10  1  0  0  0
 10 11  1  0  0  0
 10  6  1  0  0  0
  6  7  2  0  0  0
  6  8  1  0  0  0
  8  5  1  0  0  0
  5 18  1  0  0  0
 18 19  1  0  0  0
 19 20  2  0  0  0
 20 21  1  0  0  0
 21 22  2  0  0  0
 22 23  1  0  0  0
 23 24  2  0  0  0
  5  1  1  0  0  0
  1  2  2  0  0  0
  1  3  1  0  0  0
  3 25  1  0  0  0
 25 37  1  0  0  0
 37 38  1  0  0  0
 38 39  1  0  0  0
 39 40  1  0  0  0
 40 42  1  0  0  0
 42 43  1  0  0  0
 42 44  2  0  0  0
 25 26  1  0  0  0
 26 27  2  0  0  0
 26 28  1  0  0  0
 28 29  2  0  0  0
 29 30  1  0  0  0
 30 31  2  0  0  0
 31 32  1  0  0  0
 32 33  2  0  0  0
 33 34  1  0  0  0
 34 35  2  0  0  0
 35 36  1  0  0  0
 24 19  1  0  0  0
 36 28  1  0  0  0
 35 30  1  0  0  0
 16 17  1  0  0  0
 11 12  1  0  0  0
 11 13  1  0  0  0
  8  9  1  0  0  0
  3  4  1  0  0  0
 40 41  1  0  0  0
 43 45  1  0  0  0
 43 46  1  0  0  0
 44 47  1  0  0  0
M  END
> <minimizedAffinity>
-7.53812

> <CNNscore>
0.2412942797

> <CNNaffinity>
6.4797425270

> <CNN_VS>
1.5635248423

> <CNNaffinity_variance>
0.2010772675

$$$$
[H]N=C(N([H])[H])N([H])C([H])([H])C([H])([H])C([H])([H])[C@@]([H])(C(=O)c1nc2c([H])c([H])c([H])c([H])c2s1)N([H])C(=O)[C@@]([H])(N([H])C(=O)[C@]([H])(N([H])[H])[C@]([H])(O[H])C([H])([H])[H])C([H])([H])c1c([H])c([H])c([H])c([H])c1[H]


 47 49  0  0  0  0  0  0  0  0999 V2000
   37.8044   14.4290  -13.2176 C   0  0  0  0  0  0  0  0  0  0  0  0
   36.9519   15.2733  -13.6489 O   0  0  0  0  0  0  0  0  0  0  0  0
   38.3868   14.6142  -11.9451 N   0  0  0  0  0  0  0  0  0  0  0  0
   39.1021   13.9161  -11.6422 H   0  0  0  0  0  0  0  0  0  0  0  0
   38.1156   13.2828  -14.1171 C   0  0  0  0  0  0  0  0  0  0  0  0
   35.7978   12.3946  -14.5153 C   0  0  0  0  0  0  0  0  0  0  0  0
   35.6349   12.1250  -13.3117 O   0  0  0  0  0  0  0  0  0  0  0  0
   37.0214   12.9889  -14.9933 N   0  0  0  0  0  0  0  0  0  0  0  0
   37.0836   13.2118  -16.0136 H   0  0  0  0  0  0  0  0  0  0  0  0
   34.7353   12.1198  -15.5327 C   0  0  0  0  0  0  0  0  0  0  0  0
   33.5002   11.6874  -14.8794 N   0  0  0  0  0  0  0  0  0  0  0  0
   32.6724   11.9300  -15.4975 H   0  0  0  0  0  0  0  0  0  0  0  0
   33.3269   12.2596  -13.9995 H   0  0  0  0  0  0  0  0  0  0  0  0
   34.1463   10.0370  -16.8065 C   0  0  0  0  0  0  0  0  0  0  0  0
   35.2438   11.0001  -16.4439 C   0  0  0  0  0  0  0  0  0  0  0  0
   35.7838   11.5443  -17.5884 O   0  0  0  0  0  0  0  0  0  0  0  0
   36.2121   10.7914  -18.1036 H   0  0  0  0  0  0  0  0  0  0  0  0
   39.4756   13.2715  -14.6917 C   0  0  0  0  0  0  0  0  0  0  0  0
   39.5960   12.6010  -15.9918 C   0  0  0  0  0  0  0  0  0  0  0  0
   40.3268   13.1982  -16.9899 C   0  0  0  0  0  0  0  0  0  0  0  0
   40.4800   12.5962  -18.2300 C   0  0  0  0  0  0  0  0  0  0  0  0
   39.9004   11.3738  -18.5004 C   0  0  0  0  0  0  0  0  0  0  0  0
   39.1564   10.7539  -17.5013 C   0  0  0  0  0  0  0  0  0  0  0  0
   39.0097   11.3688  -16.2596 C   0  0  0  0  0  0  0  0  0  0  0  0
   37.9677   15.7444  -11.1519 C   0  0  0  0  0  0  0  0  0  0  0  0
   39.1382   16.5778  -10.8547 C   0  0  0  0  0  0  0  0  0  0  0  0
   39.0240   17.7270  -10.4015 O   0  0  0  0  0  0  0  0  0  0  0  0
   40.4801   16.0356  -11.0969 C   0  0  0  0  0  0  0  0  0  0  0  0
   41.0257   15.6417  -12.2285 N   0  0  0  0  0  0  0  0  0  0  0  0
   42.2469   15.2039  -12.2616 C   0  0  0  0  0  0  0  0  0  0  0  0
   42.9417   14.7648  -13.3972 C   0  0  0  0  0  0  0  0  0  0  0  0
   44.2302   14.3286  -13.3186 C   0  0  0  0  0  0  0  0  0  0  0  0
   44.9181   14.2948  -12.1352 C   0  0  0  0  0  0  0  0  0  0  0  0
   44.2674   14.7169  -11.0079 C   0  0  0  0  0  0  0  0  0  0  0  0
   42.9326   15.1733  -11.0690 C   0  0  0  0  0  0  0  0  0  0  0  0
   41.7724   15.7741   -9.9850 S   0  0  0  0  0  0  0  0  0  0  0  0
   37.3199   15.2952   -9.8742 C   0  0  0  0  0  0  0  0  0  0  0  0
   35.8933   14.8810  -10.0423 C   0  0  0  0  0  0  0  0  0  0  0  0
   35.1373   16.0375  -10.6624 C   0  0  0  0  0  0  0  0  0  0  0  0
   34.5704   15.6064  -11.9452 N   0  0  0  0  0  0  0  0  0  0  0  0
   35.1504   15.7620  -12.8042 H   0  0  0  0  0  0  0  0  0  0  0  0
   33.3101   15.0068  -12.0545 C   0  0  0  0  0  0  0  0  0  0  0  0
   33.0350   14.1455  -13.1434 N   0  0  0  0  0  0  0  0  0  0  0  0
   32.4198   15.2766  -11.1313 N   0  0  0  0  0  0  0  0  0  0  0  0
   33.7819   13.8944  -13.8069 H   0  0  0  0  0  0  0  0  0  0  0  0
   32.0819   13.7706  -13.2690 H   0  0  0  0  0  0  0  0  0  0  0  0
   31.4887   14.8001  -11.2602 H   0  0  0  0  0  0  0  0  0  0  0  0
 14 15  1  0  0  0
 15 16  1  0  0  0
 15 10  1  0  0  0
 10 11  1  0  0  0
 10  6  1  0  0  0
  6  7  2  0  0  0
  6  8  1  0  0  0
  8  5  1  0  0  0
  5 18  1  0  0  0
 18 19  1  0  0  0
 19 20  2  0  0  0
 20 21  1  0  0  0
 21 22  2  0  0  0
 22 23  1  0  0  0
 23 24  2  0  0  0
  5  1  1  0  0  0
  1  2  2  0  0  0
  1  3  1  0  0  0
  3 25  1  0  0  0
 25 37  1  0  0  0
 37 38  1  0  0  0
 38 39  1  0  0  0
 39 40  1  0  0  0
 40 42  1  0  0  0
 42 43  1  0  0  0
 42 44  2  0  0  0
 25 26  1  0  0  0
 26 27  2  0  0  0
 26 28  1  0  0  0
 28 29  2  0  0  0
 29 30  1  0  0  0
 30 31  2  0  0  0
 31 32  1  0  0  0
 32 33  2  0  0  0
 33 34  1  0  0  0
 34 35  2  0  0  0
 35 36  1  0  0  0
 24 19  1  0  0  0
 36 28  1  0  0  0
 35 30  1  0  0  0
 16 17  1  0  0  0
 11 12  1  0  0  0
 11 13  1  0  0  0
  8  9  1  0  0  0
  3  4  1  0  0  0
 40 41  1  0  0  0
 43 45  1  0  0  0
 43 46  1  0  0  0
 44 47  1  0  0  0
M  END
> <minimizedAffinity>
-8.38610

> <CNNscore>
0.2389466763

> <CNNaffinity>
6.9189920425

> <CNN_VS>
1.6532701254

> <CNNaffinity_variance>
0.3559847176

$$$$
[H]c1nc(C(C#N)(C([H])([H])[H])C([H])([H])[H])c([H])c(C(=O)N([H])c2c([H])nc(C([H])([H])[H])c(-c3c([H])nc(OC([H])(C([H])([H])[H])C([H])([H])[H])c(N4C([H])([H])C([H])([H])OC([H])([H])C4([H])[H])c3[H])c2[H])c1[H]


 38 41  0  0  0  0  0  0  0  0999 V2000
   38.6233   12.8755  -15.4580 C   0  0  0  0  0  0  0  0  0  0  0  0
   37.8259   13.7706  -14.7100 C   0  0  0  0  0  0  0  0  0  0  0  0
   36.4745   13.6819  -14.7048 C   0  0  0  0  0  0  0  0  0  0  0  0
   35.8885   12.6663  -15.4611 C   0  0  0  0  0  0  0  0  0  0  0  0
   36.6168   11.8223  -16.1695 N   0  0  0  0  0  0  0  0  0  0  0  0
   37.9830   11.9232  -16.1735 C   0  0  0  0  0  0  0  0  0  0  0  0
   38.7226   10.9543  -17.0341 C   0  0  0  0  0  0  0  0  0  0  0  0
   42.7788   13.5507  -15.4901 C   0  0  0  0  0  0  0  0  0  0  0  0
   42.1153   13.1406  -16.5851 N   0  0  0  0  0  0  0  0  0  0  0  0
   40.8044   12.9154  -16.6068 C   0  0  0  0  0  0  0  0  0  0  0  0
   40.0731   13.1242  -15.4084 C   0  0  0  0  0  0  0  0  0  0  0  0
   40.7447   13.5397  -14.3177 C   0  0  0  0  0  0  0  0  0  0  0  0
   42.1375   13.7812  -14.2703 C   0  0  0  0  0  0  0  0  0  0  0  0
   42.7913   14.2014  -13.1207 N   0  0  0  0  0  0  0  0  0  0  0  0
   42.8261   15.5117  -12.5252 C   0  0  0  0  0  0  0  0  0  0  0  0
   43.4104   15.4044  -11.1274 C   0  0  0  0  0  0  0  0  0  0  0  0
   44.7024   14.9809  -11.0623 O   0  0  0  0  0  0  0  0  0  0  0  0
   44.9344   13.9761  -11.9618 C   0  0  0  0  0  0  0  0  0  0  0  0
   43.6122   13.2703  -12.3648 C   0  0  0  0  0  0  0  0  0  0  0  0
   44.1029   13.7518  -15.5593 O   0  0  0  0  0  0  0  0  0  0  0  0
   44.6889   11.6190  -16.5827 C   0  0  0  0  0  0  0  0  0  0  0  0
   45.1442   13.0045  -16.0803 C   0  0  0  0  0  0  0  0  0  0  0  0
   46.3006   12.8039  -15.1845 C   0  0  0  0  0  0  0  0  0  0  0  0
   35.5852   14.6222  -14.0328 N   0  0  0  0  0  0  0  0  0  0  0  0
   35.1536   14.2897  -12.7598 C   0  0  0  0  0  0  0  0  0  0  0  0
   35.6185   13.1149  -12.3370 O   0  0  0  0  0  0  0  0  0  0  0  0
   35.3311   15.4946  -14.5589 H   0  0  0  0  0  0  0  0  0  0  0  0
   34.3141   14.9189  -11.7857 C   0  0  0  0  0  0  0  0  0  0  0  0
   32.9675   15.1174  -12.0494 C   0  0  0  0  0  0  0  0  0  0  0  0
   32.1501   15.6766  -11.0735 C   0  0  0  0  0  0  0  0  0  0  0  0
   32.6943   16.0202   -9.8800 N   0  0  0  0  0  0  0  0  0  0  0  0
   33.9948   15.8374   -9.6062 C   0  0  0  0  0  0  0  0  0  0  0  0
   34.8048   15.2881  -10.5592 C   0  0  0  0  0  0  0  0  0  0  0  0
   34.5295   16.2080   -8.2780 C   0  0  0  0  0  0  0  0  0  0  0  0
   35.5473   17.3142   -8.3474 C   0  0  0  0  0  0  0  0  0  0  0  0
   33.3325   16.6343   -7.4266 C   0  0  0  0  0  0  0  0  0  0  0  0
   35.1410   15.0546   -7.6466 C   0  0  0  0  0  0  0  0  0  0  0  0
   35.6283   14.1140   -7.1527 N   0  0  0  0  0  0  0  0  0  0  0  0
 21 22  1  0  0  0
 22 23  1  0  0  0
 22 20  1  0  0  0
 20  8  1  0  0  0
  8  9  2  0  0  0
  9 10  1  0  0  0
 10 11  2  0  0  0
 11 12  1  0  0  0
 12 13  2  0  0  0
 13 14  1  0  0  0
 14 15  1  0  0  0
 15 16  1  0  0  0
 16 17  1  0  0  0
 17 18  1  0  0  0
 18 19  1  0  0  0
 11  1  1  0  0  0
  1  2  2  0  0  0
  2  3  1  0  0  0
  3 24  1  0  0  0
 24 25  1  0  0  0
 25 26  2  0  0  0
 25 28  1  0  0  0
 28 29  2  0  0  0
 29 30  1  0  0  0
 30 31  2  0  0  0
 31 32  1  0  0  0
 32 33  2  0  0  0
 32 34  1  0  0  0
 34 35  1  0  0  0
 34 36  1  0  0  0
 34 37  1  0  0  0
 37 38  3  0  0  0
  3  4  2  0  0  0
  4  5  1  0  0  0
  5  6  2  0  0  0
  6  7  1  0  0  0
 13  8  1  0  0  0
 19 14  1  0  0  0
  6  1  1  0  0  0
 33 28  1  0  0  0
 24 27  1  0  0  0
M  END
> <minimizedAffinity>
-8.50411

> <CNNscore>
0.2852047086

> <CNNaffinity>
6.9677367210

> <CNN_VS>
1.9872313738

> <CNNaffinity_variance>
0.1827738732

$$$$
[H]c1nc(C(C#N)(C([H])([H])[H])C([H])([H])[H])c([H])c(C(=O)N([H])c2c([H])nc(C([H])([H])[H])c(-c3c([H])nc(OC([H])(C([H])([H])[H])C([H])([H])[H])c(N4C([H])([H])C([H])([H])OC([H])([H])C4([H])[H])c3[H])c2[H])c1[H]


 38 41  0  0  0  0  0  0  0  0999 V2000
   35.7696   12.2846  -15.5966 C   0  0  0  0  0  0  0  0  0  0  0  0
   37.1622   12.4945  -15.7110 C   0  0  0  0  0  0  0  0  0  0  0  0
   37.9188   11.7778  -16.5760 C   0  0  0  0  0  0  0  0  0  0  0  0
   37.2746   10.8226  -17.3631 C   0  0  0  0  0  0  0  0  0  0  0  0
   35.9745   10.6094  -17.2680 N   0  0  0  0  0  0  0  0  0  0  0  0
   35.2181   11.3351  -16.3859 C   0  0  0  0  0  0  0  0  0  0  0  0
   33.7660   10.9989  -16.3161 C   0  0  0  0  0  0  0  0  0  0  0  0
   33.6599   14.5678  -12.7574 C   0  0  0  0  0  0  0  0  0  0  0  0
   33.0329   13.8907  -13.7351 N   0  0  0  0  0  0  0  0  0  0  0  0
   33.6703   13.1636  -14.6487 C   0  0  0  0  0  0  0  0  0  0  0  0
   35.0865   13.1006  -14.5798 C   0  0  0  0  0  0  0  0  0  0  0  0
   35.7062   13.7777  -13.5945 C   0  0  0  0  0  0  0  0  0  0  0  0
   35.0499   14.5599  -12.6158 C   0  0  0  0  0  0  0  0  0  0  0  0
   35.7293   15.2492  -11.6213 N   0  0  0  0  0  0  0  0  0  0  0  0
   36.1201   16.6343  -11.5832 C   0  0  0  0  0  0  0  0  0  0  0  0
   36.5599   16.9857  -10.1726 C   0  0  0  0  0  0  0  0  0  0  0  0
   37.6587   16.3229   -9.7183 O   0  0  0  0  0  0  0  0  0  0  0  0
   37.6320   15.0096  -10.1016 C   0  0  0  0  0  0  0  0  0  0  0  0
   36.1856   14.5526  -10.4302 C   0  0  0  0  0  0  0  0  0  0  0  0
   32.9362   15.2772  -11.8791 O   0  0  0  0  0  0  0  0  0  0  0  0
   30.5679   14.7446  -11.6622 C   0  0  0  0  0  0  0  0  0  0  0  0
   31.9398   14.9335  -10.9828 C   0  0  0  0  0  0  0  0  0  0  0  0
   31.7576   15.8534   -9.8424 C   0  0  0  0  0  0  0  0  0  0  0  0
   39.3698   11.8746  -16.6841 N   0  0  0  0  0  0  0  0  0  0  0  0
   40.0315   12.6110  -15.7161 C   0  0  0  0  0  0  0  0  0  0  0  0
   39.2124   13.1503  -14.8143 O   0  0  0  0  0  0  0  0  0  0  0  0
   39.8204   11.3755  -17.4906 H   0  0  0  0  0  0  0  0  0  0  0  0
   41.4026   12.9329  -15.4589 C   0  0  0  0  0  0  0  0  0  0  0  0
   42.3863   12.5688  -16.3656 C   0  0  0  0  0  0  0  0  0  0  0  0
   43.7068   12.9375  -16.1334 C   0  0  0  0  0  0  0  0  0  0  0  0
   44.0032   13.6462  -15.0161 N   0  0  0  0  0  0  0  0  0  0  0  0
   43.0660   14.0068  -14.1265 C   0  0  0  0  0  0  0  0  0  0  0  0
   41.7662   13.6491  -14.3471 C   0  0  0  0  0  0  0  0  0  0  0  0
   43.4428   14.8012  -12.9373 C   0  0  0  0  0  0  0  0  0  0  0  0
   43.5797   13.9624  -11.6954 C   0  0  0  0  0  0  0  0  0  0  0  0
   44.7693   15.4864  -13.2696 C   0  0  0  0  0  0  0  0  0  0  0  0
   42.4539   15.8332  -12.6927 C   0  0  0  0  0  0  0  0  0  0  0  0
   41.6535   16.6662  -12.5146 N   0  0  0  0  0  0  0  0  0  0  0  0
 21 22  1  0  0  0
 22 23  1  0  0  0
 22 20  1  0  0  0
 20  8  1  0  0  0
  8  9  2  0  0  0
  9 10  1  0  0  0
 10 11  2  0  0  0
 11 12  1  0  0  0
 12 13  2  0  0  0
 13 14  1  0  0  0
 14 15  1  0  0  0
 15 16  1  0  0  0
 16 17  1  0  0  0
 17 18  1  0  0  0
 18 19  1  0  0  0
 11  1  1  0  0  0
  1  2  2  0  0  0
  2  3  1  0  0  0
  3 24  1  0  0  0
 24 25  1  0  0  0
 25 26  2  0  0  0
 25 28  1  0  0  0
 28 29  2  0  0  0
 29 30  1  0  0  0
 30 31  2  0  0  0
 31 32  1  0  0  0
 32 33  2  0  0  0
 32 34  1  0  0  0
 34 35  1  0  0  0
 34 36  1  0  0  0
 34 37  1  0  0  0
 37 38  3  0  0  0
  3  4  2  0  0  0
  4  5  1  0  0  0
  5  6  2  0  0  0
  6  7  1  0  0  0
 13  8  1  0  0  0
 19 14  1  0  0  0
  6  1  1  0  0  0
 33 28  1  0  0  0
 24 27  1  0  0  0
M  END
> <minimizedAffinity>
-9.67034

> <CNNscore>
0.2317172140

> <CNNaffinity>
7.1978502274

> <CNN_VS>
1.6678657532

> <CNNaffinity_variance>
0.2706674933

$$$$
[H]c1nc(C(C#N)(C([H])([H])[H])C([H])([H])[H])c([H])c(C(=O)N([H])c2c([H])nc(C([H])([H])[H])c(-c3c([H])nc(OC([H])(C([H])([H])[H])C([H])([H])[H])c(N4C([H])([H])C([H])([H])OC([H])([H])C4([H])[H])c3[H])c2[H])c1[H]


 38 41  0  0  0  0  0  0  0  0999 V2000
   40.9430   13.3822  -14.8267 C   0  0  0  0  0  0  0  0  0  0  0  0
   41.9811   13.5804  -13.8888 C   0  0  0  0  0  0  0  0  0  0  0  0
   43.2807   13.6227  -14.2675 C   0  0  0  0  0  0  0  0  0  0  0  0
   43.5656   13.4707  -15.6250 C   0  0  0  0  0  0  0  0  0  0  0  0
   42.6094   13.2810  -16.5163 N   0  0  0  0  0  0  0  0  0  0  0  0
   41.2979   13.2337  -16.1232 C   0  0  0  0  0  0  0  0  0  0  0  0
   40.2887   12.9745  -17.1912 C   0  0  0  0  0  0  0  0  0  0  0  0
   37.0324   13.0211  -13.3098 C   0  0  0  0  0  0  0  0  0  0  0  0
   37.5262   12.1618  -14.2181 N   0  0  0  0  0  0  0  0  0  0  0  0
   38.7554   12.2504  -14.7190 C   0  0  0  0  0  0  0  0  0  0  0  0
   39.5851   13.3082  -14.2639 C   0  0  0  0  0  0  0  0  0  0  0  0
   39.0843   14.1615  -13.3505 C   0  0  0  0  0  0  0  0  0  0  0  0
   37.7802   14.0892  -12.8076 C   0  0  0  0  0  0  0  0  0  0  0  0
   37.3012   14.9960  -11.8728 N   0  0  0  0  0  0  0  0  0  0  0  0
   37.6429   15.1286  -10.4805 C   0  0  0  0  0  0  0  0  0  0  0  0
   37.0948   16.4458   -9.9598 C   0  0  0  0  0  0  0  0  0  0  0  0
   35.7389   16.5650   -9.9769 O   0  0  0  0  0  0  0  0  0  0  0  0
   35.2144   16.0296  -11.1218 C   0  0  0  0  0  0  0  0  0  0  0  0
   36.2814   15.9615  -12.2468 C   0  0  0  0  0  0  0  0  0  0  0  0
   35.7797   12.8561  -12.8601 O   0  0  0  0  0  0  0  0  0  0  0  0
   34.7386   12.2810  -14.9873 C   0  0  0  0  0  0  0  0  0  0  0  0
   34.5705   12.6388  -13.4962 C   0  0  0  0  0  0  0  0  0  0  0  0
   33.5895   13.7382  -13.4021 C   0  0  0  0  0  0  0  0  0  0  0  0
   44.4080   13.7321  -13.3491 N   0  0  0  0  0  0  0  0  0  0  0  0
   44.6310   14.9655  -12.7608 C   0  0  0  0  0  0  0  0  0  0  0  0
   43.7631   15.8985  -13.1500 O   0  0  0  0  0  0  0  0  0  0  0  0
   44.9780   12.8646  -13.1912 H   0  0  0  0  0  0  0  0  0  0  0  0
   45.5876   15.4763  -11.8260 C   0  0  0  0  0  0  0  0  0  0  0  0
   45.6149   14.9986  -10.5248 C   0  0  0  0  0  0  0  0  0  0  0  0
   46.5854   15.4599   -9.6424 C   0  0  0  0  0  0  0  0  0  0  0  0
   47.4861   16.3751  -10.0779 N   0  0  0  0  0  0  0  0  0  0  0  0
   47.4755   16.8503  -11.3324 C   0  0  0  0  0  0  0  0  0  0  0  0
   46.5256   16.4021  -12.2059 C   0  0  0  0  0  0  0  0  0  0  0  0
   48.4979   17.8295  -11.7604 C   0  0  0  0  0  0  0  0  0  0  0  0
   49.3665   18.2992  -10.6249 C   0  0  0  0  0  0  0  0  0  0  0  0
   49.3440   17.1403  -12.8321 C   0  0  0  0  0  0  0  0  0  0  0  0
   47.8614   18.9837  -12.3650 C   0  0  0  0  0  0  0  0  0  0  0  0
   47.3596   19.9118  -12.8680 N   0  0  0  0  0  0  0  0  0  0  0  0
 21 22  1  0  0  0
 22 23  1  0  0  0
 22 20  1  0  0  0
 20  8  1  0  0  0
  8  9  2  0  0  0
  9 10  1  0  0  0
 10 11  2  0  0  0
 11 12  1  0  0  0
 12 13  2  0  0  0
 13 14  1  0  0  0
 14 15  1  0  0  0
 15 16  1  0  0  0
 16 17  1  0  0  0
 17 18  1  0  0  0
 18 19  1  0  0  0
 11  1  1  0  0  0
  1  2  2  0  0  0
  2  3  1  0  0  0
  3 24  1  0  0  0
 24 25  1  0  0  0
 25 26  2  0  0  0
 25 28  1  0  0  0
 28 29  2  0  0  0
 29 30  1  0  0  0
 30 31  2  0  0  0
 31 32  1  0  0  0
 32 33  2  0  0  0
 32 34  1  0  0  0
 34 35  1  0  0  0
 34 36  1  0  0  0
 34 37  1  0  0  0
 37 38  3  0  0  0
  3  4  2  0  0  0
  4  5  1  0  0  0
  5  6  2  0  0  0
  6  7  1  0  0  0
 13  8  1  0  0  0
 19 14  1  0  0  0
  6  1  1  0  0  0
 33 28  1  0  0  0
 24 27  1  0  0  0
M  END
> <minimizedAffinity>
-7.29209

> <CNNscore>
0.1984520853

> <CNNaffinity>
6.7326927185

> <CNN_VS>
1.3361169100

> <CNNaffinity_variance>
0.1370995194

$$$$
[H]c1nc(C(C#N)(C([H])([H])[H])C([H])([H])[H])c([H])c(C(=O)N([H])c2c([H])nc(C([H])([H])[H])c(-c3c([H])nc(OC([H])(C([H])([H])[H])C([H])([H])[H])c(N4C([H])([H])C([H])([H])OC([H])([H])C4([H])[H])c3[H])c2[H])c1[H]


 38 41  0  0  0  0  0  0  0  0999 V2000
   40.9821   13.3248  -14.9449 C   0  0  0  0  0  0  0  0  0  0  0  0
   41.9220   13.5887  -13.9235 C   0  0  0  0  0  0  0  0  0  0  0  0
   43.2511   13.6405  -14.1788 C   0  0  0  0  0  0  0  0  0  0  0  0
   43.6673   13.4310  -15.4940 C   0  0  0  0  0  0  0  0  0  0  0  0
   42.8041   13.1795  -16.4617 N   0  0  0  0  0  0  0  0  0  0  0  0
   41.4620   13.1231  -16.1930 C   0  0  0  0  0  0  0  0  0  0  0  0
   40.5641   12.7928  -17.3381 C   0  0  0  0  0  0  0  0  0  0  0  0
   36.9444   12.9654  -13.8080 C   0  0  0  0  0  0  0  0  0  0  0  0
   37.4997   12.1582  -14.7285 N   0  0  0  0  0  0  0  0  0  0  0  0
   38.7705   12.2481  -15.1116 C   0  0  0  0  0  0  0  0  0  0  0  0
   39.5779   13.2487  -14.5106 C   0  0  0  0  0  0  0  0  0  0  0  0
   39.0150   14.0497  -13.5861 C   0  0  0  0  0  0  0  0  0  0  0  0
   37.6662   13.9753  -13.1666 C   0  0  0  0  0  0  0  0  0  0  0  0
   37.1243   14.8276  -12.2151 N   0  0  0  0  0  0  0  0  0  0  0  0
   36.2351   15.9448  -12.4001 C   0  0  0  0  0  0  0  0  0  0  0  0
   35.6830   16.3665  -11.0496 C   0  0  0  0  0  0  0  0  0  0  0  0
   36.6026   16.8245  -10.1566 O   0  0  0  0  0  0  0  0  0  0  0  0
   37.7477   16.0770  -10.2058 C   0  0  0  0  0  0  0  0  0  0  0  0
   37.4743   14.6750  -10.8129 C   0  0  0  0  0  0  0  0  0  0  0  0
   35.6533   12.8036  -13.4833 O   0  0  0  0  0  0  0  0  0  0  0  0
   33.4013   13.7072  -13.2560 C   0  0  0  0  0  0  0  0  0  0  0  0
   34.4724   13.0592  -14.1573 C   0  0  0  0  0  0  0  0  0  0  0  0
   33.8553   11.9001  -14.8322 C   0  0  0  0  0  0  0  0  0  0  0  0
   44.2833   13.8167  -13.1639 N   0  0  0  0  0  0  0  0  0  0  0  0
   44.3258   15.0339  -12.5053 C   0  0  0  0  0  0  0  0  0  0  0  0
   43.3973   15.8920  -12.9256 O   0  0  0  0  0  0  0  0  0  0  0  0
   44.9281   13.0051  -12.9963 H   0  0  0  0  0  0  0  0  0  0  0  0
   45.1446   15.5904  -11.4711 C   0  0  0  0  0  0  0  0  0  0  0  0
   45.4373   16.9456  -11.4667 C   0  0  0  0  0  0  0  0  0  0  0  0
   46.1852   17.4849  -10.4259 C   0  0  0  0  0  0  0  0  0  0  0  0
   46.6164   16.6658   -9.4350 N   0  0  0  0  0  0  0  0  0  0  0  0
   46.3447   15.3521   -9.4221 C   0  0  0  0  0  0  0  0  0  0  0  0
   45.6102   14.8142  -10.4406 C   0  0  0  0  0  0  0  0  0  0  0  0
   46.8197   14.5103   -8.3027 C   0  0  0  0  0  0  0  0  0  0  0  0
   47.7821   15.2317   -7.3984 C   0  0  0  0  0  0  0  0  0  0  0  0
   45.5775   14.0743   -7.5238 C   0  0  0  0  0  0  0  0  0  0  0  0
   47.4691   13.3191   -8.8146 C   0  0  0  0  0  0  0  0  0  0  0  0
   47.9808   12.3480   -9.2162 N   0  0  0  0  0  0  0  0  0  0  0  0
 21 22  1  0  0  0
 22 23  1  0  0  0
 22 20  1  0  0  0
 20  8  1  0  0  0
  8  9  2  0  0  0
  9 10  1  0  0  0
 10 11  2  0  0  0
 11 12  1  0  0  0
 12 13  2  0  0  0
 13 14  1  0  0  0
 14 15  1  0  0  0
 15 16  1  0  0  0
 16 17  1  0  0  0
 17 18  1  0  0  0
 18 19  1  0  0  0
 11  1  1  0  0  0
  1  2  2  0  0  0
  2  3  1  0  0  0
  3 24  1  0  0  0
 24 25  1  0  0  0
 25 26  2  0  0  0
 25 28  1  0  0  0
 28 29  2  0  0  0
 29 30  1  0  0  0
 30 31  2  0  0  0
 31 32  1  0  0  0
 32 33  2  0  0  0
 32 34  1  0  0  0
 34 35  1  0  0  0
 34 36  1  0  0  0
 34 37  1  0  0  0
 37 38  3  0  0  0
  3  4  2  0  0  0
  4  5  1  0  0  0
  5  6  2  0  0  0
  6  7  1  0  0  0
 13  8  1  0  0  0
 19 14  1  0  0  0
  6  1  1  0  0  0
 33 28  1  0  0  0
 24 27  1  0  0  0
M  END
> <minimizedAffinity>
-7.01908

> <CNNscore>
0.1967326999

> <CNNaffinity>
6.6423683167

> <CNN_VS>
1.3067710400

> <CNNaffinity_variance>
0.1028913260

$$$$
[H]c1nc(C(C#N)(C([H])([H])[H])C([H])([H])[H])c([H])c(C(=O)N([H])c2c([H])nc(C([H])([H])[H])c(-c3c([H])nc(OC([H])(C([H])([H])[H])C([H])([H])[H])c(N4C([H])([H])C([H])([H])OC([H])([H])C4([H])[H])c3[H])c2[H])c1[H]


 38 41  0  0  0  0  0  0  0  0999 V2000
   37.8122   12.3026  -15.9822 C   0  0  0  0  0  0  0  0  0  0  0  0
   39.1574   12.7345  -15.9583 C   0  0  0  0  0  0  0  0  0  0  0  0
   40.0621   12.2872  -16.8614 C   0  0  0  0  0  0  0  0  0  0  0  0
   39.6201   11.3848  -17.8294 C   0  0  0  0  0  0  0  0  0  0  0  0
   38.3677   10.9667  -17.8659 N   0  0  0  0  0  0  0  0  0  0  0  0
   37.4608   11.4200  -16.9447 C   0  0  0  0  0  0  0  0  0  0  0  0
   36.0795   10.8632  -17.0361 C   0  0  0  0  0  0  0  0  0  0  0  0
   35.2350   13.7108  -12.9657 C   0  0  0  0  0  0  0  0  0  0  0  0
   34.8397   12.8004  -13.8725 N   0  0  0  0  0  0  0  0  0  0  0  0
   35.6281   12.3381  -14.8392 C   0  0  0  0  0  0  0  0  0  0  0  0
   36.9563   12.8336  -14.9091 C   0  0  0  0  0  0  0  0  0  0  0  0
   37.3455   13.7415  -13.9939 C   0  0  0  0  0  0  0  0  0  0  0  0
   36.5240   14.2501  -12.9610 C   0  0  0  0  0  0  0  0  0  0  0  0
   36.9639   15.1928  -12.0426 N   0  0  0  0  0  0  0  0  0  0  0  0
   36.4746   16.5261  -11.8069 C   0  0  0  0  0  0  0  0  0  0  0  0
   37.0650   17.0475  -10.5084 C   0  0  0  0  0  0  0  0  0  0  0  0
   38.4188   17.1884  -10.4941 O   0  0  0  0  0  0  0  0  0  0  0  0
   39.0271   16.1411  -11.1310 C   0  0  0  0  0  0  0  0  0  0  0  0
   38.0964   14.9000  -11.1800 C   0  0  0  0  0  0  0  0  0  0  0  0
   34.3714   14.1216  -12.0255 O   0  0  0  0  0  0  0  0  0  0  0  0
   33.0935   15.7206  -10.7026 C   0  0  0  0  0  0  0  0  0  0  0  0
   33.2978   14.9939  -12.0479 C   0  0  0  0  0  0  0  0  0  0  0  0
   32.0029   14.4073  -12.4469 C   0  0  0  0  0  0  0  0  0  0  0  0
   41.4826   12.6164  -16.8437 N   0  0  0  0  0  0  0  0  0  0  0  0
   42.0422   12.9512  -15.6222 C   0  0  0  0  0  0  0  0  0  0  0  0
   41.1643   12.9374  -14.6201 O   0  0  0  0  0  0  0  0  0  0  0  0
   41.9911   12.5756  -17.7615 H   0  0  0  0  0  0  0  0  0  0  0  0
   43.3554   13.3149  -15.1829 C   0  0  0  0  0  0  0  0  0  0  0  0
   44.4724   12.7931  -15.8172 C   0  0  0  0  0  0  0  0  0  0  0  0
   45.7417   13.1983  -15.4196 C   0  0  0  0  0  0  0  0  0  0  0  0
   45.8574   14.0977  -14.4115 N   0  0  0  0  0  0  0  0  0  0  0  0
   44.7891   14.6129  -13.7847 C   0  0  0  0  0  0  0  0  0  0  0  0
   43.5384   14.2207  -14.1694 C   0  0  0  0  0  0  0  0  0  0  0  0
   44.9738   15.6097  -12.7078 C   0  0  0  0  0  0  0  0  0  0  0  0
   46.3239   15.5140  -12.0502 C   0  0  0  0  0  0  0  0  0  0  0  0
   44.7861   16.9864  -13.3474 C   0  0  0  0  0  0  0  0  0  0  0  0
   43.9513   15.4434  -11.6931 C   0  0  0  0  0  0  0  0  0  0  0  0
   43.1135   15.3125  -10.8887 N   0  0  0  0  0  0  0  0  0  0  0  0
 21 22  1  0  0  0
 22 23  1  0  0  0
 22 20  1  0  0  0
 20  8  1  0  0  0
  8  9  2  0  0  0
  9 10  1  0  0  0
 10 11  2  0  0  0
 11 12  1  0  0  0
 12 13  2  0  0  0
 13 14  1  0  0  0
 14 15  1  0  0  0
 15 16  1  0  0  0
 16 17  1  0  0  0
 17 18  1  0  0  0
 18 19  1  0  0  0
 11  1  1  0  0  0
  1  2  2  0  0  0
  2  3  1  0  0  0
  3 24  1  0  0  0
 24 25  1  0  0  0
 25 26  2  0  0  0
 25 28  1  0  0  0
 28 29  2  0  0  0
 29 30  1  0  0  0
 30 31  2  0  0  0
 31 32  1  0  0  0
 32 33  2  0  0  0
 32 34  1  0  0  0
 34 35  1  0  0  0
 34 36  1  0  0  0
 34 37  1  0  0  0
 37 38  3  0  0  0
  3  4  2  0  0  0
  4  5  1  0  0  0
  5  6  2  0  0  0
  6  7  1  0  0  0
 13  8  1  0  0  0
 19 14  1  0  0  0
  6  1  1  0  0  0
 33 28  1  0  0  0
 24 27  1  0  0  0
M  END
> <minimizedAffinity>
-8.52888

> <CNNscore>
0.1855849326

> <CNNaffinity>
7.2494010925

> <CNN_VS>
1.3453795910

> <CNNaffinity_variance>
0.1656825393

$$$$
[H]c1nc(C(C#N)(C([H])([H])[H])C([H])([H])[H])c([H])c(C(=O)N([H])c2c([H])nc(C([H])([H])[H])c(-c3c([H])nc(OC([H])(C([H])([H])[H])C([H])([H])[H])c(N4C([H])([H])C([H])([H])OC([H])([H])C4([H])[H])c3[H])c2[H])c1[H]


 38 41  0  0  0  0  0  0  0  0999 V2000
   41.1729   13.3704  -14.9802 C   0  0  0  0  0  0  0  0  0  0  0  0
   42.1520   13.5978  -13.9873 C   0  0  0  0  0  0  0  0  0  0  0  0
   43.4612   13.3298  -14.2075 C   0  0  0  0  0  0  0  0  0  0  0  0
   43.8180   12.8249  -15.4584 C   0  0  0  0  0  0  0  0  0  0  0  0
   42.9168   12.6023  -16.3981 N   0  0  0  0  0  0  0  0  0  0  0  0
   41.5939   12.8709  -16.1643 C   0  0  0  0  0  0  0  0  0  0  0  0
   40.6414   12.5503  -17.2671 C   0  0  0  0  0  0  0  0  0  0  0  0
   37.2654   14.3386  -13.7476 C   0  0  0  0  0  0  0  0  0  0  0  0
   38.3381   15.0277  -13.3212 N   0  0  0  0  0  0  0  0  0  0  0  0
   39.5849   14.7451  -13.6891 C   0  0  0  0  0  0  0  0  0  0  0  0
   39.7860   13.6601  -14.5816 C   0  0  0  0  0  0  0  0  0  0  0  0
   38.7057   12.9784  -15.0077 C   0  0  0  0  0  0  0  0  0  0  0  0
   37.3725   13.2580  -14.6268 C   0  0  0  0  0  0  0  0  0  0  0  0
   36.2877   12.5234  -15.0842 N   0  0  0  0  0  0  0  0  0  0  0  0
   35.9845   12.0930  -16.4242 C   0  0  0  0  0  0  0  0  0  0  0  0
   34.8658   11.0671  -16.3731 C   0  0  0  0  0  0  0  0  0  0  0  0
   33.6740   11.5216  -15.8978 O   0  0  0  0  0  0  0  0  0  0  0  0
   33.8592   12.3609  -14.8330 C   0  0  0  0  0  0  0  0  0  0  0  0
   35.2384   12.1187  -14.1637 C   0  0  0  0  0  0  0  0  0  0  0  0
   36.0437   14.6934  -13.3234 O   0  0  0  0  0  0  0  0  0  0  0  0
   34.0125   15.1237  -12.0471 C   0  0  0  0  0  0  0  0  0  0  0  0
   35.5542   15.1046  -12.0964 C   0  0  0  0  0  0  0  0  0  0  0  0
   36.0388   16.4150  -11.6190 C   0  0  0  0  0  0  0  0  0  0  0  0
   44.5121   13.4523  -13.2041 N   0  0  0  0  0  0  0  0  0  0  0  0
   45.1130   14.6916  -13.0613 C   0  0  0  0  0  0  0  0  0  0  0  0
   44.6350   15.6079  -13.9022 O   0  0  0  0  0  0  0  0  0  0  0  0
   44.7440   12.5903  -12.6513 H   0  0  0  0  0  0  0  0  0  0  0  0
   46.1396   15.2206  -12.2151 C   0  0  0  0  0  0  0  0  0  0  0  0
   47.4529   15.2667  -12.6573 C   0  0  0  0  0  0  0  0  0  0  0  0
   48.4314   15.8355  -11.8497 C   0  0  0  0  0  0  0  0  0  0  0  0
   48.0758   16.3319  -10.6390 N   0  0  0  0  0  0  0  0  0  0  0  0
   46.8111   16.2956  -10.1930 C   0  0  0  0  0  0  0  0  0  0  0  0
   45.8434   15.7388  -10.9803 C   0  0  0  0  0  0  0  0  0  0  0  0
   46.4758   16.8745   -8.8740 C   0  0  0  0  0  0  0  0  0  0  0  0
   47.6311   17.6089   -8.2491 C   0  0  0  0  0  0  0  0  0  0  0  0
   45.2968   17.8228   -9.0981 C   0  0  0  0  0  0  0  0  0  0  0  0
   46.0448   15.8298   -7.9654 C   0  0  0  0  0  0  0  0  0  0  0  0
   45.6947   15.0011   -7.2192 N   0  0  0  0  0  0  0  0  0  0  0  0
 21 22  1  0  0  0
 22 23  1  0  0  0
 22 20  1  0  0  0
 20  8  1  0  0  0
  8  9  2  0  0  0
  9 10  1  0  0  0
 10 11  2  0  0  0
 11 12  1  0  0  0
 12 13  2  0  0  0
 13 14  1  0  0  0
 14 15  1  0  0  0
 15 16  1  0  0  0
 16 17  1  0  0  0
 17 18  1  0  0  0
 18 19  1  0  0  0
 11  1  1  0  0  0
  1  2  2  0  0  0
  2  3  1  0  0  0
  3 24  1  0  0  0
 24 25  1  0  0  0
 25 26  2  0  0  0
 25 28  1  0  0  0
 28 29  2  0  0  0
 29 30  1  0  0  0
 30 31  2  0  0  0
 31 32  1  0  0  0
 32 33  2  0  0  0
 32 34  1  0  0  0
 34 35  1  0  0  0
 34 36  1  0  0  0
 34 37  1  0  0  0
 37 38  3  0  0  0
  3  4  2  0  0  0
  4  5  1  0  0  0
  5  6  2  0  0  0
  6  7  1  0  0  0
 13  8  1  0  0  0
 19 14  1  0  0  0
  6  1  1  0  0  0
 33 28  1  0  0  0
 24 27  1  0  0  0
M  END
> <minimizedAffinity>
-7.67696

> <CNNscore>
0.1825858951

> <CNNaffinity>
6.7059593201

> <CNN_VS>
1.2244136333

> <CNNaffinity_variance>
0.2183461636

$$$$
[H]c1nc(C(C#N)(C([H])([H])[H])C([H])([H])[H])c([H])c(C(=O)N([H])c2c([H])nc(C([H])([H])[H])c(-c3c([H])nc(OC([H])(C([H])([H])[H])C([H])([H])[H])c(N4C([H])([H])C([H])([H])OC([H])([H])C4([H])[H])c3[H])c2[H])c1[H]


 38 41  0  0  0  0  0  0  0  0999 V2000
   40.9983   13.4211  -14.8809 C   0  0  0  0  0  0  0  0  0  0  0  0
   41.9149   13.9519  -13.9458 C   0  0  0  0  0  0  0  0  0  0  0  0
   43.2434   14.0017  -14.2046 C   0  0  0  0  0  0  0  0  0  0  0  0
   43.6825   13.5156  -15.4365 C   0  0  0  0  0  0  0  0  0  0  0  0
   42.8415   13.0124  -16.3221 N   0  0  0  0  0  0  0  0  0  0  0  0
   41.5000   12.9607  -16.0493 C   0  0  0  0  0  0  0  0  0  0  0  0
   40.6296   12.3389  -17.0895 C   0  0  0  0  0  0  0  0  0  0  0  0
   36.9515   13.1879  -13.7435 C   0  0  0  0  0  0  0  0  0  0  0  0
   37.4572   12.4340  -14.7350 N   0  0  0  0  0  0  0  0  0  0  0  0
   38.7294   12.4864  -15.1202 C   0  0  0  0  0  0  0  0  0  0  0  0
   39.5937   13.3853  -14.4424 C   0  0  0  0  0  0  0  0  0  0  0  0
   39.0801   14.1331  -13.4473 C   0  0  0  0  0  0  0  0  0  0  0  0
   37.7310   14.0971  -13.0239 C   0  0  0  0  0  0  0  0  0  0  0  0
   37.2413   14.8925  -11.9976 N   0  0  0  0  0  0  0  0  0  0  0  0
   37.4886   14.8003  -10.5823 C   0  0  0  0  0  0  0  0  0  0  0  0
   36.9848   16.0649   -9.9087 C   0  0  0  0  0  0  0  0  0  0  0  0
   35.6434   16.2804   -9.9932 O   0  0  0  0  0  0  0  0  0  0  0  0
   35.1719   15.9523  -11.2352 C   0  0  0  0  0  0  0  0  0  0  0  0
   36.3115   15.9709  -12.2886 C   0  0  0  0  0  0  0  0  0  0  0  0
   35.6547   13.0701  -13.4225 O   0  0  0  0  0  0  0  0  0  0  0  0
   33.3293   13.7981  -13.3768 C   0  0  0  0  0  0  0  0  0  0  0  0
   34.4889   13.1525  -14.1629 C   0  0  0  0  0  0  0  0  0  0  0  0
   33.9983   11.8809  -14.7306 C   0  0  0  0  0  0  0  0  0  0  0  0
   44.2560   14.4496  -13.2557 N   0  0  0  0  0  0  0  0  0  0  0  0
   44.6481   13.5544  -12.2749 C   0  0  0  0  0  0  0  0  0  0  0  0
   44.0065   12.3885  -12.3401 O   0  0  0  0  0  0  0  0  0  0  0  0
   44.6251   15.4247  -13.3800 H   0  0  0  0  0  0  0  0  0  0  0  0
   45.5884   13.5921  -11.1959 C   0  0  0  0  0  0  0  0  0  0  0  0
   45.9238   14.8007  -10.6051 C   0  0  0  0  0  0  0  0  0  0  0  0
   46.7936   14.8186   -9.5204 C   0  0  0  0  0  0  0  0  0  0  0  0
   47.2993   13.6455   -9.0657 N   0  0  0  0  0  0  0  0  0  0  0  0
   46.9879   12.4663   -9.6244 C   0  0  0  0  0  0  0  0  0  0  0  0
   46.1337   12.4397  -10.6902 C   0  0  0  0  0  0  0  0  0  0  0  0
   47.5498   11.2151   -9.0712 C   0  0  0  0  0  0  0  0  0  0  0  0
   48.2479   11.4220   -7.7543 C   0  0  0  0  0  0  0  0  0  0  0  0
   46.3803   10.2425   -8.9103 C   0  0  0  0  0  0  0  0  0  0  0  0
   48.4911   10.6335  -10.0084 C   0  0  0  0  0  0  0  0  0  0  0  0
   49.2622   10.1615  -10.7492 N   0  0  0  0  0  0  0  0  0  0  0  0
 21 22  1  0  0  0
 22 23  1  0  0  0
 22 20  1  0  0  0
 20  8  1  0  0  0
  8  9  2  0  0  0
  9 10  1  0  0  0
 10 11  2  0  0  0
 11 12  1  0  0  0
 12 13  2  0  0  0
 13 14  1  0  0  0
 14 15  1  0  0  0
 15 16  1  0  0  0
 16 17  1  0  0  0
 17 18  1  0  0  0
 18 19  1  0  0  0
 11  1  1  0  0  0
  1  2  2  0  0  0
  2  3  1  0  0  0
  3 24  1  0  0  0
 24 25  1  0  0  0
 25 26  2  0  0  0
 25 28  1  0  0  0
 28 29  2  0  0  0
 29 30  1  0  0  0
 30 31  2  0  0  0
 31 32  1  0  0  0
 32 33  2  0  0  0
 32 34  1  0  0  0
 34 35  1  0  0  0
 34 36  1  0  0  0
 34 37  1  0  0  0
 37 38  3  0  0  0
  3  4  2  0  0  0
  4  5  1  0  0  0
  5  6  2  0  0  0
  6  7  1  0  0  0
 13  8  1  0  0  0
 19 14  1  0  0  0
  6  1  1  0  0  0
 33 28  1  0  0  0
 24 27  1  0  0  0
M  END
> <minimizedAffinity>
-7.31187

> <CNNscore>
0.1600666195

> <CNNaffinity>
6.6674408913

> <CNN_VS>
1.0672347546

> <CNNaffinity_variance>
0.0410603397

$$$$
[H]c1nc(C(C#N)(C([H])([H])[H])C([H])([H])[H])c([H])c(C(=O)N([H])c2c([H])nc(C([H])([H])[H])c(-c3c([H])nc(OC([H])(C([H])([H])[H])C([H])([H])[H])c(N4C([H])([H])C([H])([H])OC([H])([H])C4([H])[H])c3[H])c2[H])c1[H]


 38 41  0  0  0  0  0  0  0  0999 V2000
   38.2137   13.4465  -14.6909 C   0  0  0  0  0  0  0  0  0  0  0  0
   37.7345   14.3932  -13.7580 C   0  0  0  0  0  0  0  0  0  0  0  0
   36.4128   14.5192  -13.4905 C   0  0  0  0  0  0  0  0  0  0  0  0
   35.5314   13.6731  -14.1645 C   0  0  0  0  0  0  0  0  0  0  0  0
   35.9600   12.7843  -15.0427 N   0  0  0  0  0  0  0  0  0  0  0  0
   37.2983   12.6680  -15.3113 C   0  0  0  0  0  0  0  0  0  0  0  0
   37.6880   11.6668  -16.3466 C   0  0  0  0  0  0  0  0  0  0  0  0
   42.3441   13.4394  -15.5064 C   0  0  0  0  0  0  0  0  0  0  0  0
   41.4326   13.1234  -16.4428 N   0  0  0  0  0  0  0  0  0  0  0  0
   40.1218   13.1131  -16.2162 C   0  0  0  0  0  0  0  0  0  0  0  0
   39.6681   13.4580  -14.9163 C   0  0  0  0  0  0  0  0  0  0  0  0
   40.5874   13.7779  -13.9858 C   0  0  0  0  0  0  0  0  0  0  0  0
   41.9850   13.7915  -14.2028 C   0  0  0  0  0  0  0  0  0  0  0  0
   42.8989   14.1200  -13.2115 N   0  0  0  0  0  0  0  0  0  0  0  0
   43.6900   13.2481  -12.3828 C   0  0  0  0  0  0  0  0  0  0  0  0
   44.7527   14.0693  -11.6738 C   0  0  0  0  0  0  0  0  0  0  0  0
   44.2864   15.0101  -10.8074 O   0  0  0  0  0  0  0  0  0  0  0  0
   43.1841   15.6413  -11.3165 C   0  0  0  0  0  0  0  0  0  0  0  0
   43.1298   15.5116  -12.8621 C   0  0  0  0  0  0  0  0  0  0  0  0
   43.6470   13.4224  -15.8235 O   0  0  0  0  0  0  0  0  0  0  0  0
   45.9641   12.7907  -15.4094 C   0  0  0  0  0  0  0  0  0  0  0  0
   44.5730   12.4025  -15.9514 C   0  0  0  0  0  0  0  0  0  0  0  0
   44.7520   11.8658  -17.3151 C   0  0  0  0  0  0  0  0  0  0  0  0
   35.8382   15.5310  -12.6116 N   0  0  0  0  0  0  0  0  0  0  0  0
   35.7069   15.2083  -11.2715 C   0  0  0  0  0  0  0  0  0  0  0  0
   36.1235   13.9758  -10.9841 O   0  0  0  0  0  0  0  0  0  0  0  0
   35.5627   16.4428  -13.0533 H   0  0  0  0  0  0  0  0  0  0  0  0
   35.2203   15.8959  -10.1139 C   0  0  0  0  0  0  0  0  0  0  0  0
   33.9314   15.6669   -9.6572 C   0  0  0  0  0  0  0  0  0  0  0  0
   33.4896   16.2964   -8.4988 C   0  0  0  0  0  0  0  0  0  0  0  0
   34.3349   17.1280   -7.8410 N   0  0  0  0  0  0  0  0  0  0  0  0
   35.5848   17.3634   -8.2675 C   0  0  0  0  0  0  0  0  0  0  0  0
   36.0270   16.7486   -9.4044 C   0  0  0  0  0  0  0  0  0  0  0  0
   36.4720   18.2608   -7.4963 C   0  0  0  0  0  0  0  0  0  0  0  0
   35.7150   19.1743   -6.5706 C   0  0  0  0  0  0  0  0  0  0  0  0
   37.4225   17.3625   -6.7031 C   0  0  0  0  0  0  0  0  0  0  0  0
   37.2682   19.0709   -8.3978 C   0  0  0  0  0  0  0  0  0  0  0  0
   37.8952   19.7362   -9.1261 N   0  0  0  0  0  0  0  0  0  0  0  0
 21 22  1  0  0  0
 22 23  1  0  0  0
 22 20  1  0  0  0
 20  8  1  0  0  0
  8  9  2  0  0  0
  9 10  1  0  0  0
 10 11  2  0  0  0
 11 12  1  0  0  0
 12 13  2  0  0  0
 13 14  1  0  0  0
 14 15  1  0  0  0
 15 16  1  0  0  0
 16 17  1  0  0  0
 17 18  1  0  0  0
 18 19  1  0  0  0
 11  1  1  0  0  0
  1  2  2  0  0  0
  2  3  1  0  0  0
  3 24  1  0  0  0
 24 25  1  0  0  0
 25 26  2  0  0  0
 25 28  1  0  0  0
 28 29  2  0  0  0
 29 30  1  0  0  0
 30 31  2  0  0  0
 31 32  1  0  0  0
 32 33  2  0  0  0
 32 34  1  0  0  0
 34 35  1  0  0  0
 34 36  1  0  0  0
 34 37  1  0  0  0
 37 38  3  0  0  0
  3  4  2  0  0  0
  4  5  1  0  0  0
  5  6  2  0  0  0
  6  7  1  0  0  0
 13  8  1  0  0  0
 19 14  1  0  0  0
  6  1  1  0  0  0
 33 28  1  0  0  0
 24 27  1  0  0  0
M  END
> <minimizedAffinity>
-8.51710

> <CNNscore>
0.1505783498

> <CNNaffinity>
6.4606161118

> <CNN_VS>
0.9728289247

> <CNNaffinity_variance>
0.3727791607

$$$$
[H]c1nc(C(C#N)(C([H])([H])[H])C([H])([H])[H])c([H])c(C(=O)N([H])c2c([H])nc(C([H])([H])[H])c(-c3c([H])nc(OC([H])(C([H])([H])[H])C([H])([H])[H])c(N4C([H])([H])C([H])([H])OC([H])([H])C4([H])[H])c3[H])c2[H])c1[H]


 38 41  0  0  0  0  0  0  0  0999 V2000
   38.2245   13.4990  -14.6204 C   0  0  0  0  0  0  0  0  0  0  0  0
   37.7863   14.4446  -13.6663 C   0  0  0  0  0  0  0  0  0  0  0  0
   36.4753   14.5850  -13.3572 C   0  0  0  0  0  0  0  0  0  0  0  0
   35.5628   13.7552  -14.0097 C   0  0  0  0  0  0  0  0  0  0  0  0
   35.9528   12.8677  -14.9071 N   0  0  0  0  0  0  0  0  0  0  0  0
   37.2805   12.7367  -15.2177 C   0  0  0  0  0  0  0  0  0  0  0  0
   37.6254   11.7386  -16.2718 C   0  0  0  0  0  0  0  0  0  0  0  0
   42.3273   13.4481  -15.5636 C   0  0  0  0  0  0  0  0  0  0  0  0
   41.3829   13.1607  -16.4763 N   0  0  0  0  0  0  0  0  0  0  0  0
   40.0797   13.1648  -16.2094 C   0  0  0  0  0  0  0  0  0  0  0  0
   39.6713   13.4941  -14.8906 C   0  0  0  0  0  0  0  0  0  0  0  0
   40.6233   13.7854  -13.9840 C   0  0  0  0  0  0  0  0  0  0  0  0
   42.0137   13.7832  -14.2439 C   0  0  0  0  0  0  0  0  0  0  0  0
   42.9622   14.0821  -13.2762 N   0  0  0  0  0  0  0  0  0  0  0  0
   43.6836   13.1890  -12.4074 C   0  0  0  0  0  0  0  0  0  0  0  0
   44.8201   13.9508  -11.7481 C   0  0  0  0  0  0  0  0  0  0  0  0
   44.4452   14.9717  -10.9296 O   0  0  0  0  0  0  0  0  0  0  0  0
   43.3963   15.6688  -11.4649 C   0  0  0  0  0  0  0  0  0  0  0  0
   43.3155   15.4647  -13.0013 C   0  0  0  0  0  0  0  0  0  0  0  0
   43.6194   13.4183  -15.9212 O   0  0  0  0  0  0  0  0  0  0  0  0
   45.9189   12.7848  -15.4206 C   0  0  0  0  0  0  0  0  0  0  0  0
   44.5487   12.3976  -16.0141 C   0  0  0  0  0  0  0  0  0  0  0  0
   44.7781   11.8603  -17.3701 C   0  0  0  0  0  0  0  0  0  0  0  0
   35.9409   15.5973  -12.4538 N   0  0  0  0  0  0  0  0  0  0  0  0
   35.8844   15.2809  -11.1070 C   0  0  0  0  0  0  0  0  0  0  0  0
   36.3254   14.0531  -10.8362 O   0  0  0  0  0  0  0  0  0  0  0  0
   35.6350   16.5046  -12.8846 H   0  0  0  0  0  0  0  0  0  0  0  0
   35.4554   15.9711   -9.9283 C   0  0  0  0  0  0  0  0  0  0  0  0
   36.2689   16.9323   -9.3481 C   0  0  0  0  0  0  0  0  0  0  0  0
   35.8174   17.6370   -8.2377 C   0  0  0  0  0  0  0  0  0  0  0  0
   34.5849   17.3627   -7.7434 N   0  0  0  0  0  0  0  0  0  0  0  0
   33.7836   16.4358   -8.2898 C   0  0  0  0  0  0  0  0  0  0  0  0
   34.2193   15.7392   -9.3812 C   0  0  0  0  0  0  0  0  0  0  0  0
   32.4385   16.1955   -7.7239 C   0  0  0  0  0  0  0  0  0  0  0  0
   32.3836   14.9706   -6.8515 C   0  0  0  0  0  0  0  0  0  0  0  0
   32.0720   17.4432   -6.9186 C   0  0  0  0  0  0  0  0  0  0  0  0
   31.4672   16.0488   -8.7905 C   0  0  0  0  0  0  0  0  0  0  0  0
   30.6917   15.9131   -9.6544 N   0  0  0  0  0  0  0  0  0  0  0  0
 21 22  1  0  0  0
 22 23  1  0  0  0
 22 20  1  0  0  0
 20  8  1  0  0  0
  8  9  2  0  0  0
  9 10  1  0  0  0
 10 11  2  0  0  0
 11 12  1  0  0  0
 12 13  2  0  0  0
 13 14  1  0  0  0
 14 15  1  0  0  0
 15 16  1  0  0  0
 16 17  1  0  0  0
 17 18  1  0  0  0
 18 19  1  0  0  0
 11  1  1  0  0  0
  1  2  2  0  0  0
  2  3  1  0  0  0
  3 24  1  0  0  0
 24 25  1  0  0  0
 25 26  2  0  0  0
 25 28  1  0  0  0
 28 29  2  0  0  0
 29 30  1  0  0  0
 30 31  2  0  0  0
 31 32  1  0  0  0
 32 33  2  0  0  0
 32 34  1  0  0  0
 34 35  1  0  0  0
 34 36  1  0  0  0
 34 37  1  0  0  0
 37 38  3  0  0  0
  3  4  2  0  0  0
  4  5  1  0  0  0
  5  6  2  0  0  0
  6  7  1  0  0  0
 13  8  1  0  0  0
 19 14  1  0  0  0
  6  1  1  0  0  0
 33 28  1  0  0  0
 24 27  1  0  0  0
M  END
> <minimizedAffinity>
-8.59996

> <CNNscore>
0.1255283952

> <CNNaffinity>
6.3777503967

> <CNN_VS>
0.8005887866

> <CNNaffinity_variance>
0.2693087757

$$$$
[H]c1nn([H])c([H])c1C(=O)OC1([H])C([H])([H])C2([H])N(C([H])([H])[H])C([H])(C([H])([H])C2([H])[H])C1([H])[H]


 18 20  0  0  0  0  0  0  0  0999 V2000
   33.8706   14.0619  -14.3077 C   0  0  0  0  0  0  0  0  0  0  0  0
   35.2505   13.6787  -14.4058 N   0  0  0  0  0  0  0  0  0  0  0  0
   36.1153   14.3408  -13.4785 C   0  0  0  0  0  0  0  0  0  0  0  0
   35.8723   13.5839  -12.1851 C   0  0  0  0  0  0  0  0  0  0  0  0
   35.8459   12.1588  -12.6825 C   0  0  0  0  0  0  0  0  0  0  0  0
   35.4912   12.2887  -14.1477 C   0  0  0  0  0  0  0  0  0  0  0  0
   36.7480   11.9359  -14.9310 C   0  0  0  0  0  0  0  0  0  0  0  0
   37.6902   13.0892  -14.9842 C   0  0  0  0  0  0  0  0  0  0  0  0
   37.5401   14.0793  -13.8855 C   0  0  0  0  0  0  0  0  0  0  0  0
   39.0193   12.5511  -14.8927 O   0  0  0  0  0  0  0  0  0  0  0  0
   40.0042   12.8411  -15.7928 C   0  0  0  0  0  0  0  0  0  0  0  0
   40.9268   13.6033  -15.4708 O   0  0  0  0  0  0  0  0  0  0  0  0
   39.9280   12.2264  -17.1288 C   0  0  0  0  0  0  0  0  0  0  0  0
   40.4905   12.7363  -18.2629 C   0  0  0  0  0  0  0  0  0  0  0  0
   40.1851   11.8734  -19.2484 N   0  0  0  0  0  0  0  0  0  0  0  0
   39.4720   10.8708  -18.7839 N   0  0  0  0  0  0  0  0  0  0  0  0
   39.2977   11.0599  -17.4850 C   0  0  0  0  0  0  0  0  0  0  0  0
   39.0821   10.0408  -19.2999 H   0  0  0  0  0  0  0  0  0  0  0  0
  1  2  1  0  0  0
  2  3  1  0  0  0
  3  4  1  0  0  0
  4  5  1  0  0  0
  5  6  1  0  0  0
  6  7  1  0  0  0
  7  8  1  0  0  0
  8  9  1  0  0  0
  8 10  1  0  0  0
 10 11  1  0  0  0
 11 12  2  0  0  0
 11 13  1  0  0  0
 13 14  1  0  0  0
 14 15  2  0  0  0
 15 16  1  0  0  0
 16 17  1  0  0  0
  6  2  1  0  0  0
 17 13  2  0  0  0
  9  3  1  0  0  0
 16 18  1  0  0  0
M  END
> <minimizedAffinity>
-6.10435

> <CNNscore>
0.9274218082

> <CNNaffinity>
6.0875120163

> <CNN_VS>
5.6456913948

> <CNNaffinity_variance>
0.1724189967

$$$$
[H]c1nn([H])c([H])c1C(=O)OC1([H])C([H])([H])C2([H])N(C([H])([H])[H])C([H])(C([H])([H])C2([H])[H])C1([H])[H]


 18 20  0  0  0  0  0  0  0  0999 V2000
   35.9054   15.4758  -11.8457 C   0  0  0  0  0  0  0  0  0  0  0  0
   36.4930   14.4115  -12.6089 N   0  0  0  0  0  0  0  0  0  0  0  0
   35.8061   13.1609  -12.5057 C   0  0  0  0  0  0  0  0  0  0  0  0
   34.6249   13.3421  -13.4419 C   0  0  0  0  0  0  0  0  0  0  0  0
   35.2858   14.0238  -14.6156 C   0  0  0  0  0  0  0  0  0  0  0  0
   36.5265   14.6545  -14.0218 C   0  0  0  0  0  0  0  0  0  0  0  0
   37.7122   13.8582  -14.5487 C   0  0  0  0  0  0  0  0  0  0  0  0
   37.8986   12.5969  -13.7775 C   0  0  0  0  0  0  0  0  0  0  0  0
   36.6801   12.0872  -13.0952 C   0  0  0  0  0  0  0  0  0  0  0  0
   38.3143   11.5891  -14.7135 O   0  0  0  0  0  0  0  0  0  0  0  0
   38.0796   11.6764  -16.0557 C   0  0  0  0  0  0  0  0  0  0  0  0
   36.9161   11.6358  -16.4806 O   0  0  0  0  0  0  0  0  0  0  0  0
   39.2364   11.8175  -16.9560 C   0  0  0  0  0  0  0  0  0  0  0  0
   39.3889   11.1713  -18.1484 C   0  0  0  0  0  0  0  0  0  0  0  0
   40.5715   11.5793  -18.6424 N   0  0  0  0  0  0  0  0  0  0  0  0
   41.1471   12.4332  -17.8245 N   0  0  0  0  0  0  0  0  0  0  0  0
   40.3509   12.5994  -16.7797 C   0  0  0  0  0  0  0  0  0  0  0  0
   42.0704   12.9277  -17.9263 H   0  0  0  0  0  0  0  0  0  0  0  0
  1  2  1  0  0  0
  2  3  1  0  0  0
  3  4  1  0  0  0
  4  5  1  0  0  0
  5  6  1  0  0  0
  6  7  1  0  0  0
  7  8  1  0  0  0
  8  9  1  0  0  0
  8 10  1  0  0  0
 10 11  1  0  0  0
 11 12  2  0  0  0
 11 13  1  0  0  0
 13 14  1  0  0  0
 14 15  2  0  0  0
 15 16  1  0  0  0
 16 17  1  0  0  0
  6  2  1  0  0  0
 17 13  2  0  0  0
  9  3  1  0  0  0
 16 18  1  0  0  0
M  END
> <minimizedAffinity>
-6.77606

> <CNNscore>
0.8967509270

> <CNNaffinity>
5.7262535095

> <CNN_VS>
5.1350231171

> <CNNaffinity_variance>
0.0744745955

$$$$
[H]c1nn([H])c([H])c1C(=O)OC1([H])C([H])([H])C2([H])N(C([H])([H])[H])C([H])(C([H])([H])C2([H])[H])C1([H])[H]


 18 20  0  0  0  0  0  0  0  0999 V2000
   33.8370   14.2419  -12.6726 C   0  0  0  0  0  0  0  0  0  0  0  0
   34.9037   13.5892  -13.3772 N   0  0  0  0  0  0  0  0  0  0  0  0
   35.6624   14.4506  -14.2309 C   0  0  0  0  0  0  0  0  0  0  0  0
   36.5820   15.1694  -13.2602 C   0  0  0  0  0  0  0  0  0  0  0  0
   37.0031   14.0317  -12.3616 C   0  0  0  0  0  0  0  0  0  0  0  0
   35.8995   13.0091  -12.5238 C   0  0  0  0  0  0  0  0  0  0  0  0
   36.4942   11.8509  -13.3127 C   0  0  0  0  0  0  0  0  0  0  0  0
   36.5248   12.1532  -14.7715 C   0  0  0  0  0  0  0  0  0  0  0  0
   36.5301   13.5989  -15.1175 C   0  0  0  0  0  0  0  0  0  0  0  0
   37.7381   11.5871  -15.2930 O   0  0  0  0  0  0  0  0  0  0  0  0
   37.9386   11.3503  -16.6226 C   0  0  0  0  0  0  0  0  0  0  0  0
   37.0210   10.8777  -17.3085 O   0  0  0  0  0  0  0  0  0  0  0  0
   39.2570   11.6714  -17.1948 C   0  0  0  0  0  0  0  0  0  0  0  0
   39.7602   11.1519  -18.3521 C   0  0  0  0  0  0  0  0  0  0  0  0
   40.9772   11.7031  -18.5075 N   0  0  0  0  0  0  0  0  0  0  0  0
   41.2449   12.5254  -17.5167 N   0  0  0  0  0  0  0  0  0  0  0  0
   40.2070   12.5268  -16.6944 C   0  0  0  0  0  0  0  0  0  0  0  0
   42.1079   13.1044  -17.3518 H   0  0  0  0  0  0  0  0  0  0  0  0
  1  2  1  0  0  0
  2  3  1  0  0  0
  3  4  1  0  0  0
  4  5  1  0  0  0
  5  6  1  0  0  0
  6  7  1  0  0  0
  7  8  1  0  0  0
  8  9  1  0  0  0
  8 10  1  0  0  0
 10 11  1  0  0  0
 11 12  2  0  0  0
 11 13  1  0  0  0
 13 14  1  0  0  0
 14 15  2  0  0  0
 15 16  1  0  0  0
 16 17  1  0  0  0
  6  2  1  0  0  0
 17 13  2  0  0  0
  9  3  1  0  0  0
 16 18  1  0  0  0
M  END
> <minimizedAffinity>
-6.36880

> <CNNscore>
0.8517274857

> <CNNaffinity>
5.7516179085

> <CNN_VS>
4.8988108635

> <CNNaffinity_variance>
0.1095030531

$$$$
[H]c1nn([H])c([H])c1C(=O)OC1([H])C([H])([H])C2([H])N(C([H])([H])[H])C([H])(C([H])([H])C2([H])[H])C1([H])[H]


 18 20  0  0  0  0  0  0  0  0999 V2000
   38.5428   15.2046  -10.0345 C   0  0  0  0  0  0  0  0  0  0  0  0
   37.3501   15.6194   -9.3520 N   0  0  0  0  0  0  0  0  0  0  0  0
   36.9054   16.9372   -9.6866 C   0  0  0  0  0  0  0  0  0  0  0  0
   36.2147   16.7351  -11.0233 C   0  0  0  0  0  0  0  0  0  0  0  0
   35.4500   15.4592  -10.7658 C   0  0  0  0  0  0  0  0  0  0  0  0
   36.2038   14.8034   -9.6294 C   0  0  0  0  0  0  0  0  0  0  0  0
   35.3137   14.9118   -8.3992 C   0  0  0  0  0  0  0  0  0  0  0  0
   35.4143   16.2633   -7.7796 C   0  0  0  0  0  0  0  0  0  0  0  0
   35.8485   17.3488   -8.6979 C   0  0  0  0  0  0  0  0  0  0  0  0
   34.1024   16.6073   -7.3053 O   0  0  0  0  0  0  0  0  0  0  0  0
   33.7979   16.7311   -5.9801 C   0  0  0  0  0  0  0  0  0  0  0  0
   34.6290   16.3962   -5.1240 O   0  0  0  0  0  0  0  0  0  0  0  0
   32.4744   17.2658   -5.6180 C   0  0  0  0  0  0  0  0  0  0  0  0
   31.2890   16.6095   -5.7813 C   0  0  0  0  0  0  0  0  0  0  0  0
   30.3374   17.4447   -5.3274 N   0  0  0  0  0  0  0  0  0  0  0  0
   30.8706   18.5677   -4.8984 N   0  0  0  0  0  0  0  0  0  0  0  0
   32.1819   18.4874   -5.0641 C   0  0  0  0  0  0  0  0  0  0  0  0
   30.3951   19.4119   -4.4882 H   0  0  0  0  0  0  0  0  0  0  0  0
  1  2  1  0  0  0
  2  3  1  0  0  0
  3  4  1  0  0  0
  4  5  1  0  0  0
  5  6  1  0  0  0
  6  7  1  0  0  0
  7  8  1  0  0  0
  8  9  1  0  0  0
  8 10  1  0  0  0
 10 11  1  0  0  0
 11 12  2  0  0  0
 11 13  1  0  0  0
 13 14  1  0  0  0
 14 15  2  0  0  0
 15 16  1  0  0  0
 16 17  1  0  0  0
  6  2  1  0  0  0
 17 13  2  0  0  0
  9  3  1  0  0  0
 16 18  1  0  0  0
M  END
> <minimizedAffinity>
-3.78709

> <CNNscore>
0.5275354385

> <CNNaffinity>
4.1649465561

> <CNN_VS>
2.1971569061

> <CNNaffinity_variance>
0.3864697814

$$$$
[H]c1nn([H])c([H])c1C(=O)OC1([H])C([H])([H])C2([H])N(C([H])([H])[H])C([H])(C([H])([H])C2([H])[H])C1([H])[H]


 18 20  0  0  0  0  0  0  0  0999 V2000
   36.7350   16.0739  -11.3600 C   0  0  0  0  0  0  0  0  0  0  0  0
   36.9278   14.8890  -12.1469 N   0  0  0  0  0  0  0  0  0  0  0  0
   36.0213   13.8245  -11.8445 C   0  0  0  0  0  0  0  0  0  0  0  0
   34.7522   14.2420  -12.5653 C   0  0  0  0  0  0  0  0  0  0  0  0
   35.3117   14.7337  -13.8785 C   0  0  0  0  0  0  0  0  0  0  0  0
   36.7472   15.0868  -13.5557 C   0  0  0  0  0  0  0  0  0  0  0  0
   37.6151   14.0358  -14.2338 C   0  0  0  0  0  0  0  0  0  0  0  0
   37.6687   12.7822  -13.4301 C   0  0  0  0  0  0  0  0  0  0  0  0
   36.5193   12.5708  -12.5112 C   0  0  0  0  0  0  0  0  0  0  0  0
   37.6766   11.6866  -14.3596 O   0  0  0  0  0  0  0  0  0  0  0  0
   37.3125   11.8177  -15.6690 C   0  0  0  0  0  0  0  0  0  0  0  0
   38.1413   12.2130  -16.5013 O   0  0  0  0  0  0  0  0  0  0  0  0
   35.9292   11.4787  -16.0433 C   0  0  0  0  0  0  0  0  0  0  0  0
   35.5658   10.7577  -17.1436 C   0  0  0  0  0  0  0  0  0  0  0  0
   34.2236   10.6797  -17.1089 N   0  0  0  0  0  0  0  0  0  0  0  0
   33.7485   11.3084  -16.0560 N   0  0  0  0  0  0  0  0  0  0  0  0
   34.7723   11.8096  -15.3823 C   0  0  0  0  0  0  0  0  0  0  0  0
   32.7484   11.4264  -15.7510 H   0  0  0  0  0  0  0  0  0  0  0  0
  1  2  1  0  0  0
  2  3  1  0  0  0
  3  4  1  0  0  0
  4  5  1  0  0  0
  5  6  1  0  0  0
  6  7  1  0  0  0
  7  8  1  0  0  0
  8  9  1  0  0  0
  8 10  1  0  0  0
 10 11  1  0  0  0
 11 12  2  0  0  0
 11 13  1  0  0  0
 13 14  1  0  0  0
 14 15  2  0  0  0
 15 16  1  0  0  0
 16 17  1  0  0  0
  6  2  1  0  0  0
 17 13  2  0  0  0
  9  3  1  0  0  0
 16 18  1  0  0  0
M  END
> <minimizedAffinity>
-5.55904

> <CNNscore>
0.5082681775

> <CNNaffinity>
5.3298482895

> <CNN_VS>
2.7089922428

> <CNNaffinity_variance>
0.2317015678

$$$$
[H]c1nn([H])c([H])c1C(=O)OC1([H])C([H])([H])C2([H])N(C([H])([H])[H])C([H])(C([H])([H])C2([H])[H])C1([H])[H]


 18 20  0  0  0  0  0  0  0  0999 V2000
   35.1629   14.3990   -4.0990 C   0  0  0  0  0  0  0  0  0  0  0  0
   36.3650   14.2194   -4.8626 N   0  0  0  0  0  0  0  0  0  0  0  0
   36.1672   13.6119   -6.1426 C   0  0  0  0  0  0  0  0  0  0  0  0
   35.6567   14.7627   -6.9911 C   0  0  0  0  0  0  0  0  0  0  0  0
   36.5704   15.8793   -6.5469 C   0  0  0  0  0  0  0  0  0  0  0  0
   37.0453   15.4416   -5.1785 C   0  0  0  0  0  0  0  0  0  0  0  0
   38.5137   15.0690   -5.3279 C   0  0  0  0  0  0  0  0  0  0  0  0
   38.6663   13.7001   -5.8964 C   0  0  0  0  0  0  0  0  0  0  0  0
   37.5096   13.2144   -6.6939 C   0  0  0  0  0  0  0  0  0  0  0  0
   39.8034   13.7334   -6.7740 O   0  0  0  0  0  0  0  0  0  0  0  0
   40.7706   12.7697   -6.7773 C   0  0  0  0  0  0  0  0  0  0  0  0
   40.5373   11.6657   -7.2899 O   0  0  0  0  0  0  0  0  0  0  0  0
   42.0705   13.0872   -6.1623 C   0  0  0  0  0  0  0  0  0  0  0  0
   42.3277   14.1794   -5.3855 C   0  0  0  0  0  0  0  0  0  0  0  0
   43.6224   14.0870   -5.0332 N   0  0  0  0  0  0  0  0  0  0  0  0
   44.1681   13.0066   -5.5475 N   0  0  0  0  0  0  0  0  0  0  0  0
   43.2394   12.3722   -6.2463 C   0  0  0  0  0  0  0  0  0  0  0  0
   45.1563   12.6566   -5.4564 H   0  0  0  0  0  0  0  0  0  0  0  0
  1  2  1  0  0  0
  2  3  1  0  0  0
  3  4  1  0  0  0
  4  5  1  0  0  0
  5  6  1  0  0  0
  6  7  1  0  0  0
  7  8  1  0  0  0
  8  9  1  0  0  0
  8 10  1  0  0  0
 10 11  1  0  0  0
 11 12  2  0  0  0
 11 13  1  0  0  0
 13 14  1  0  0  0
 14 15  2  0  0  0
 15 16  1  0  0  0
 16 17  1  0  0  0
  6  2  1  0  0  0
 17 13  2  0  0  0
  9  3  1  0  0  0
 16 18  1  0  0  0
M  END
> <minimizedAffinity>
-3.63346

> <CNNscore>
0.4810977876

> <CNNaffinity>
3.4992804527

> <CNN_VS>
1.6834961176

> <CNNaffinity_variance>
0.2273332179

$$$$
[H]c1nn([H])c([H])c1C(=O)OC1([H])C([H])([H])C2([H])N(C([H])([H])[H])C([H])(C([H])([H])C2([H])[H])C1([H])[H]


 18 20  0  0  0  0  0  0  0  0999 V2000
   36.1519   16.4999  -11.3177 C   0  0  0  0  0  0  0  0  0  0  0  0
   35.7581   16.3970   -9.9412 N   0  0  0  0  0  0  0  0  0  0  0  0
   35.8463   15.0765   -9.3982 C   0  0  0  0  0  0  0  0  0  0  0  0
   37.3291   14.9243   -9.1105 C   0  0  0  0  0  0  0  0  0  0  0  0
   37.6494   16.2728   -8.5122 C   0  0  0  0  0  0  0  0  0  0  0  0
   36.5592   17.1776   -9.0438 C   0  0  0  0  0  0  0  0  0  0  0  0
   35.6549   17.5061   -7.8640 C   0  0  0  0  0  0  0  0  0  0  0  0
   34.6989   16.3957   -7.5934 C   0  0  0  0  0  0  0  0  0  0  0  0
   35.1323   15.0573   -8.0738 C   0  0  0  0  0  0  0  0  0  0  0  0
   34.5497   16.3073   -6.1671 O   0  0  0  0  0  0  0  0  0  0  0  0
   33.3976   16.6439   -5.5161 C   0  0  0  0  0  0  0  0  0  0  0  0
   33.4212   17.5143   -4.6342 O   0  0  0  0  0  0  0  0  0  0  0  0
   32.1563   15.9480   -5.8951 C   0  0  0  0  0  0  0  0  0  0  0  0
   30.9814   16.5586   -6.2258 C   0  0  0  0  0  0  0  0  0  0  0  0
   30.1140   15.5684   -6.5016 N   0  0  0  0  0  0  0  0  0  0  0  0
   30.6885   14.3940   -6.3590 N   0  0  0  0  0  0  0  0  0  0  0  0
   31.9433   14.5949   -5.9870 C   0  0  0  0  0  0  0  0  0  0  0  0
   30.2787   13.4352   -6.5001 H   0  0  0  0  0  0  0  0  0  0  0  0
  1  2  1  0  0  0
  2  3  1  0  0  0
  3  4  1  0  0  0
  4  5  1  0  0  0
  5  6  1  0  0  0
  6  7  1  0  0  0
  7  8  1  0  0  0
  8  9  1  0  0  0
  8 10  1  0  0  0
 10 11  1  0  0  0
 11 12  2  0  0  0
 11 13  1  0  0  0
 13 14  1  0  0  0
 14 15  2  0  0  0
 15 16  1  0  0  0
 16 17  1  0  0  0
  6  2  1  0  0  0
 17 13  2  0  0  0
  9  3  1  0  0  0
 16 18  1  0  0  0
M  END
> <minimizedAffinity>
-3.92145

> <CNNscore>
0.4475407600

> <CNNaffinity>
4.2827358246

> <CNN_VS>
1.9166988134

> <CNNaffinity_variance>
0.9399070740

$$$$
[H]c1nn([H])c([H])c1C(=O)OC1([H])C([H])([H])C2([H])N(C([H])([H])[H])C([H])(C([H])([H])C2([H])[H])C1([H])[H]


 18 20  0  0  0  0  0  0  0  0999 V2000
   40.7914   14.5025  -18.0302 C   0  0  0  0  0  0  0  0  0  0  0  0
   40.0519   13.7394  -17.0652 N   0  0  0  0  0  0  0  0  0  0  0  0
   40.1937   12.3222  -17.1978 C   0  0  0  0  0  0  0  0  0  0  0  0
   41.5427   12.0527  -16.5558 C   0  0  0  0  0  0  0  0  0  0  0  0
   41.4662   12.9381  -15.3354 C   0  0  0  0  0  0  0  0  0  0  0  0
   40.4378   13.9844  -15.7059 C   0  0  0  0  0  0  0  0  0  0  0  0
   39.2011   13.6926  -14.8676 C   0  0  0  0  0  0  0  0  0  0  0  0
   38.3959   12.5889  -15.4627 C   0  0  0  0  0  0  0  0  0  0  0  0
   39.1521   11.6567  -16.3397 C   0  0  0  0  0  0  0  0  0  0  0  0
   37.8721   11.8148  -14.3714 O   0  0  0  0  0  0  0  0  0  0  0  0
   36.8511   12.2464  -13.5742 C   0  0  0  0  0  0  0  0  0  0  0  0
   37.0783   12.5508  -12.3945 O   0  0  0  0  0  0  0  0  0  0  0  0
   35.5022   12.3338  -14.1584 C   0  0  0  0  0  0  0  0  0  0  0  0
   35.0735   11.6443  -15.2554 C   0  0  0  0  0  0  0  0  0  0  0  0
   33.7942   12.0120  -15.4478 N   0  0  0  0  0  0  0  0  0  0  0  0
   33.4185   12.8821  -14.5360 N   0  0  0  0  0  0  0  0  0  0  0  0
   34.4463   13.0996  -13.7300 C   0  0  0  0  0  0  0  0  0  0  0  0
   32.4860   13.3547  -14.4164 H   0  0  0  0  0  0  0  0  0  0  0  0
  1  2  1  0  0  0
  2  3  1  0  0  0
  3  4  1  0  0  0
  4  5  1  0  0  0
  5  6  1  0  0  0
  6  7  1  0  0  0
  7  8  1  0  0  0
  8  9  1  0  0  0
  8 10  1  0  0  0
 10 11  1  0  0  0
 11 12  2  0  0  0
 11 13  1  0  0  0
 13 14  1  0  0  0
 14 15  2  0  0  0
 15 16  1  0  0  0
 16 17  1  0  0  0
  6  2  1  0  0  0
 17 13  2  0  0  0
  9  3  1  0  0  0
 16 18  1  0  0  0
M  END
> <minimizedAffinity>
-4.82766

> <CNNscore>
0.3661734760

> <CNNaffinity>
5.4530310631

> <CNN_VS>
1.9967553616

> <CNNaffinity_variance>
0.2515497506

$$$$
[H]c1nn([H])c([H])c1C(=O)OC1([H])C([H])([H])C2([H])N(C([H])([H])[H])C([H])(C([H])([H])C2([H])[H])C1([H])[H]


 18 20  0  0  0  0  0  0  0  0999 V2000
   35.7141   12.8075  -12.4866 C   0  0  0  0  0  0  0  0  0  0  0  0
   36.2360   13.6902  -11.4821 N   0  0  0  0  0  0  0  0  0  0  0  0
   37.4444   14.3596  -11.8533 C   0  0  0  0  0  0  0  0  0  0  0  0
   36.9519   15.4791  -12.7527 C   0  0  0  0  0  0  0  0  0  0  0  0
   35.7415   15.9562  -11.9870 C   0  0  0  0  0  0  0  0  0  0  0  0
   35.3549   14.7670  -11.1349 C   0  0  0  0  0  0  0  0  0  0  0  0
   35.6985   15.1334   -9.6978 C   0  0  0  0  0  0  0  0  0  0  0  0
   37.1516   14.9444   -9.4272 C   0  0  0  0  0  0  0  0  0  0  0  0
   38.0303   15.0014  -10.6249 C   0  0  0  0  0  0  0  0  0  0  0  0
   37.5581   16.0081   -8.5509 O   0  0  0  0  0  0  0  0  0  0  0  0
   37.9658   15.7993   -7.2647 C   0  0  0  0  0  0  0  0  0  0  0  0
   37.5804   14.7928   -6.6529 O   0  0  0  0  0  0  0  0  0  0  0  0
   38.8602   16.7940   -6.6488 C   0  0  0  0  0  0  0  0  0  0  0  0
   38.4596   17.9714   -6.0870 C   0  0  0  0  0  0  0  0  0  0  0  0
   39.5798   18.5728   -5.6484 N   0  0  0  0  0  0  0  0  0  0  0  0
   40.6363   17.8342   -5.9086 N   0  0  0  0  0  0  0  0  0  0  0  0
   40.2260   16.7353   -6.5229 C   0  0  0  0  0  0  0  0  0  0  0  0
   41.6481   18.0270   -5.6933 H   0  0  0  0  0  0  0  0  0  0  0  0
  1  2  1  0  0  0
  2  3  1  0  0  0
  3  4  1  0  0  0
  4  5  1  0  0  0
  5  6  1  0  0  0
  6  7  1  0  0  0
  7  8  1  0  0  0
  8  9  1  0  0  0
  8 10  1  0  0  0
 10 11  1  0  0  0
 11 12  2  0  0  0
 11 13  1  0  0  0
 13 14  1  0  0  0
 14 15  2  0  0  0
 15 16  1  0  0  0
 16 17  1  0  0  0
  6  2  1  0  0  0
 17 13  2  0  0  0
  9  3  1  0  0  0
 16 18  1  0  0  0
M  END
> <minimizedAffinity>
-3.90162

> <CNNscore>
0.3396362066

> <CNNaffinity>
3.8701965809

> <CNN_VS>
1.3144588470

> <CNNaffinity_variance>
0.3189415634

$$$$
[H]c1nc(N([H])c2c([H])c(N3C([H])([H])C([H])([H])OC([H])([H])C3([H])[H])c([H])c(N3C([H])([H])C([H])([H])OC([H])([H])C3([H])[H])c2[H])nc(N(C([H])([H])[H])S(=O)(=O)C([H])([H])[H])c1[H]


 32 35  0  0  0  0  0  0  0  0999 V2000
   39.9932   12.9601  -15.7595 C   0  0  0  0  0  0  0  0  0  0  0  0
   40.0791   13.7805  -14.6774 C   0  0  0  0  0  0  0  0  0  0  0  0
   38.9300   14.0606  -13.9245 C   0  0  0  0  0  0  0  0  0  0  0  0
   37.7276   13.5035  -14.2890 C   0  0  0  0  0  0  0  0  0  0  0  0
   37.5936   12.6688  -15.3768 C   0  0  0  0  0  0  0  0  0  0  0  0
   38.7410   12.4183  -16.0881 C   0  0  0  0  0  0  0  0  0  0  0  0
   36.3478   12.0899  -15.7603 N   0  0  0  0  0  0  0  0  0  0  0  0
   36.1301   11.4890  -17.0530 C   0  0  0  0  0  0  0  0  0  0  0  0
   35.1338   10.3587  -16.8450 C   0  0  0  0  0  0  0  0  0  0  0  0
   33.9205   10.7719  -16.3758 O   0  0  0  0  0  0  0  0  0  0  0  0
   33.9271   11.7964  -15.4761 C   0  0  0  0  0  0  0  0  0  0  0  0
   35.2440   12.0951  -14.8332 C   0  0  0  0  0  0  0  0  0  0  0  0
   39.0730   14.9194  -12.8070 N   0  0  0  0  0  0  0  0  0  0  0  0
   40.3348   15.6378  -12.6783 C   0  0  0  0  0  0  0  0  0  0  0  0
   40.4838   16.3688  -11.3874 C   0  0  0  0  0  0  0  0  0  0  0  0
   39.5946   16.0133  -10.4028 O   0  0  0  0  0  0  0  0  0  0  0  0
   38.2767   16.1292  -10.8353 C   0  0  0  0  0  0  0  0  0  0  0  0
   38.0033   15.0650  -11.8458 C   0  0  0  0  0  0  0  0  0  0  0  0
   41.0943   12.5881  -16.5643 N   0  0  0  0  0  0  0  0  0  0  0  0
   40.8195   12.2591  -17.5544 H   0  0  0  0  0  0  0  0  0  0  0  0
   44.0066   13.4102  -14.5969 C   0  0  0  0  0  0  0  0  0  0  0  0
   44.9981   12.7766  -15.3117 C   0  0  0  0  0  0  0  0  0  0  0  0
   44.6852   12.0616  -16.4727 C   0  0  0  0  0  0  0  0  0  0  0  0
   43.4104   12.0368  -16.8261 N   0  0  0  0  0  0  0  0  0  0  0  0
   42.4282   12.6266  -16.1757 C   0  0  0  0  0  0  0  0  0  0  0  0
   42.7395   13.3235  -15.0423 N   0  0  0  0  0  0  0  0  0  0  0  0
   43.7163   13.7083  -12.1541 C   0  0  0  0  0  0  0  0  0  0  0  0
   44.3079   14.1359  -13.4156 N   0  0  0  0  0  0  0  0  0  0  0  0
   45.3394   15.4930  -13.4198 S   0  0  0  0  0  0  0  0  0  0  0  0
   47.0025   14.9789  -13.0082 C   0  0  0  0  0  0  0  0  0  0  0  0
   45.3391   16.1481  -14.7822 O   0  0  0  0  0  0  0  0  0  0  0  0
   44.8878   16.5207  -12.4436 O   0  0  0  0  0  0  0  0  0  0  0  0
 27 28  1  0  0  0
 28 21  1  0  0  0
 21 22  2  0  0  0
 22 23  1  0  0  0
 23 24  2  0  0  0
 24 25  1  0  0  0
 25 19  1  0  0  0
 19  1  1  0  0  0
  1  2  2  0  0  0
  2  3  1  0  0  0
  3  4  2  0  0  0
  4  5  1  0  0  0
  5  6  2  0  0  0
  5  7  1  0  0  0
  7  8  1  0  0  0
  8  9  1  0  0  0
  9 10  1  0  0  0
 10 11  1  0  0  0
 11 12  1  0  0  0
  3 13  1  0  0  0
 13 14  1  0  0  0
 14 15  1  0  0  0
 15 16  1  0  0  0
 16 17  1  0  0  0
 17 18  1  0  0  0
 25 26  2  0  0  0
 28 29  1  0  0  0
 29 30  1  0  0  0
 29 31  2  0  0  0
 29 32  2  0  0  0
 26 21  1  0  0  0
  6  1  1  0  0  0
 12  7  1  0  0  0
 18 13  1  0  0  0
 19 20  1  0  0  0
M  END
> <minimizedAffinity>
-8.37066

> <CNNscore>
0.2745568454

> <CNNaffinity>
6.5927071571

> <CNN_VS>
1.8100728989

> <CNNaffinity_variance>
0.1044088155

$$$$
[H]c1nc(N([H])c2c([H])c(N3C([H])([H])C([H])([H])OC([H])([H])C3([H])[H])c([H])c(N3C([H])([H])C([H])([H])OC([H])([H])C3([H])[H])c2[H])nc(N(C([H])([H])[H])S(=O)(=O)C([H])([H])[H])c1[H]


 32 35  0  0  0  0  0  0  0  0999 V2000
   39.6639   13.3560  -14.9283 C   0  0  0  0  0  0  0  0  0  0  0  0
   39.6426   14.2216  -13.8786 C   0  0  0  0  0  0  0  0  0  0  0  0
   38.4380   14.4673  -13.2046 C   0  0  0  0  0  0  0  0  0  0  0  0
   37.2902   13.8310  -13.6128 C   0  0  0  0  0  0  0  0  0  0  0  0
   37.2647   12.9482  -14.6702 C   0  0  0  0  0  0  0  0  0  0  0  0
   38.4635   12.7336  -15.3041 C   0  0  0  0  0  0  0  0  0  0  0  0
   36.0758   12.2870  -15.0989 N   0  0  0  0  0  0  0  0  0  0  0  0
   34.9268   12.1135  -14.2450 C   0  0  0  0  0  0  0  0  0  0  0  0
   33.7037   12.1520  -15.1485 C   0  0  0  0  0  0  0  0  0  0  0  0
   33.6752   11.1558  -16.0812 O   0  0  0  0  0  0  0  0  0  0  0  0
   34.8697   10.7961  -16.6316 C   0  0  0  0  0  0  0  0  0  0  0  0
   35.9967   11.7601  -16.4382 C   0  0  0  0  0  0  0  0  0  0  0  0
   38.4695   15.3757  -12.1181 N   0  0  0  0  0  0  0  0  0  0  0  0
   37.1928   15.7270  -11.5086 C   0  0  0  0  0  0  0  0  0  0  0  0
   37.2857   16.8250  -10.5042 C   0  0  0  0  0  0  0  0  0  0  0  0
   38.4529   17.5486  -10.5283 O   0  0  0  0  0  0  0  0  0  0  0  0
   39.5689   16.7266  -10.4001 C   0  0  0  0  0  0  0  0  0  0  0  0
   39.7227   15.9208  -11.6472 C   0  0  0  0  0  0  0  0  0  0  0  0
   40.8285   13.0139  -15.6530 N   0  0  0  0  0  0  0  0  0  0  0  0
   40.6289   12.5303  -16.5965 H   0  0  0  0  0  0  0  0  0  0  0  0
   43.5930   13.6798  -13.4298 C   0  0  0  0  0  0  0  0  0  0  0  0
   44.6417   13.7395  -14.3198 C   0  0  0  0  0  0  0  0  0  0  0  0
   44.4185   13.5532  -15.6883 C   0  0  0  0  0  0  0  0  0  0  0  0
   43.1690   13.3231  -16.0574 N   0  0  0  0  0  0  0  0  0  0  0  0
   42.1345   13.2571  -15.2442 C   0  0  0  0  0  0  0  0  0  0  0  0
   42.3583   13.4397  -13.9087 N   0  0  0  0  0  0  0  0  0  0  0  0
   44.0119   12.6921  -11.1961 C   0  0  0  0  0  0  0  0  0  0  0  0
   43.8042   13.8630  -12.0389 N   0  0  0  0  0  0  0  0  0  0  0  0
   43.8239   15.4072  -11.3173 S   0  0  0  0  0  0  0  0  0  0  0  0
   43.1709   16.6112  -12.4679 C   0  0  0  0  0  0  0  0  0  0  0  0
   42.9858   15.4092  -10.0592 O   0  0  0  0  0  0  0  0  0  0  0  0
   45.2020   15.8038  -10.9218 O   0  0  0  0  0  0  0  0  0  0  0  0
 27 28  1  0  0  0
 28 21  1  0  0  0
 21 22  2  0  0  0
 22 23  1  0  0  0
 23 24  2  0  0  0
 24 25  1  0  0  0
 25 19  1  0  0  0
 19  1  1  0  0  0
  1  2  2  0  0  0
  2  3  1  0  0  0
  3  4  2  0  0  0
  4  5  1  0  0  0
  5  6  2  0  0  0
  5  7  1  0  0  0
  7  8  1  0  0  0
  8  9  1  0  0  0
  9 10  1  0  0  0
 10 11  1  0  0  0
 11 12  1  0  0  0
  3 13  1  0  0  0
 13 14  1  0  0  0
 14 15  1  0  0  0
 15 16  1  0  0  0
 16 17  1  0  0  0
 17 18  1  0  0  0
 25 26  2  0  0  0
 28 29  1  0  0  0
 29 30  1  0  0  0
 29 31  2  0  0  0
 29 32  2  0  0  0
 26 21  1  0  0  0
  6  1  1  0  0  0
 12  7  1  0  0  0
 18 13  1  0  0  0
 19 20  1  0  0  0
M  END
> <minimizedAffinity>
-8.03419

> <CNNscore>
0.0842948183

> <CNNaffinity>
6.1151094437

> <CNN_VS>
0.5154720545

> <CNNaffinity_variance>
0.1138482317

$$$$
[H]c1nc(N([H])c2c([H])c(N3C([H])([H])C([H])([H])OC([H])([H])C3([H])[H])c([H])c(N3C([H])([H])C([H])([H])OC([H])([H])C3([H])[H])c2[H])nc(N(C([H])([H])[H])S(=O)(=O)C([H])([H])[H])c1[H]


 32 35  0  0  0  0  0  0  0  0999 V2000
   40.0115   14.0468  -14.0455 C   0  0  0  0  0  0  0  0  0  0  0  0
   39.0510   13.3995  -14.7597 C   0  0  0  0  0  0  0  0  0  0  0  0
   39.4189   12.5802  -15.8362 C   0  0  0  0  0  0  0  0  0  0  0  0
   40.7475   12.4404  -16.1594 C   0  0  0  0  0  0  0  0  0  0  0  0
   41.7530   13.0771  -15.4653 C   0  0  0  0  0  0  0  0  0  0  0  0
   41.3529   13.8698  -14.4180 C   0  0  0  0  0  0  0  0  0  0  0  0
   43.1328   12.9369  -15.7980 N   0  0  0  0  0  0  0  0  0  0  0  0
   44.1625   13.7716  -15.2300 C   0  0  0  0  0  0  0  0  0  0  0  0
   45.4145   12.9131  -15.1337 C   0  0  0  0  0  0  0  0  0  0  0  0
   45.8698   12.4644  -16.3397 O   0  0  0  0  0  0  0  0  0  0  0  0
   44.9267   12.1240  -17.2637 C   0  0  0  0  0  0  0  0  0  0  0  0
   43.5394   11.9254  -16.7411 C   0  0  0  0  0  0  0  0  0  0  0  0
   38.3814   11.9278  -16.5467 N   0  0  0  0  0  0  0  0  0  0  0  0
   37.0115   12.2510  -16.1677 C   0  0  0  0  0  0  0  0  0  0  0  0
   35.9853   11.3906  -16.8230 C   0  0  0  0  0  0  0  0  0  0  0  0
   36.4650   10.2472  -17.4138 O   0  0  0  0  0  0  0  0  0  0  0  0
   37.4703   10.5283  -18.3346 C   0  0  0  0  0  0  0  0  0  0  0  0
   38.6864   10.9854  -17.5993 C   0  0  0  0  0  0  0  0  0  0  0  0
   39.7507   14.8679  -12.9247 N   0  0  0  0  0  0  0  0  0  0  0  0
   40.6364   15.2972  -12.4829 H   0  0  0  0  0  0  0  0  0  0  0  0
   37.2436   15.7858  -10.4957 C   0  0  0  0  0  0  0  0  0  0  0  0
   36.0961   15.6973  -11.2513 C   0  0  0  0  0  0  0  0  0  0  0  0
   36.1639   15.3238  -12.5978 C   0  0  0  0  0  0  0  0  0  0  0  0
   37.3691   15.0691  -13.0806 N   0  0  0  0  0  0  0  0  0  0  0  0
   38.4936   15.1399  -12.3978 C   0  0  0  0  0  0  0  0  0  0  0  0
   38.4216   15.5053  -11.0831 N   0  0  0  0  0  0  0  0  0  0  0  0
   37.0571   17.5792   -8.7958 C   0  0  0  0  0  0  0  0  0  0  0  0
   37.1912   16.1669   -9.1301 N   0  0  0  0  0  0  0  0  0  0  0  0
   37.2797   15.0289   -7.8640 S   0  0  0  0  0  0  0  0  0  0  0  0
   37.0303   15.8580   -6.2987 C   0  0  0  0  0  0  0  0  0  0  0  0
   36.2226   13.9630   -8.0416 O   0  0  0  0  0  0  0  0  0  0  0  0
   38.5963   14.3365   -7.8480 O   0  0  0  0  0  0  0  0  0  0  0  0
 27 28  1  0  0  0
 28 21  1  0  0  0
 21 22  2  0  0  0
 22 23  1  0  0  0
 23 24  2  0  0  0
 24 25  1  0  0  0
 25 19  1  0  0  0
 19  1  1  0  0  0
  1  2  2  0  0  0
  2  3  1  0  0  0
  3  4  2  0  0  0
  4  5  1  0  0  0
  5  6  2  0  0  0
  5  7  1  0  0  0
  7  8  1  0  0  0
  8  9  1  0  0  0
  9 10  1  0  0  0
 10 11  1  0  0  0
 11 12  1  0  0  0
  3 13  1  0  0  0
 13 14  1  0  0  0
 14 15  1  0  0  0
 15 16  1  0  0  0
 16 17  1  0  0  0
 17 18  1  0  0  0
 25 26  2  0  0  0
 28 29  1  0  0  0
 29 30  1  0  0  0
 29 31  2  0  0  0
 29 32  2  0  0  0
 26 21  1  0  0  0
  6  1  1  0  0  0
 12  7  1  0  0  0
 18 13  1  0  0  0
 19 20  1  0  0  0
M  END
> <minimizedAffinity>
-8.73876

> <CNNscore>
0.0740477443

> <CNNaffinity>
5.7616658211

> <CNN_VS>
0.4266383648

> <CNNaffinity_variance>
0.3202132583

$$$$
[H]c1nc(N([H])c2c([H])c(N3C([H])([H])C([H])([H])OC([H])([H])C3([H])[H])c([H])c(N3C([H])([H])C([H])([H])OC([H])([H])C3([H])[H])c2[H])nc(N(C([H])([H])[H])S(=O)(=O)C([H])([H])[H])c1[H]


 32 35  0  0  0  0  0  0  0  0999 V2000
   38.8357   14.8732  -12.8499 C   0  0  0  0  0  0  0  0  0  0  0  0
   38.2669   15.4887  -11.7780 C   0  0  0  0  0  0  0  0  0  0  0  0
   36.8957   15.3301  -11.5322 C   0  0  0  0  0  0  0  0  0  0  0  0
   36.1400   14.5544  -12.3784 C   0  0  0  0  0  0  0  0  0  0  0  0
   36.6730   13.9139  -13.4756 C   0  0  0  0  0  0  0  0  0  0  0  0
   38.0185   14.0930  -13.6823 C   0  0  0  0  0  0  0  0  0  0  0  0
   35.8927   13.1095  -14.3578 N   0  0  0  0  0  0  0  0  0  0  0  0
   36.2550   12.8828  -15.7351 C   0  0  0  0  0  0  0  0  0  0  0  0
   35.7676   11.4860  -16.0888 C   0  0  0  0  0  0  0  0  0  0  0  0
   34.4149   11.3322  -15.9904 O   0  0  0  0  0  0  0  0  0  0  0  0
   33.7953   11.9896  -14.9691 C   0  0  0  0  0  0  0  0  0  0  0  0
   34.6853   12.4874  -13.8751 C   0  0  0  0  0  0  0  0  0  0  0  0
   36.3525   15.9907  -10.4029 N   0  0  0  0  0  0  0  0  0  0  0  0
   37.0682   17.1609   -9.9097 C   0  0  0  0  0  0  0  0  0  0  0  0
   36.5472   17.6853   -8.6148 C   0  0  0  0  0  0  0  0  0  0  0  0
   35.7138   16.8367   -7.9279 O   0  0  0  0  0  0  0  0  0  0  0  0
   34.6392   16.4270   -8.7119 C   0  0  0  0  0  0  0  0  0  0  0  0
   35.1398   15.5114   -9.7794 C   0  0  0  0  0  0  0  0  0  0  0  0
   40.2115   14.9410  -13.1677 N   0  0  0  0  0  0  0  0  0  0  0  0
   40.7733   15.6088  -12.5333 H   0  0  0  0  0  0  0  0  0  0  0  0
   42.8618   13.3015  -14.9887 C   0  0  0  0  0  0  0  0  0  0  0  0
   42.1854   12.8616  -16.1043 C   0  0  0  0  0  0  0  0  0  0  0  0
   40.8179   13.1187  -16.2485 C   0  0  0  0  0  0  0  0  0  0  0  0
   40.2368   13.7930  -15.2697 N   0  0  0  0  0  0  0  0  0  0  0  0
   40.8411   14.2339  -14.1852 C   0  0  0  0  0  0  0  0  0  0  0  0
   42.1769   13.9798  -14.0494 N   0  0  0  0  0  0  0  0  0  0  0  0
   45.0045   12.5163  -15.9544 C   0  0  0  0  0  0  0  0  0  0  0  0
   44.2477   13.0452  -14.8266 N   0  0  0  0  0  0  0  0  0  0  0  0
   45.0606   13.3345  -13.3565 S   0  0  0  0  0  0  0  0  0  0  0  0
   46.6365   12.4883  -13.3701 C   0  0  0  0  0  0  0  0  0  0  0  0
   45.2883   14.8167  -13.1657 O   0  0  0  0  0  0  0  0  0  0  0  0
   44.2614   12.8645  -12.1931 O   0  0  0  0  0  0  0  0  0  0  0  0
 27 28  1  0  0  0
 28 21  1  0  0  0
 21 22  2  0  0  0
 22 23  1  0  0  0
 23 24  2  0  0  0
 24 25  1  0  0  0
 25 19  1  0  0  0
 19  1  1  0  0  0
  1  2  2  0  0  0
  2  3  1  0  0  0
  3  4  2  0  0  0
  4  5  1  0  0  0
  5  6  2  0  0  0
  5  7  1  0  0  0
  7  8  1  0  0  0
  8  9  1  0  0  0
  9 10  1  0  0  0
 10 11  1  0  0  0
 11 12  1  0  0  0
  3 13  1  0  0  0
 13 14  1  0  0  0
 14 15  1  0  0  0
 15 16  1  0  0  0
 16 17  1  0  0  0
 17 18  1  0  0  0
 25 26  2  0  0  0
 28 29  1  0  0  0
 29 30  1  0  0  0
 29 31  2  0  0  0
 29 32  2  0  0  0
 26 21  1  0  0  0
  6  1  1  0  0  0
 12  7  1  0  0  0
 18 13  1  0  0  0
 19 20  1  0  0  0
M  END
> <minimizedAffinity>
-7.79108

> <CNNscore>
0.0592443384

> <CNNaffinity>
5.9834685326

> <CNN_VS>
0.3544866443

> <CNNaffinity_variance>
0.0679262504

$$$$
[H]c1nc(N([H])c2c([H])c(N3C([H])([H])C([H])([H])OC([H])([H])C3([H])[H])c([H])c(N3C([H])([H])C([H])([H])OC([H])([H])C3([H])[H])c2[H])nc(N(C([H])([H])[H])S(=O)(=O)C([H])([H])[H])c1[H]


 32 35  0  0  0  0  0  0  0  0999 V2000
   38.8997   14.0173  -14.1918 C   0  0  0  0  0  0  0  0  0  0  0  0
   38.0371   13.2538  -14.9160 C   0  0  0  0  0  0  0  0  0  0  0  0
   36.6925   13.1664  -14.5284 C   0  0  0  0  0  0  0  0  0  0  0  0
   36.2603   13.8530  -13.4190 C   0  0  0  0  0  0  0  0  0  0  0  0
   37.0979   14.6366  -12.6558 C   0  0  0  0  0  0  0  0  0  0  0  0
   38.4064   14.6972  -13.0677 C   0  0  0  0  0  0  0  0  0  0  0  0
   36.6547   15.3494  -11.5027 N   0  0  0  0  0  0  0  0  0  0  0  0
   37.5572   15.8284  -10.4851 C   0  0  0  0  0  0  0  0  0  0  0  0
   36.9523   17.1114   -9.9360 C   0  0  0  0  0  0  0  0  0  0  0  0
   35.7305   16.9395   -9.3521 O   0  0  0  0  0  0  0  0  0  0  0  0
   34.8949   16.0323   -9.9331 C   0  0  0  0  0  0  0  0  0  0  0  0
   35.2488   15.6130  -11.3245 C   0  0  0  0  0  0  0  0  0  0  0  0
   35.8353   12.3594  -15.3163 N   0  0  0  0  0  0  0  0  0  0  0  0
   34.4300   12.3110  -14.9323 C   0  0  0  0  0  0  0  0  0  0  0  0
   33.6334   11.3002  -15.6851 C   0  0  0  0  0  0  0  0  0  0  0  0
   34.3672   10.3657  -16.3740 O   0  0  0  0  0  0  0  0  0  0  0  0
   35.2721   10.9647  -17.2457 C   0  0  0  0  0  0  0  0  0  0  0  0
   36.3492   11.6227  -16.4487 C   0  0  0  0  0  0  0  0  0  0  0  0
   40.2639   14.1990  -14.5150 N   0  0  0  0  0  0  0  0  0  0  0  0
   40.5099   13.9365  -15.5321 H   0  0  0  0  0  0  0  0  0  0  0  0
   43.3051   14.2472  -12.5716 C   0  0  0  0  0  0  0  0  0  0  0  0
   43.2211   15.4860  -11.9767 C   0  0  0  0  0  0  0  0  0  0  0  0
   42.1265   16.3192  -12.2313 C   0  0  0  0  0  0  0  0  0  0  0  0
   41.2059   15.8499  -13.0574 N   0  0  0  0  0  0  0  0  0  0  0  0
   41.2425   14.6735  -13.6496 C   0  0  0  0  0  0  0  0  0  0  0  0
   42.3139   13.8637  -13.3973 N   0  0  0  0  0  0  0  0  0  0  0  0
   44.3431   12.4528  -11.2139 C   0  0  0  0  0  0  0  0  0  0  0  0
   44.4106   13.3926  -12.3260 N   0  0  0  0  0  0  0  0  0  0  0  0
   45.8177   13.4262  -13.2875 S   0  0  0  0  0  0  0  0  0  0  0  0
   45.6241   14.6420  -14.5853 C   0  0  0  0  0  0  0  0  0  0  0  0
   47.0214   13.7798  -12.4440 O   0  0  0  0  0  0  0  0  0  0  0  0
   46.0900   12.0969  -13.8973 O   0  0  0  0  0  0  0  0  0  0  0  0
 27 28  1  0  0  0
 28 21  1  0  0  0
 21 22  2  0  0  0
 22 23  1  0  0  0
 23 24  2  0  0  0
 24 25  1  0  0  0
 25 19  1  0  0  0
 19  1  1  0  0  0
  1  2  2  0  0  0
  2  3  1  0  0  0
  3  4  2  0  0  0
  4  5  1  0  0  0
  5  6  2  0  0  0
  5  7  1  0  0  0
  7  8  1  0  0  0
  8  9  1  0  0  0
  9 10  1  0  0  0
 10 11  1  0  0  0
 11 12  1  0  0  0
  3 13  1  0  0  0
 13 14  1  0  0  0
 14 15  1  0  0  0
 15 16  1  0  0  0
 16 17  1  0  0  0
 17 18  1  0  0  0
 25 26  2  0  0  0
 28 29  1  0  0  0
 29 30  1  0  0  0
 29 31  2  0  0  0
 29 32  2  0  0  0
 26 21  1  0  0  0
  6  1  1  0  0  0
 12  7  1  0  0  0
 18 13  1  0  0  0
 19 20  1  0  0  0
M  END
> <minimizedAffinity>
-7.74005

> <CNNscore>
0.0490664914

> <CNNaffinity>
5.9141759872

> <CNN_VS>
0.2901878655

> <CNNaffinity_variance>
0.0848085135

$$$$
[H]c1nc(N([H])c2c([H])c(N3C([H])([H])C([H])([H])OC([H])([H])C3([H])[H])c([H])c(N3C([H])([H])C([H])([H])OC([H])([H])C3([H])[H])c2[H])nc(N(C([H])([H])[H])S(=O)(=O)C([H])([H])[H])c1[H]


 32 35  0  0  0  0  0  0  0  0999 V2000
   38.8908   15.4001  -12.1589 C   0  0  0  0  0  0  0  0  0  0  0  0
   38.5279   15.4847  -10.8503 C   0  0  0  0  0  0  0  0  0  0  0  0
   37.3067   14.9386  -10.4309 C   0  0  0  0  0  0  0  0  0  0  0  0
   36.4878   14.3239  -11.3479 C   0  0  0  0  0  0  0  0  0  0  0  0
   36.8139   14.2162  -12.6821 C   0  0  0  0  0  0  0  0  0  0  0  0
   38.0176   14.7625  -13.0535 C   0  0  0  0  0  0  0  0  0  0  0  0
   35.9668   13.5811  -13.6378 N   0  0  0  0  0  0  0  0  0  0  0  0
   36.3136   13.4618  -15.0324 C   0  0  0  0  0  0  0  0  0  0  0  0
   35.7003   12.1593  -15.5232 C   0  0  0  0  0  0  0  0  0  0  0  0
   34.3386   12.1230  -15.4352 O   0  0  0  0  0  0  0  0  0  0  0  0
   33.7775   12.7289  -14.3503 C   0  0  0  0  0  0  0  0  0  0  0  0
   34.7042   13.0287  -13.2152 C   0  0  0  0  0  0  0  0  0  0  0  0
   36.9760   15.0519   -9.0581 N   0  0  0  0  0  0  0  0  0  0  0  0
   35.5601   15.1283   -8.7199 C   0  0  0  0  0  0  0  0  0  0  0  0
   35.2985   15.4361   -7.2847 C   0  0  0  0  0  0  0  0  0  0  0  0
   36.3763   15.9103   -6.5777 O   0  0  0  0  0  0  0  0  0  0  0  0
   37.4649   15.0469   -6.6611 C   0  0  0  0  0  0  0  0  0  0  0  0
   38.0109   15.0886   -8.0498 C   0  0  0  0  0  0  0  0  0  0  0  0
   40.1121   15.8874  -12.6782 N   0  0  0  0  0  0  0  0  0  0  0  0
   40.1330   16.9577  -12.8122 H   0  0  0  0  0  0  0  0  0  0  0  0
   42.2253   13.6526  -14.5671 C   0  0  0  0  0  0  0  0  0  0  0  0
   43.3225   13.5617  -13.7405 C   0  0  0  0  0  0  0  0  0  0  0  0
   43.3547   14.2615  -12.5295 C   0  0  0  0  0  0  0  0  0  0  0  0
   42.2912   14.9939  -12.2417 N   0  0  0  0  0  0  0  0  0  0  0  0
   41.2198   15.1118  -12.9994 C   0  0  0  0  0  0  0  0  0  0  0  0
   41.1938   14.4262  -14.1811 N   0  0  0  0  0  0  0  0  0  0  0  0
   43.4078   12.3710  -16.3277 C   0  0  0  0  0  0  0  0  0  0  0  0
   42.1796   12.9519  -15.7999 N   0  0  0  0  0  0  0  0  0  0  0  0
   40.7362   12.7650  -16.6872 S   0  0  0  0  0  0  0  0  0  0  0  0
   40.9872   11.5624  -17.9874 C   0  0  0  0  0  0  0  0  0  0  0  0
   39.6198   12.2987  -15.7809 O   0  0  0  0  0  0  0  0  0  0  0  0
   40.2983   14.0533  -17.2884 O   0  0  0  0  0  0  0  0  0  0  0  0
 27 28  1  0  0  0
 28 21  1  0  0  0
 21 22  2  0  0  0
 22 23  1  0  0  0
 23 24  2  0  0  0
 24 25  1  0  0  0
 25 19  1  0  0  0
 19  1  1  0  0  0
  1  2  2  0  0  0
  2  3  1  0  0  0
  3  4  2  0  0  0
  4  5  1  0  0  0
  5  6  2  0  0  0
  5  7  1  0  0  0
  7  8  1  0  0  0
  8  9  1  0  0  0
  9 10  1  0  0  0
 10 11  1  0  0  0
 11 12  1  0  0  0
  3 13  1  0  0  0
 13 14  1  0  0  0
 14 15  1  0  0  0
 15 16  1  0  0  0
 16 17  1  0  0  0
 17 18  1  0  0  0
 25 26  2  0  0  0
 28 29  1  0  0  0
 29 30  1  0  0  0
 29 31  2  0  0  0
 29 32  2  0  0  0
 26 21  1  0  0  0
  6  1  1  0  0  0
 12  7  1  0  0  0
 18 13  1  0  0  0
 19 20  1  0  0  0
M  END
> <minimizedAffinity>
-7.49446

> <CNNscore>
0.0478663296

> <CNNaffinity>
5.7383227348

> <CNN_VS>
0.2746724486

> <CNNaffinity_variance>
0.3325139582

$$$$
[H]c1nc(N([H])c2c([H])c(N3C([H])([H])C([H])([H])OC([H])([H])C3([H])[H])c([H])c(N3C([H])([H])C([H])([H])OC([H])([H])C3([H])[H])c2[H])nc(N(C([H])([H])[H])S(=O)(=O)C([H])([H])[H])c1[H]


 32 35  0  0  0  0  0  0  0  0999 V2000
   40.5599   15.0080  -13.4193 C   0  0  0  0  0  0  0  0  0  0  0  0
   40.0193   14.2686  -14.4255 C   0  0  0  0  0  0  0  0  0  0  0  0
   40.8278   13.3771  -15.1446 C   0  0  0  0  0  0  0  0  0  0  0  0
   42.1596   13.2605  -14.8255 C   0  0  0  0  0  0  0  0  0  0  0  0
   42.7494   13.9894  -13.8161 C   0  0  0  0  0  0  0  0  0  0  0  0
   41.9251   14.8507  -13.1350 C   0  0  0  0  0  0  0  0  0  0  0  0
   44.1312   13.8734  -13.4825 N   0  0  0  0  0  0  0  0  0  0  0  0
   44.6411   14.1403  -12.1603 C   0  0  0  0  0  0  0  0  0  0  0  0
   45.8279   13.2111  -11.9560 C   0  0  0  0  0  0  0  0  0  0  0  0
   46.8488   13.4179  -12.8382 O   0  0  0  0  0  0  0  0  0  0  0  0
   46.4996   13.7432  -14.1154 C   0  0  0  0  0  0  0  0  0  0  0  0
   45.0777   13.4754  -14.4942 C   0  0  0  0  0  0  0  0  0  0  0  0
   40.2167   12.6300  -16.1816 N   0  0  0  0  0  0  0  0  0  0  0  0
   38.7956   12.3374  -16.0409 C   0  0  0  0  0  0  0  0  0  0  0  0
   38.2697   11.3927  -17.0675 C   0  0  0  0  0  0  0  0  0  0  0  0
   39.2225   10.7003  -17.7742 O   0  0  0  0  0  0  0  0  0  0  0  0
   40.1368   11.5579  -18.3791 C   0  0  0  0  0  0  0  0  0  0  0  0
   40.9845   12.1853  -17.3226 C   0  0  0  0  0  0  0  0  0  0  0  0
   39.8273   15.9090  -12.6130 N   0  0  0  0  0  0  0  0  0  0  0  0
   40.1265   16.9392  -12.7275 H   0  0  0  0  0  0  0  0  0  0  0  0
   36.5374   14.9215  -11.5040 C   0  0  0  0  0  0  0  0  0  0  0  0
   36.7206   14.8698  -10.1405 C   0  0  0  0  0  0  0  0  0  0  0  0
   37.9681   15.1709   -9.5834 C   0  0  0  0  0  0  0  0  0  0  0  0
   38.9301   15.4989  -10.4303 N   0  0  0  0  0  0  0  0  0  0  0  0
   38.8028   15.5620  -11.7402 C   0  0  0  0  0  0  0  0  0  0  0  0
   37.5822   15.2669  -12.2790 N   0  0  0  0  0  0  0  0  0  0  0  0
   34.1094   15.3847  -11.6794 C   0  0  0  0  0  0  0  0  0  0  0  0
   35.2793   14.6153  -12.0840 N   0  0  0  0  0  0  0  0  0  0  0  0
   35.0875   13.3769  -13.2395 S   0  0  0  0  0  0  0  0  0  0  0  0
   33.4117   13.3992  -13.8647 C   0  0  0  0  0  0  0  0  0  0  0  0
   36.0535   13.5743  -14.3855 O   0  0  0  0  0  0  0  0  0  0  0  0
   35.3750   12.0397  -12.6544 O   0  0  0  0  0  0  0  0  0  0  0  0
 27 28  1  0  0  0
 28 21  1  0  0  0
 21 22  2  0  0  0
 22 23  1  0  0  0
 23 24  2  0  0  0
 24 25  1  0  0  0
 25 19  1  0  0  0
 19  1  1  0  0  0
  1  2  2  0  0  0
  2  3  1  0  0  0
  3  4  2  0  0  0
  4  5  1  0  0  0
  5  6  2  0  0  0
  5  7  1  0  0  0
  7  8  1  0  0  0
  8  9  1  0  0  0
  9 10  1  0  0  0
 10 11  1  0  0  0
 11 12  1  0  0  0
  3 13  1  0  0  0
 13 14  1  0  0  0
 14 15  1  0  0  0
 15 16  1  0  0  0
 16 17  1  0  0  0
 17 18  1  0  0  0
 25 26  2  0  0  0
 28 29  1  0  0  0
 29 30  1  0  0  0
 29 31  2  0  0  0
 29 32  2  0  0  0
 26 21  1  0  0  0
  6  1  1  0  0  0
 12  7  1  0  0  0
 18 13  1  0  0  0
 19 20  1  0  0  0
M  END
> <minimizedAffinity>
-8.02383

> <CNNscore>
0.0451752320

> <CNNaffinity>
5.5984182358

> <CNN_VS>
0.2529098392

> <CNNaffinity_variance>
0.4701996744

$$$$
[H]c1nc(N([H])c2c([H])c(N3C([H])([H])C([H])([H])OC([H])([H])C3([H])[H])c([H])c(N3C([H])([H])C([H])([H])OC([H])([H])C3([H])[H])c2[H])nc(N(C([H])([H])[H])S(=O)(=O)C([H])([H])[H])c1[H]


 32 35  0  0  0  0  0  0  0  0999 V2000
   40.0329   14.4761  -14.2151 C   0  0  0  0  0  0  0  0  0  0  0  0
   39.0738   13.7412  -14.8409 C   0  0  0  0  0  0  0  0  0  0  0  0
   39.4470   12.7422  -15.7511 C   0  0  0  0  0  0  0  0  0  0  0  0
   40.7793   12.5167  -16.0023 C   0  0  0  0  0  0  0  0  0  0  0  0
   41.7836   13.2366  -15.3930 C   0  0  0  0  0  0  0  0  0  0  0  0
   41.3783   14.2051  -14.5082 C   0  0  0  0  0  0  0  0  0  0  0  0
   43.1674   13.0077  -15.6519 N   0  0  0  0  0  0  0  0  0  0  0  0
   44.2189   13.7088  -14.9574 C   0  0  0  0  0  0  0  0  0  0  0  0
   45.3908   12.7446  -14.8550 C   0  0  0  0  0  0  0  0  0  0  0  0
   45.8892   12.3517  -16.0635 O   0  0  0  0  0  0  0  0  0  0  0  0
   44.9861   12.1614  -17.0671 C   0  0  0  0  0  0  0  0  0  0  0  0
   43.5559   12.0399  -16.6470 C   0  0  0  0  0  0  0  0  0  0  0  0
   38.4107   12.0049  -16.3749 N   0  0  0  0  0  0  0  0  0  0  0  0
   38.8024   11.0444  -17.3990 C   0  0  0  0  0  0  0  0  0  0  0  0
   37.6530   10.4491  -18.1389 C   0  0  0  0  0  0  0  0  0  0  0  0
   36.4537   11.1013  -17.9881 O   0  0  0  0  0  0  0  0  0  0  0  0
   36.1057   11.2317  -16.6467 C   0  0  0  0  0  0  0  0  0  0  0  0
   37.0300   12.2089  -15.9994 C   0  0  0  0  0  0  0  0  0  0  0  0
   39.7656   15.4817  -13.2580 N   0  0  0  0  0  0  0  0  0  0  0  0
   40.3203   16.3933  -13.4166 H   0  0  0  0  0  0  0  0  0  0  0  0
   36.6286   15.0888  -11.5164 C   0  0  0  0  0  0  0  0  0  0  0  0
   37.0447   15.1361  -10.2049 C   0  0  0  0  0  0  0  0  0  0  0  0
   38.3997   15.3024   -9.8991 C   0  0  0  0  0  0  0  0  0  0  0  0
   39.2285   15.4080  -10.9250 N   0  0  0  0  0  0  0  0  0  0  0  0
   38.8781   15.3688  -12.1944 C   0  0  0  0  0  0  0  0  0  0  0  0
   37.5533   15.2061  -12.4873 N   0  0  0  0  0  0  0  0  0  0  0  0
   34.2580   15.6890  -11.1160 C   0  0  0  0  0  0  0  0  0  0  0  0
   35.2585   14.9169  -11.8421 N   0  0  0  0  0  0  0  0  0  0  0  0
   34.7403   13.8372  -13.0551 S   0  0  0  0  0  0  0  0  0  0  0  0
   35.5132   12.2436  -12.8045 C   0  0  0  0  0  0  0  0  0  0  0  0
   33.2376   13.6790  -13.0097 O   0  0  0  0  0  0  0  0  0  0  0  0
   35.0832   14.3408  -14.4122 O   0  0  0  0  0  0  0  0  0  0  0  0
 27 28  1  0  0  0
 28 21  1  0  0  0
 21 22  2  0  0  0
 22 23  1  0  0  0
 23 24  2  0  0  0
 24 25  1  0  0  0
 25 19  1  0  0  0
 19  1  1  0  0  0
  1  2  2  0  0  0
  2  3  1  0  0  0
  3  4  2  0  0  0
  4  5  1  0  0  0
  5  6  2  0  0  0
  5  7  1  0  0  0
  7  8  1  0  0  0
  8  9  1  0  0  0
  9 10  1  0  0  0
 10 11  1  0  0  0
 11 12  1  0  0  0
  3 13  1  0  0  0
 13 14  1  0  0  0
 14 15  1  0  0  0
 15 16  1  0  0  0
 16 17  1  0  0  0
 17 18  1  0  0  0
 25 26  2  0  0  0
 28 29  1  0  0  0
 29 30  1  0  0  0
 29 31  2  0  0  0
 29 32  2  0  0  0
 26 21  1  0  0  0
  6  1  1  0  0  0
 12  7  1  0  0  0
 18 13  1  0  0  0
 19 20  1  0  0  0
M  END
> <minimizedAffinity>
-8.68803

> <CNNscore>
0.0386268161

> <CNNaffinity>
5.7188291550

> <CNN_VS>
0.2209001631

> <CNNaffinity_variance>
0.3866964281

$$$$
[H]c1nc(N([H])c2c([H])c(N3C([H])([H])C([H])([H])OC([H])([H])C3([H])[H])c([H])c(N3C([H])([H])C([H])([H])OC([H])([H])C3([H])[H])c2[H])nc(N(C([H])([H])[H])S(=O)(=O)C([H])([H])[H])c1[H]


 32 35  0  0  0  0  0  0  0  0999 V2000
   39.6563   15.0201  -12.7077 C   0  0  0  0  0  0  0  0  0  0  0  0
   38.3385   15.0950  -12.3773 C   0  0  0  0  0  0  0  0  0  0  0  0
   37.3823   14.4636  -13.1852 C   0  0  0  0  0  0  0  0  0  0  0  0
   37.7872   13.7757  -14.3041 C   0  0  0  0  0  0  0  0  0  0  0  0
   39.1095   13.6745  -14.6774 C   0  0  0  0  0  0  0  0  0  0  0  0
   40.0154   14.3055  -13.8609 C   0  0  0  0  0  0  0  0  0  0  0  0
   39.5345   12.9636  -15.8386 N   0  0  0  0  0  0  0  0  0  0  0  0
   40.5730   13.4471  -16.7145 C   0  0  0  0  0  0  0  0  0  0  0  0
   41.2814   12.2201  -17.2679 C   0  0  0  0  0  0  0  0  0  0  0  0
   40.4738   11.4013  -18.0029 O   0  0  0  0  0  0  0  0  0  0  0  0
   39.1874   11.2614  -17.5731 C   0  0  0  0  0  0  0  0  0  0  0  0
   38.9129   11.7065  -16.1719 C   0  0  0  0  0  0  0  0  0  0  0  0
   36.0241   14.5706  -12.7972 N   0  0  0  0  0  0  0  0  0  0  0  0
   35.0821   13.6447  -13.4137 C   0  0  0  0  0  0  0  0  0  0  0  0
   33.6542   13.9406  -13.1028 C   0  0  0  0  0  0  0  0  0  0  0  0
   33.4122   15.1839  -12.5716 O   0  0  0  0  0  0  0  0  0  0  0  0
   34.1773   15.4125  -11.4314 C   0  0  0  0  0  0  0  0  0  0  0  0
   35.6081   15.5610  -11.8301 C   0  0  0  0  0  0  0  0  0  0  0  0
   40.7007   15.5915  -11.9452 N   0  0  0  0  0  0  0  0  0  0  0  0
   40.4252   15.8145  -10.9263 H   0  0  0  0  0  0  0  0  0  0  0  0
   44.1226   14.9875  -12.9216 C   0  0  0  0  0  0  0  0  0  0  0  0
   44.5209   16.2523  -13.2920 C   0  0  0  0  0  0  0  0  0  0  0  0
   43.6272   17.3257  -13.2132 C   0  0  0  0  0  0  0  0  0  0  0  0
   42.4106   17.0509  -12.7719 N   0  0  0  0  0  0  0  0  0  0  0  0
   41.9842   15.8590  -12.4065 C   0  0  0  0  0  0  0  0  0  0  0  0
   42.8612   14.8142  -12.4854 N   0  0  0  0  0  0  0  0  0  0  0  0
   45.3773   13.1839  -11.7756 C   0  0  0  0  0  0  0  0  0  0  0  0
   45.0164   13.8883  -12.9994 N   0  0  0  0  0  0  0  0  0  0  0  0
   45.6842   13.3617  -14.4767 S   0  0  0  0  0  0  0  0  0  0  0  0
   44.4517   13.4882  -15.7669 C   0  0  0  0  0  0  0  0  0  0  0  0
   46.8823   14.2080  -14.8422 O   0  0  0  0  0  0  0  0  0  0  0  0
   46.1577   11.9543  -14.3868 O   0  0  0  0  0  0  0  0  0  0  0  0
 27 28  1  0  0  0
 28 21  1  0  0  0
 21 22  2  0  0  0
 22 23  1  0  0  0
 23 24  2  0  0  0
 24 25  1  0  0  0
 25 19  1  0  0  0
 19  1  1  0  0  0
  1  2  2  0  0  0
  2  3  1  0  0  0
  3  4  2  0  0  0
  4  5  1  0  0  0
  5  6  2  0  0  0
  5  7  1  0  0  0
  7  8  1  0  0  0
  8  9  1  0  0  0
  9 10  1  0  0  0
 10 11  1  0  0  0
 11 12  1  0  0  0
  3 13  1  0  0  0
 13 14  1  0  0  0
 14 15  1  0  0  0
 15 16  1  0  0  0
 16 17  1  0  0  0
 17 18  1  0  0  0
 25 26  2  0  0  0
 28 29  1  0  0  0
 29 30  1  0  0  0
 29 31  2  0  0  0
 29 32  2  0  0  0
 26 21  1  0  0  0
  6  1  1  0  0  0
 12  7  1  0  0  0
 18 13  1  0  0  0
 19 20  1  0  0  0
M  END
> <minimizedAffinity>
-7.48925

> <CNNscore>
0.0353447348

> <CNNaffinity>
5.8518648148

> <CNN_VS>
0.2068326026

> <CNNaffinity_variance>
0.1783089936

$$$$
[H]c1c([H])c([H])c2c(c1[H])c1c(n2C([H])([H])[H])C([H])([H])C([H])([H])N(C([H])([H])[H])C1([H])[H]


 15 17  0  0  0  0  0  0  0  0999 V2000
   40.7009   11.6952  -18.3006 C   0  0  0  0  0  0  0  0  0  0  0  0
   39.7710   11.5543  -17.2444 N   0  0  0  0  0  0  0  0  0  0  0  0
   40.1207   12.0621  -15.9898 C   0  0  0  0  0  0  0  0  0  0  0  0
   39.2140   13.2274  -15.5803 C   0  0  0  0  0  0  0  0  0  0  0  0
   37.8025   12.7081  -15.5575 C   0  0  0  0  0  0  0  0  0  0  0  0
   37.4646   11.7941  -16.5363 C   0  0  0  0  0  0  0  0  0  0  0  0
   38.4345   11.3393  -17.5647 C   0  0  0  0  0  0  0  0  0  0  0  0
   36.1404   11.4862  -16.2907 C   0  0  0  0  0  0  0  0  0  0  0  0
   35.2390   10.6455  -16.9101 C   0  0  0  0  0  0  0  0  0  0  0  0
   33.9344   10.5053  -16.4643 C   0  0  0  0  0  0  0  0  0  0  0  0
   33.4764   11.2085  -15.3700 C   0  0  0  0  0  0  0  0  0  0  0  0
   34.3784   12.0482  -14.7520 C   0  0  0  0  0  0  0  0  0  0  0  0
   35.6876   12.1927  -15.1946 C   0  0  0  0  0  0  0  0  0  0  0  0
   36.7447   12.9238  -14.7856 N   0  0  0  0  0  0  0  0  0  0  0  0
   36.6807   13.8161  -13.6427 C   0  0  0  0  0  0  0  0  0  0  0  0
  1  2  1  0  0  0
  2  3  1  0  0  0
  3  4  1  0  0  0
  4  5  1  0  0  0
  5  6  2  0  0  0
  6  7  1  0  0  0
  6  8  1  0  0  0
  8  9  2  0  0  0
  9 10  1  0  0  0
 10 11  2  0  0  0
 11 12  1  0  0  0
 12 13  2  0  0  0
 13 14  1  0  0  0
 14 15  1  0  0  0
  7  2  1  0  0  0
 13  8  1  0  0  0
 14  5  1  0  0  0
M  END
> <minimizedAffinity>
-6.90911

> <CNNscore>
0.5440279841

> <CNNaffinity>
5.3063149452

> <CNN_VS>
2.8867838383

> <CNNaffinity_variance>
0.0666201264

$$$$
[H]c1c([H])c([H])c2c(c1[H])c1c(n2C([H])([H])[H])C([H])([H])C([H])([H])N(C([H])([H])[H])C1([H])[H]


 15 17  0  0  0  0  0  0  0  0999 V2000
   35.8659   14.8236  -10.4280 C   0  0  0  0  0  0  0  0  0  0  0  0
   36.0315   14.6229  -11.8181 N   0  0  0  0  0  0  0  0  0  0  0  0
   37.2038   15.0966  -12.4146 C   0  0  0  0  0  0  0  0  0  0  0  0
   38.0698   13.9494  -12.9453 C   0  0  0  0  0  0  0  0  0  0  0  0
   37.2430   13.1933  -13.9489 C   0  0  0  0  0  0  0  0  0  0  0  0
   35.8983   13.0573  -13.6646 C   0  0  0  0  0  0  0  0  0  0  0  0
   35.2871   13.6227  -12.4349 C   0  0  0  0  0  0  0  0  0  0  0  0
   35.3834   12.3380  -14.7257 C   0  0  0  0  0  0  0  0  0  0  0  0
   34.1163   11.8844  -15.0288 C   0  0  0  0  0  0  0  0  0  0  0  0
   33.8462   11.1666  -16.1830 C   0  0  0  0  0  0  0  0  0  0  0  0
   34.8441   10.8717  -17.0880 C   0  0  0  0  0  0  0  0  0  0  0  0
   36.1098   11.3257  -16.7838 C   0  0  0  0  0  0  0  0  0  0  0  0
   36.3864   12.0459  -15.6282 C   0  0  0  0  0  0  0  0  0  0  0  0
   37.5023   12.5925  -15.1035 N   0  0  0  0  0  0  0  0  0  0  0  0
   38.7950   12.5060  -15.7577 C   0  0  0  0  0  0  0  0  0  0  0  0
  1  2  1  0  0  0
  2  3  1  0  0  0
  3  4  1  0  0  0
  4  5  1  0  0  0
  5  6  2  0  0  0
  6  7  1  0  0  0
  6  8  1  0  0  0
  8  9  2  0  0  0
  9 10  1  0  0  0
 10 11  2  0  0  0
 11 12  1  0  0  0
 12 13  2  0  0  0
 13 14  1  0  0  0
 14 15  1  0  0  0
  7  2  1  0  0  0
 13  8  1  0  0  0
 14  5  1  0  0  0
M  END
> <minimizedAffinity>
-6.50190

> <CNNscore>
0.5281128883

> <CNNaffinity>
4.8150973320

> <CNN_VS>
2.5429148674

> <CNNaffinity_variance>
0.1595709622

$$$$
[H]c1c([H])c([H])c2c(c1[H])c1c(n2C([H])([H])[H])C([H])([H])C([H])([H])N(C([H])([H])[H])C1([H])[H]


 15 17  0  0  0  0  0  0  0  0999 V2000
   34.7096   14.4091  -12.3610 C   0  0  0  0  0  0  0  0  0  0  0  0
   35.6267   14.3204  -13.4339 N   0  0  0  0  0  0  0  0  0  0  0  0
   36.7790   15.1100  -13.3793 C   0  0  0  0  0  0  0  0  0  0  0  0
   38.0444   14.2538  -13.2628 C   0  0  0  0  0  0  0  0  0  0  0  0
   38.0863   13.3531  -14.4667 C   0  0  0  0  0  0  0  0  0  0  0  0
   36.8756   12.8577  -14.9102 C   0  0  0  0  0  0  0  0  0  0  0  0
   35.5914   13.1887  -14.2420 C   0  0  0  0  0  0  0  0  0  0  0  0
   37.1926   12.0766  -16.0046 C   0  0  0  0  0  0  0  0  0  0  0  0
   36.4327   11.3214  -16.8737 C   0  0  0  0  0  0  0  0  0  0  0  0
   36.9976   10.6097  -17.9201 C   0  0  0  0  0  0  0  0  0  0  0  0
   38.3590   10.6264  -18.1395 C   0  0  0  0  0  0  0  0  0  0  0  0
   39.1170   11.3816  -17.2703 C   0  0  0  0  0  0  0  0  0  0  0  0
   38.5561   12.0971  -16.2195 C   0  0  0  0  0  0  0  0  0  0  0  0
   39.0534   12.8927  -15.2504 N   0  0  0  0  0  0  0  0  0  0  0  0
   40.4712   13.1762  -15.1251 C   0  0  0  0  0  0  0  0  0  0  0  0
  1  2  1  0  0  0
  2  3  1  0  0  0
  3  4  1  0  0  0
  4  5  1  0  0  0
  5  6  2  0  0  0
  6  7  1  0  0  0
  6  8  1  0  0  0
  8  9  2  0  0  0
  9 10  1  0  0  0
 10 11  2  0  0  0
 11 12  1  0  0  0
 12 13  2  0  0  0
 13 14  1  0  0  0
 14 15  1  0  0  0
  7  2  1  0  0  0
 13  8  1  0  0  0
 14  5  1  0  0  0
M  END
> <minimizedAffinity>
-6.99327

> <CNNscore>
0.4970702231

> <CNNaffinity>
5.0329036713

> <CNN_VS>
2.5017066002

> <CNNaffinity_variance>
0.1343481541

$$$$
[H]c1c([H])c([H])c2c(c1[H])c1c(n2C([H])([H])[H])C([H])([H])C([H])([H])N(C([H])([H])[H])C1([H])[H]


 15 17  0  0  0  0  0  0  0  0999 V2000
   33.9042   11.7599  -14.8196 C   0  0  0  0  0  0  0  0  0  0  0  0
   35.0811   12.4099  -15.2585 N   0  0  0  0  0  0  0  0  0  0  0  0
   35.4229   13.6250  -14.6576 C   0  0  0  0  0  0  0  0  0  0  0  0
   36.7265   13.5129  -13.8603 C   0  0  0  0  0  0  0  0  0  0  0  0
   37.8021   13.0858  -14.8212 C   0  0  0  0  0  0  0  0  0  0  0  0
   37.4336   12.1834  -15.7997 C   0  0  0  0  0  0  0  0  0  0  0  0
   36.0506   11.6536  -15.9089 C   0  0  0  0  0  0  0  0  0  0  0  0
   38.5850   11.9651  -16.5311 C   0  0  0  0  0  0  0  0  0  0  0  0
   38.8685   11.1769  -17.6273 C   0  0  0  0  0  0  0  0  0  0  0  0
   40.1325   11.1275  -18.1932 C   0  0  0  0  0  0  0  0  0  0  0  0
   41.1727   11.8725  -17.6786 C   0  0  0  0  0  0  0  0  0  0  0  0
   40.8879   12.6596  -16.5833 C   0  0  0  0  0  0  0  0  0  0  0  0
   39.6225   12.7132  -16.0118 C   0  0  0  0  0  0  0  0  0  0  0  0
   39.0881   13.3794  -14.9678 N   0  0  0  0  0  0  0  0  0  0  0  0
   39.8630   14.2882  -14.1432 C   0  0  0  0  0  0  0  0  0  0  0  0
  1  2  1  0  0  0
  2  3  1  0  0  0
  3  4  1  0  0  0
  4  5  1  0  0  0
  5  6  2  0  0  0
  6  7  1  0  0  0
  6  8  1  0  0  0
  8  9  2  0  0  0
  9 10  1  0  0  0
 10 11  2  0  0  0
 11 12  1  0  0  0
 12 13  2  0  0  0
 13 14  1  0  0  0
 14 15  1  0  0  0
  7  2  1  0  0  0
 13  8  1  0  0  0
 14  5  1  0  0  0
M  END
> <minimizedAffinity>
-7.55799

> <CNNscore>
0.4968572557

> <CNNaffinity>
5.2363505363

> <CNN_VS>
2.6017186642

> <CNNaffinity_variance>
0.1026291996

$$$$
[H]c1c([H])c([H])c2c(c1[H])c1c(n2C([H])([H])[H])C([H])([H])C([H])([H])N(C([H])([H])[H])C1([H])[H]


 15 17  0  0  0  0  0  0  0  0999 V2000
   37.0338   14.3524  -11.8521 C   0  0  0  0  0  0  0  0  0  0  0  0
   36.9400   13.2519  -12.7355 N   0  0  0  0  0  0  0  0  0  0  0  0
   35.7785   12.4750  -12.6951 C   0  0  0  0  0  0  0  0  0  0  0  0
   34.9836   12.5807  -14.0007 C   0  0  0  0  0  0  0  0  0  0  0  0
   35.8846   12.1140  -15.1110 C   0  0  0  0  0  0  0  0  0  0  0  0
   37.2192   12.4543  -15.0080 C   0  0  0  0  0  0  0  0  0  0  0  0
   37.7507   13.2406  -13.8658 C   0  0  0  0  0  0  0  0  0  0  0  0
   37.8101   11.9132  -16.1334 C   0  0  0  0  0  0  0  0  0  0  0  0
   39.1066   11.9061  -16.6047 C   0  0  0  0  0  0  0  0  0  0  0  0
   39.4573   11.2792  -17.7898 C   0  0  0  0  0  0  0  0  0  0  0  0
   38.5143   10.6284  -18.5572 C   0  0  0  0  0  0  0  0  0  0  0  0
   37.2192   10.6363  -18.0849 C   0  0  0  0  0  0  0  0  0  0  0  0
   36.8618   11.2631  -16.8975 C   0  0  0  0  0  0  0  0  0  0  0  0
   35.7023   11.4172  -16.2257 N   0  0  0  0  0  0  0  0  0  0  0  0
   34.4454   10.8715  -16.7039 C   0  0  0  0  0  0  0  0  0  0  0  0
  1  2  1  0  0  0
  2  3  1  0  0  0
  3  4  1  0  0  0
  4  5  1  0  0  0
  5  6  2  0  0  0
  6  7  1  0  0  0
  6  8  1  0  0  0
  8  9  2  0  0  0
  9 10  1  0  0  0
 10 11  2  0  0  0
 11 12  1  0  0  0
 12 13  2  0  0  0
 13 14  1  0  0  0
 14 15  1  0  0  0
  7  2  1  0  0  0
 13  8  1  0  0  0
 14  5  1  0  0  0
M  END
> <minimizedAffinity>
-7.62881

> <CNNscore>
0.4932951927

> <CNNaffinity>
5.1271271706

> <CNN_VS>
2.5291872025

> <CNNaffinity_variance>
0.1166626588

$$$$
[H]c1c([H])c([H])c2c(c1[H])c1c(n2C([H])([H])[H])C([H])([H])C([H])([H])N(C([H])([H])[H])C1([H])[H]


 15 17  0  0  0  0  0  0  0  0999 V2000
   38.2024   15.0820  -11.7612 C   0  0  0  0  0  0  0  0  0  0  0  0
   37.8560   14.6420  -13.0600 N   0  0  0  0  0  0  0  0  0  0  0  0
   38.8373   14.6948  -14.0542 C   0  0  0  0  0  0  0  0  0  0  0  0
   39.2250   13.2938  -14.5388 C   0  0  0  0  0  0  0  0  0  0  0  0
   37.9772   12.6447  -15.0719 C   0  0  0  0  0  0  0  0  0  0  0  0
   36.8035   12.9135  -14.3952 C   0  0  0  0  0  0  0  0  0  0  0  0
   36.7614   13.7954  -13.2012 C   0  0  0  0  0  0  0  0  0  0  0  0
   35.8319   12.2083  -15.0785 C   0  0  0  0  0  0  0  0  0  0  0  0
   34.4711   12.0673  -14.9008 C   0  0  0  0  0  0  0  0  0  0  0  0
   33.6946   11.2849  -15.7407 C   0  0  0  0  0  0  0  0  0  0  0  0
   34.2557   10.6061  -16.8019 C   0  0  0  0  0  0  0  0  0  0  0  0
   35.6156   10.7480  -16.9782 C   0  0  0  0  0  0  0  0  0  0  0  0
   36.3990   11.5311  -16.1394 C   0  0  0  0  0  0  0  0  0  0  0  0
   37.7125   11.8334  -16.0883 N   0  0  0  0  0  0  0  0  0  0  0  0
   38.6707   11.3120  -17.0456 C   0  0  0  0  0  0  0  0  0  0  0  0
  1  2  1  0  0  0
  2  3  1  0  0  0
  3  4  1  0  0  0
  4  5  1  0  0  0
  5  6  2  0  0  0
  6  7  1  0  0  0
  6  8  1  0  0  0
  8  9  2  0  0  0
  9 10  1  0  0  0
 10 11  2  0  0  0
 11 12  1  0  0  0
 12 13  2  0  0  0
 13 14  1  0  0  0
 14 15  1  0  0  0
  7  2  1  0  0  0
 13  8  1  0  0  0
 14  5  1  0  0  0
M  END
> <minimizedAffinity>
-7.15410

> <CNNscore>
0.4712003767

> <CNNaffinity>
4.9807972908

> <CNN_VS>
2.3469536304

> <CNNaffinity_variance>
0.1075480953

$$$$
[H]c1c([H])c([H])c2c(c1[H])c1c(n2C([H])([H])[H])C([H])([H])C([H])([H])N(C([H])([H])[H])C1([H])[H]


 15 17  0  0  0  0  0  0  0  0999 V2000
   42.2187   12.9919  -15.8226 C   0  0  0  0  0  0  0  0  0  0  0  0
   40.8228   13.1180  -16.0118 N   0  0  0  0  0  0  0  0  0  0  0  0
   40.3129   12.9078  -17.2964 C   0  0  0  0  0  0  0  0  0  0  0  0
   39.4121   11.6695  -17.3499 C   0  0  0  0  0  0  0  0  0  0  0  0
   38.2897   11.8915  -16.3735 C   0  0  0  0  0  0  0  0  0  0  0  0
   38.6124   12.5423  -15.1988 C   0  0  0  0  0  0  0  0  0  0  0  0
   39.9922   13.0039  -14.9018 C   0  0  0  0  0  0  0  0  0  0  0  0
   37.4247   12.6150  -14.4969 C   0  0  0  0  0  0  0  0  0  0  0  0
   37.0889   13.1421  -13.2671 C   0  0  0  0  0  0  0  0  0  0  0  0
   35.7962   13.0903  -12.7704 C   0  0  0  0  0  0  0  0  0  0  0  0
   34.7789   12.5026  -13.4926 C   0  0  0  0  0  0  0  0  0  0  0  0
   35.1160   11.9763  -14.7213 C   0  0  0  0  0  0  0  0  0  0  0  0
   36.4103   12.0255  -15.2244 C   0  0  0  0  0  0  0  0  0  0  0  0
   36.9949   11.6002  -16.3631 N   0  0  0  0  0  0  0  0  0  0  0  0
   36.2579   10.9171  -17.4103 C   0  0  0  0  0  0  0  0  0  0  0  0
  1  2  1  0  0  0
  2  3  1  0  0  0
  3  4  1  0  0  0
  4  5  1  0  0  0
  5  6  2  0  0  0
  6  7  1  0  0  0
  6  8  1  0  0  0
  8  9  2  0  0  0
  9 10  1  0  0  0
 10 11  2  0  0  0
 11 12  1  0  0  0
 12 13  2  0  0  0
 13 14  1  0  0  0
 14 15  1  0  0  0
  7  2  1  0  0  0
 13  8  1  0  0  0
 14  5  1  0  0  0
M  END
> <minimizedAffinity>
-7.00515

> <CNNscore>
0.4700785875

> <CNNaffinity>
5.2013044357

> <CNN_VS>
2.4450218678

> <CNNaffinity_variance>
0.1511252671

$$$$
[H]c1c([H])c([H])c2c(c1[H])c1c(n2C([H])([H])[H])C([H])([H])C([H])([H])N(C([H])([H])[H])C1([H])[H]


 15 17  0  0  0  0  0  0  0  0999 V2000
   37.9788   10.6372  -19.2906 C   0  0  0  0  0  0  0  0  0  0  0  0
   38.2410   10.8592  -17.9187 N   0  0  0  0  0  0  0  0  0  0  0  0
   39.5716   11.0242  -17.5231 C   0  0  0  0  0  0  0  0  0  0  0  0
   39.8308   12.4377  -16.9913 C   0  0  0  0  0  0  0  0  0  0  0  0
   38.9090   12.6505  -15.8218 C   0  0  0  0  0  0  0  0  0  0  0  0
   37.6466   12.0993  -15.9219 C   0  0  0  0  0  0  0  0  0  0  0  0
   37.2084   11.3341  -17.1167 C   0  0  0  0  0  0  0  0  0  0  0  0
   37.0190   12.4357  -14.7381 C   0  0  0  0  0  0  0  0  0  0  0  0
   35.7591   12.1833  -14.2359 C   0  0  0  0  0  0  0  0  0  0  0  0
   35.3563   12.6392  -12.9908 C   0  0  0  0  0  0  0  0  0  0  0  0
   36.2075   13.3730  -12.1916 C   0  0  0  0  0  0  0  0  0  0  0  0
   37.4662   13.6243  -12.6947 C   0  0  0  0  0  0  0  0  0  0  0  0
   37.8754   13.1698  -13.9423 C   0  0  0  0  0  0  0  0  0  0  0  0
   39.0169   13.2713  -14.6537 N   0  0  0  0  0  0  0  0  0  0  0  0
   40.1835   13.9794  -14.1598 C   0  0  0  0  0  0  0  0  0  0  0  0
  1  2  1  0  0  0
  2  3  1  0  0  0
  3  4  1  0  0  0
  4  5  1  0  0  0
  5  6  2  0  0  0
  6  7  1  0  0  0
  6  8  1  0  0  0
  8  9  2  0  0  0
  9 10  1  0  0  0
 10 11  2  0  0  0
 11 12  1  0  0  0
 12 13  2  0  0  0
 13 14  1  0  0  0
 14 15  1  0  0  0
  7  2  1  0  0  0
 13  8  1  0  0  0
 14  5  1  0  0  0
M  END
> <minimizedAffinity>
-6.62026

> <CNNscore>
0.4668397307

> <CNNaffinity>
5.3083724976

> <CNN_VS>
2.4781591892

> <CNNaffinity_variance>
0.1220439076

$$$$
[H]c1c([H])c([H])c2c(c1[H])c1c(n2C([H])([H])[H])C([H])([H])C([H])([H])N(C([H])([H])[H])C1([H])[H]


 15 17  0  0  0  0  0  0  0  0999 V2000
   41.0123   13.1988  -16.3034 C   0  0  0  0  0  0  0  0  0  0  0  0
   39.8480   12.7912  -15.6116 N   0  0  0  0  0  0  0  0  0  0  0  0
   39.6518   13.2754  -14.3149 C   0  0  0  0  0  0  0  0  0  0  0  0
   38.4251   14.1899  -14.2340 C   0  0  0  0  0  0  0  0  0  0  0  0
   37.2356   13.3812  -14.6740 C   0  0  0  0  0  0  0  0  0  0  0  0
   37.4447   12.4849  -15.7039 C   0  0  0  0  0  0  0  0  0  0  0  0
   38.7700   12.3184  -16.3528 C   0  0  0  0  0  0  0  0  0  0  0  0
   36.2165   11.8858  -15.9062 C   0  0  0  0  0  0  0  0  0  0  0  0
   35.7751   10.9163  -16.7827 C   0  0  0  0  0  0  0  0  0  0  0  0
   34.4627   10.4711  -16.7906 C   0  0  0  0  0  0  0  0  0  0  0  0
   33.5315   10.9844  -15.9124 C   0  0  0  0  0  0  0  0  0  0  0  0
   33.9741   11.9531  -15.0371 C   0  0  0  0  0  0  0  0  0  0  0  0
   35.2886   12.4031  -15.0247 C   0  0  0  0  0  0  0  0  0  0  0  0
   35.9655   13.3133  -14.2949 N   0  0  0  0  0  0  0  0  0  0  0  0
   35.3387   14.0916  -13.2424 C   0  0  0  0  0  0  0  0  0  0  0  0
  1  2  1  0  0  0
  2  3  1  0  0  0
  3  4  1  0  0  0
  4  5  1  0  0  0
  5  6  2  0  0  0
  6  7  1  0  0  0
  6  8  1  0  0  0
  8  9  2  0  0  0
  9 10  1  0  0  0
 10 11  2  0  0  0
 11 12  1  0  0  0
 12 13  2  0  0  0
 13 14  1  0  0  0
 14 15  1  0  0  0
  7  2  1  0  0  0
 13  8  1  0  0  0
 14  5  1  0  0  0
M  END
> <minimizedAffinity>
-7.14163

> <CNNscore>
0.4605647922

> <CNNaffinity>
5.1710667610

> <CNN_VS>
2.3816113472

> <CNNaffinity_variance>
0.1092799157

$$$$
[H]OC(=O)[C@@]([H])(N([H])C(=O)[C@@]([H])(N([H])C(=O)[C@@]([H])(N([H])C(=O)[C@@]([H])(N([H])C(=O)[C@@]1([H])N(C(=O)[C@@]([H])(N([H])C(=O)OC([H])([H])c2c([H])c([H])c([H])c([H])c2[H])[C@@]([H])(C([H])([H])[H])C([H])([H])C([H])([H])[H])C([H])([H])C([H])([H])C1([H])[H])C([H])([H])C([H])(C([H])([H])[H])C([H])([H])[H])C([H])([H])O[H])C([H])([H])C([H])(C([H])([H])[H])C([H])([H])[H])C([H])([H])c1c([H])c([H])c([H])c([H])c1[H]


 66 68  0  0  0  0  0  0  0  0999 V2000
   31.2320   14.6933   -7.2951 C   0  0  0  0  0  0  0  0  0  0  0  0
   30.6943   14.0896   -8.4948 C   0  0  0  0  0  0  0  0  0  0  0  0
   29.8333   13.2103   -8.5055 O   0  0  0  0  0  0  0  0  0  0  0  0
   31.2797   14.6085   -9.6718 N   0  0  0  0  0  0  0  0  0  0  0  0
   31.9540   15.4678   -9.5156 H   0  0  0  0  0  0  0  0  0  0  0  0
   31.1535   14.2846  -11.0576 C   0  0  0  0  0  0  0  0  0  0  0  0
   32.0884   15.3419  -11.7304 C   0  0  0  0  0  0  0  0  0  0  0  0
   31.4851   16.3724  -11.9812 O   0  0  0  0  0  0  0  0  0  0  0  0
   33.4443   15.1148  -11.9902 N   0  0  0  0  0  0  0  0  0  0  0  0
   33.4259   16.3814  -12.5946 H   0  0  0  0  0  0  0  0  0  0  0  0
   34.7580   14.9695  -12.2681 C   0  0  0  0  0  0  0  0  0  0  0  0
   35.0450   13.6758  -13.0368 C   0  0  0  0  0  0  0  0  0  0  0  0
   35.0661   12.6289  -12.3879 O   0  0  0  0  0  0  0  0  0  0  0  0
   35.2535   13.7608  -14.4134 N   0  0  0  0  0  0  0  0  0  0  0  0
   35.1730   14.7554  -14.8579 H   0  0  0  0  0  0  0  0  0  0  0  0
   35.5571   12.7586  -15.3802 C   0  0  0  0  0  0  0  0  0  0  0  0
   34.4097   11.9034  -15.6350 C   0  0  0  0  0  0  0  0  0  0  0  0
   33.3678   11.7587  -14.6802 O   0  0  0  0  0  0  0  0  0  0  0  0
   34.2263   11.2300  -16.6969 O   0  0  0  0  0  0  0  0  0  0  0  0
   33.6102   11.7527  -13.6924 H   0  0  0  0  0  0  0  0  0  0  0  0
   36.7432   11.9655  -14.8309 C   0  0  0  0  0  0  0  0  0  0  0  0
   37.9056   11.9923  -15.7074 C   0  0  0  0  0  0  0  0  0  0  0  0
   39.0834   12.6278  -15.5474 C   0  0  0  0  0  0  0  0  0  0  0  0
   40.1263   12.4944  -16.4729 C   0  0  0  0  0  0  0  0  0  0  0  0
   40.0502   11.7158  -17.6036 C   0  0  0  0  0  0  0  0  0  0  0  0
   38.8113   11.0523  -17.7568 C   0  0  0  0  0  0  0  0  0  0  0  0
   37.8118   11.1913  -16.8624 C   0  0  0  0  0  0  0  0  0  0  0  0
   35.5006   14.9693  -10.9384 C   0  0  0  0  0  0  0  0  0  0  0  0
   36.8541   15.5153  -10.8891 C   0  0  0  0  0  0  0  0  0  0  0  0
   37.8495   15.2454  -11.9318 C   0  0  0  0  0  0  0  0  0  0  0  0
   36.8668   16.9973  -10.4832 C   0  0  0  0  0  0  0  0  0  0  0  0
   29.7391   14.7337  -11.5341 C   0  0  0  0  0  0  0  0  0  0  0  0
   29.5805   14.3418  -12.8434 O   0  0  0  0  0  0  0  0  0  0  0  0
   30.1664   14.9212  -13.3914 H   0  0  0  0  0  0  0  0  0  0  0  0
   33.1167   14.1471   -5.8991 C   0  0  0  0  0  0  0  0  0  0  0  0
   32.1210   13.3640   -5.4121 O   0  0  0  0  0  0  0  0  0  0  0  0
   32.6158   14.8868   -7.0019 N   0  0  0  0  0  0  0  0  0  0  0  0
   33.2119   15.5160   -7.5281 H   0  0  0  0  0  0  0  0  0  0  0  0
   36.5016   14.0191   -6.6261 C   0  0  0  0  0  0  0  0  0  0  0  0
   36.1639   13.7124   -7.7873 O   0  0  0  0  0  0  0  0  0  0  0  0
   35.6250   13.9889   -5.5259 N   0  0  0  0  0  0  0  0  0  0  0  0
   36.2462   13.9263   -4.1264 C   0  0  0  0  0  0  0  0  0  0  0  0
   35.6365   15.1522   -3.5451 C   0  0  0  0  0  0  0  0  0  0  0  0
   34.2728   15.2293   -4.1350 C   0  0  0  0  0  0  0  0  0  0  0  0
   34.2942   14.0096   -5.1852 C   0  0  0  0  0  0  0  0  0  0  0  0
   37.9386   14.4334   -6.4402 C   0  0  0  0  0  0  0  0  0  0  0  0
   38.9476   13.5247   -6.8385 N   0  0  0  0  0  0  0  0  0  0  0  0
   39.8330   12.8806   -5.8829 C   0  0  0  0  0  0  0  0  0  0  0  0
   39.6145   13.0957   -4.6953 O   0  0  0  0  0  0  0  0  0  0  0  0
   39.1203   13.2783   -7.8354 H   0  0  0  0  0  0  0  0  0  0  0  0
   40.8726   12.0650   -6.2286 O   0  0  0  0  0  0  0  0  0  0  0  0
   42.1124   12.0682   -5.6095 C   0  0  0  0  0  0  0  0  0  0  0  0
   42.5323   10.8852   -4.8642 C   0  0  0  0  0  0  0  0  0  0  0  0
   41.7154   10.2503   -3.9934 C   0  0  0  0  0  0  0  0  0  0  0  0
   42.1017    9.1710   -3.2692 C   0  0  0  0  0  0  0  0  0  0  0  0
   43.3953    8.6699   -3.4134 C   0  0  0  0  0  0  0  0  0  0  0  0
   44.2396    9.3021   -4.2957 C   0  0  0  0  0  0  0  0  0  0  0  0
   43.8354   10.3841   -5.0049 C   0  0  0  0  0  0  0  0  0  0  0  0
   38.1739   15.7834   -7.0371 C   0  0  0  0  0  0  0  0  0  0  0  0
   37.2581   16.8708   -6.6335 C   0  0  0  0  0  0  0  0  0  0  0  0
   39.6968   17.5060   -6.1045 C   0  0  0  0  0  0  0  0  0  0  0  0
   39.6066   16.1940   -6.9097 C   0  0  0  0  0  0  0  0  0  0  0  0
   30.5488   16.1169   -7.2821 C   0  0  0  0  0  0  0  0  0  0  0  0
   29.4133   16.2210   -6.3411 C   0  0  0  0  0  0  0  0  0  0  0  0
   28.0340   16.1184   -6.8435 C   0  0  0  0  0  0  0  0  0  0  0  0
   29.5541   17.6293   -5.7117 C   0  0  0  0  0  0  0  0  0  0  0  0
 61 62  1  0  0  0
 62 59  1  0  0  0
 59 60  1  0  0  0
 59 46  1  0  0  0
 46 47  1  0  0  0
 47 48  1  0  0  0
 48 49  2  0  0  0
 48 51  1  0  0  0
 51 52  1  0  0  0
 52 53  1  0  0  0
 53 54  2  0  0  0
 54 55  1  0  0  0
 55 56  2  0  0  0
 56 57  1  0  0  0
 57 58  2  0  0  0
 46 39  1  0  0  0
 39 40  2  0  0  0
 39 41  1  0  0  0
 41 42  1  0  0  0
 42 43  1  0  0  0
 43 44  1  0  0  0
 44 45  1  0  0  0
 45 35  1  0  0  0
 35 36  2  0  0  0
 35 37  1  0  0  0
 37  1  1  0  0  0
  1 63  1  0  0  0
 63 64  1  0  0  0
 64 65  1  0  0  0
 64 66  1  0  0  0
  1  2  1  0  0  0
  2  3  2  0  0  0
  2  4  1  0  0  0
  4  6  1  0  0  0
  6 32  1  0  0  0
 32 33  1  0  0  0
  6  7  1  0  0  0
  7  8  2  0  0  0
  7  9  1  0  0  0
  9 11  1  0  0  0
 11 28  1  0  0  0
 28 29  1  0  0  0
 29 30  1  0  0  0
 29 31  1  0  0  0
 11 12  1  0  0  0
 12 13  2  0  0  0
 12 14  1  0  0  0
 14 16  1  0  0  0
 16 21  1  0  0  0
 21 22  1  0  0  0
 22 23  2  0  0  0
 23 24  1  0  0  0
 24 25  2  0  0  0
 25 26  1  0  0  0
 26 27  2  0  0  0
 16 17  1  0  0  0
 17 18  1  0  0  0
 17 19  2  0  0  0
 58 53  1  0  0  0
 45 41  1  0  0  0
 27 22  1  0  0  0
 47 50  1  0  0  0
 37 38  1  0  0  0
  4  5  1  0  0  0
 33 34  1  0  0  0
  9 10  1  0  0  0
 14 15  1  0  0  0
 18 20  1  0  0  0
M  END
> <minimizedAffinity>
-9.59044

> <CNNscore>
0.2632512152

> <CNNaffinity>
7.1883134842

> <CNN_VS>
1.8923323154

> <CNNaffinity_variance>
0.6976897120

$$$$
[H]OC(=O)[C@@]([H])(N([H])C(=O)[C@@]([H])(N([H])C(=O)[C@@]([H])(N([H])C(=O)[C@@]([H])(N([H])C(=O)[C@@]1([H])N(C(=O)[C@@]([H])(N([H])C(=O)OC([H])([H])c2c([H])c([H])c([H])c([H])c2[H])[C@@]([H])(C([H])([H])[H])C([H])([H])C([H])([H])[H])C([H])([H])C([H])([H])C1([H])[H])C([H])([H])C([H])(C([H])([H])[H])C([H])([H])[H])C([H])([H])O[H])C([H])([H])C([H])(C([H])([H])[H])C([H])([H])[H])C([H])([H])c1c([H])c([H])c([H])c([H])c1[H]


 66 68  0  0  0  0  0  0  0  0999 V2000
   36.5887   14.0031  -13.1293 C   0  0  0  0  0  0  0  0  0  0  0  0
   37.7759   13.3213  -13.5970 C   0  0  0  0  0  0  0  0  0  0  0  0
   37.7932   12.1663  -14.0216 O   0  0  0  0  0  0  0  0  0  0  0  0
   38.9354   14.1234  -13.4994 N   0  0  0  0  0  0  0  0  0  0  0  0
   38.7522   15.1715  -13.2070 H   0  0  0  0  0  0  0  0  0  0  0  0
   40.3219   13.8807  -13.7441 C   0  0  0  0  0  0  0  0  0  0  0  0
   40.9908   15.1668  -13.1583 C   0  0  0  0  0  0  0  0  0  0  0  0
   40.2868   16.1491  -13.3259 O   0  0  0  0  0  0  0  0  0  0  0  0
   42.2344   15.1628  -12.5170 N   0  0  0  0  0  0  0  0  0  0  0  0
   42.0724   16.5547  -12.4369 H   0  0  0  0  0  0  0  0  0  0  0  0
   43.4254   15.2361  -11.8843 C   0  0  0  0  0  0  0  0  0  0  0  0
   43.2647   15.3608  -10.3659 C   0  0  0  0  0  0  0  0  0  0  0  0
   43.5869   16.4333   -9.8524 O   0  0  0  0  0  0  0  0  0  0  0  0
   42.7592   14.2655   -9.6656 N   0  0  0  0  0  0  0  0  0  0  0  0
   42.4868   13.3906  -10.2601 H   0  0  0  0  0  0  0  0  0  0  0  0
   42.5197   14.0707   -8.2741 C   0  0  0  0  0  0  0  0  0  0  0  0
   43.2021   12.8863   -7.7798 C   0  0  0  0  0  0  0  0  0  0  0  0
   42.5018   11.8649   -7.0837 O   0  0  0  0  0  0  0  0  0  0  0  0
   44.4429   12.6506   -7.9193 O   0  0  0  0  0  0  0  0  0  0  0  0
   41.7449   12.1326   -6.4591 H   0  0  0  0  0  0  0  0  0  0  0  0
   41.0043   13.9643   -8.1014 C   0  0  0  0  0  0  0  0  0  0  0  0
   40.4711   14.9063   -7.1276 C   0  0  0  0  0  0  0  0  0  0  0  0
   39.3618   14.8151   -6.3674 C   0  0  0  0  0  0  0  0  0  0  0  0
   39.0270   15.7990   -5.4284 C   0  0  0  0  0  0  0  0  0  0  0  0
   39.7843   16.9227   -5.1953 C   0  0  0  0  0  0  0  0  0  0  0  0
   40.9462   17.0036   -5.9964 C   0  0  0  0  0  0  0  0  0  0  0  0
   41.2571   16.0532   -6.9012 C   0  0  0  0  0  0  0  0  0  0  0  0
   44.1545   16.4524  -12.4398 C   0  0  0  0  0  0  0  0  0  0  0  0
   45.2409   16.2458  -13.3934 C   0  0  0  0  0  0  0  0  0  0  0  0
   45.2029   15.1920  -14.4127 C   0  0  0  0  0  0  0  0  0  0  0  0
   45.7523   17.5686  -13.9848 C   0  0  0  0  0  0  0  0  0  0  0  0
   40.5789   14.0341  -15.2736 C   0  0  0  0  0  0  0  0  0  0  0  0
   40.3027   12.8306  -15.8804 O   0  0  0  0  0  0  0  0  0  0  0  0
   41.0236   12.2042  -15.6211 H   0  0  0  0  0  0  0  0  0  0  0  0
   36.8934   15.6155  -11.3667 C   0  0  0  0  0  0  0  0  0  0  0  0
   37.3016   14.4488  -10.8064 O   0  0  0  0  0  0  0  0  0  0  0  0
   36.5148   15.3664  -12.7117 N   0  0  0  0  0  0  0  0  0  0  0  0
   36.2029   16.1166  -13.3184 H   0  0  0  0  0  0  0  0  0  0  0  0
   34.9804   16.7980   -8.7316 C   0  0  0  0  0  0  0  0  0  0  0  0
   34.0401   16.1360   -9.2156 O   0  0  0  0  0  0  0  0  0  0  0  0
   36.1683   17.0884   -9.4275 N   0  0  0  0  0  0  0  0  0  0  0  0
   37.0135   18.2645   -8.9268 C   0  0  0  0  0  0  0  0  0  0  0  0
   38.2915   17.5449   -8.6791 C   0  0  0  0  0  0  0  0  0  0  0  0
   38.3748   16.5143   -9.7488 C   0  0  0  0  0  0  0  0  0  0  0  0
   36.9497   16.6761  -10.4796 C   0  0  0  0  0  0  0  0  0  0  0  0
   34.7847   17.2972   -7.3231 C   0  0  0  0  0  0  0  0  0  0  0  0
   33.6521   18.1024   -7.0562 N   0  0  0  0  0  0  0  0  0  0  0  0
   33.7671   19.4604   -6.5517 C   0  0  0  0  0  0  0  0  0  0  0  0
   34.9009   19.9153   -6.4431 O   0  0  0  0  0  0  0  0  0  0  0  0
   32.6769   17.7637   -7.1926 H   0  0  0  0  0  0  0  0  0  0  0  0
   32.7030   20.2414   -6.2006 O   0  0  0  0  0  0  0  0  0  0  0  0
   32.5511   21.5702   -6.5632 C   0  0  0  0  0  0  0  0  0  0  0  0
   32.7949   22.6068   -5.5645 C   0  0  0  0  0  0  0  0  0  0  0  0
   33.0526   23.8907   -5.9018 C   0  0  0  0  0  0  0  0  0  0  0  0
   33.3141   24.8574   -4.9876 C   0  0  0  0  0  0  0  0  0  0  0  0
   33.3196   24.5400   -3.6294 C   0  0  0  0  0  0  0  0  0  0  0  0
   33.0582   23.2393   -3.2678 C   0  0  0  0  0  0  0  0  0  0  0  0
   32.8061   22.2866   -4.1984 C   0  0  0  0  0  0  0  0  0  0  0  0
   34.8723   16.1648   -6.3514 C   0  0  0  0  0  0  0  0  0  0  0  0
   35.6531   14.9793   -6.7622 C   0  0  0  0  0  0  0  0  0  0  0  0
   34.2133   16.2012   -3.9596 C   0  0  0  0  0  0  0  0  0  0  0  0
   35.2710   16.6428   -4.9913 C   0  0  0  0  0  0  0  0  0  0  0  0
   35.5859   13.8299  -14.3367 C   0  0  0  0  0  0  0  0  0  0  0  0
   34.5288   12.8263  -14.0901 C   0  0  0  0  0  0  0  0  0  0  0  0
   34.1759   11.8605  -15.1428 C   0  0  0  0  0  0  0  0  0  0  0  0
   33.2549   13.6608  -13.8068 C   0  0  0  0  0  0  0  0  0  0  0  0
 61 62  1  0  0  0
 62 59  1  0  0  0
 59 60  1  0  0  0
 59 46  1  0  0  0
 46 47  1  0  0  0
 47 48  1  0  0  0
 48 49  2  0  0  0
 48 51  1  0  0  0
 51 52  1  0  0  0
 52 53  1  0  0  0
 53 54  2  0  0  0
 54 55  1  0  0  0
 55 56  2  0  0  0
 56 57  1  0  0  0
 57 58  2  0  0  0
 46 39  1  0  0  0
 39 40  2  0  0  0
 39 41  1  0  0  0
 41 42  1  0  0  0
 42 43  1  0  0  0
 43 44  1  0  0  0
 44 45  1  0  0  0
 45 35  1  0  0  0
 35 36  2  0  0  0
 35 37  1  0  0  0
 37  1  1  0  0  0
  1 63  1  0  0  0
 63 64  1  0  0  0
 64 65  1  0  0  0
 64 66  1  0  0  0
  1  2  1  0  0  0
  2  3  2  0  0  0
  2  4  1  0  0  0
  4  6  1  0  0  0
  6 32  1  0  0  0
 32 33  1  0  0  0
  6  7  1  0  0  0
  7  8  2  0  0  0
  7  9  1  0  0  0
  9 11  1  0  0  0
 11 28  1  0  0  0
 28 29  1  0  0  0
 29 30  1  0  0  0
 29 31  1  0  0  0
 11 12  1  0  0  0
 12 13  2  0  0  0
 12 14  1  0  0  0
 14 16  1  0  0  0
 16 21  1  0  0  0
 21 22  1  0  0  0
 22 23  2  0  0  0
 23 24  1  0  0  0
 24 25  2  0  0  0
 25 26  1  0  0  0
 26 27  2  0  0  0
 16 17  1  0  0  0
 17 18  1  0  0  0
 17 19  2  0  0  0
 58 53  1  0  0  0
 45 41  1  0  0  0
 27 22  1  0  0  0
 47 50  1  0  0  0
 37 38  1  0  0  0
  4  5  1  0  0  0
 33 34  1  0  0  0
  9 10  1  0  0  0
 14 15  1  0  0  0
 18 20  1  0  0  0
M  END
> <minimizedAffinity>
-6.99702

> <CNNscore>
0.2416920513

> <CNNaffinity>
7.1183004379

> <CNN_VS>
1.7204366922

> <CNNaffinity_variance>
0.5888613462

$$$$
[H]OC(=O)[C@@]([H])(N([H])C(=O)[C@@]([H])(N([H])C(=O)[C@@]([H])(N([H])C(=O)[C@@]([H])(N([H])C(=O)[C@@]1([H])N(C(=O)[C@@]([H])(N([H])C(=O)OC([H])([H])c2c([H])c([H])c([H])c([H])c2[H])[C@@]([H])(C([H])([H])[H])C([H])([H])C([H])([H])[H])C([H])([H])C([H])([H])C1([H])[H])C([H])([H])C([H])(C([H])([H])[H])C([H])([H])[H])C([H])([H])O[H])C([H])([H])C([H])(C([H])([H])[H])C([H])([H])[H])C([H])([H])c1c([H])c([H])c([H])c([H])c1[H]


 66 68  0  0  0  0  0  0  0  0999 V2000
   36.5001   13.9835  -13.1838 C   0  0  0  0  0  0  0  0  0  0  0  0
   37.6735   13.3020  -13.6854 C   0  0  0  0  0  0  0  0  0  0  0  0
   37.6760   12.1525  -14.1249 O   0  0  0  0  0  0  0  0  0  0  0  0
   38.8390   14.0972  -13.6025 N   0  0  0  0  0  0  0  0  0  0  0  0
   38.6675   15.1423  -13.2931 H   0  0  0  0  0  0  0  0  0  0  0  0
   40.2187   13.8509  -13.8799 C   0  0  0  0  0  0  0  0  0  0  0  0
   40.9097   15.1099  -13.2617 C   0  0  0  0  0  0  0  0  0  0  0  0
   40.1945   16.0948  -13.3449 O   0  0  0  0  0  0  0  0  0  0  0  0
   42.1828   15.0814  -12.6818 N   0  0  0  0  0  0  0  0  0  0  0  0
   42.0191   16.4663  -12.5229 H   0  0  0  0  0  0  0  0  0  0  0  0
   43.4025   15.1301  -12.1039 C   0  0  0  0  0  0  0  0  0  0  0  0
   43.3139   15.3011  -10.5840 C   0  0  0  0  0  0  0  0  0  0  0  0
   43.5368   16.4246  -10.1305 O   0  0  0  0  0  0  0  0  0  0  0  0
   42.9800   14.1865   -9.8149 N   0  0  0  0  0  0  0  0  0  0  0  0
   42.7787   13.2612  -10.3595 H   0  0  0  0  0  0  0  0  0  0  0  0
   42.8434   14.0258   -8.4052 C   0  0  0  0  0  0  0  0  0  0  0  0
   43.6505   12.9197   -7.9174 C   0  0  0  0  0  0  0  0  0  0  0  0
   43.0804   11.8703   -7.1481 O   0  0  0  0  0  0  0  0  0  0  0  0
   44.8963   12.7813   -8.1258 O   0  0  0  0  0  0  0  0  0  0  0  0
   42.3419   12.0976   -6.4866 H   0  0  0  0  0  0  0  0  0  0  0  0
   41.3555   13.8044   -8.1320 C   0  0  0  0  0  0  0  0  0  0  0  0
   40.8530   14.5980   -7.0195 C   0  0  0  0  0  0  0  0  0  0  0  0
   40.2391   14.1950   -5.8894 C   0  0  0  0  0  0  0  0  0  0  0  0
   39.8712   15.1000   -4.8856 C   0  0  0  0  0  0  0  0  0  0  0  0
   40.1013   16.4538   -4.9549 C   0  0  0  0  0  0  0  0  0  0  0  0
   40.7489   16.8620   -6.1433 C   0  0  0  0  0  0  0  0  0  0  0  0
   41.0947   15.9832   -7.1059 C   0  0  0  0  0  0  0  0  0  0  0  0
   44.1466   16.3050  -12.7249 C   0  0  0  0  0  0  0  0  0  0  0  0
   45.3158   16.0357  -13.5573 C   0  0  0  0  0  0  0  0  0  0  0  0
   45.3410   14.9595  -14.5534 C   0  0  0  0  0  0  0  0  0  0  0  0
   45.9358   17.3242  -14.1199 C   0  0  0  0  0  0  0  0  0  0  0  0
   40.4506   14.0553  -15.4075 C   0  0  0  0  0  0  0  0  0  0  0  0
   40.1272   12.8844  -16.0534 O   0  0  0  0  0  0  0  0  0  0  0  0
   40.8341   12.2279  -15.8327 H   0  0  0  0  0  0  0  0  0  0  0  0
   36.8889   15.6455  -11.4851 C   0  0  0  0  0  0  0  0  0  0  0  0
   37.3523   14.5003  -10.9234 O   0  0  0  0  0  0  0  0  0  0  0  0
   36.4294   15.3558  -12.7962 N   0  0  0  0  0  0  0  0  0  0  0  0
   36.0665   16.0850  -13.4000 H   0  0  0  0  0  0  0  0  0  0  0  0
   35.2983   16.7250   -8.6029 C   0  0  0  0  0  0  0  0  0  0  0  0
   34.3589   15.9716   -8.9293 O   0  0  0  0  0  0  0  0  0  0  0  0
   36.3363   17.0993   -9.4758 N   0  0  0  0  0  0  0  0  0  0  0  0
   37.1387   18.3569   -9.1247 C   0  0  0  0  0  0  0  0  0  0  0  0
   38.4988   17.7575   -9.0667 C   0  0  0  0  0  0  0  0  0  0  0  0
   38.5114   16.7108  -10.1239 C   0  0  0  0  0  0  0  0  0  0  0  0
   36.9834   16.7295  -10.6299 C   0  0  0  0  0  0  0  0  0  0  0  0
   35.2740   17.2413   -7.1873 C   0  0  0  0  0  0  0  0  0  0  0  0
   34.0407   17.7058   -6.6718 N   0  0  0  0  0  0  0  0  0  0  0  0
   33.7556   19.1201   -6.4983 C   0  0  0  0  0  0  0  0  0  0  0  0
   34.6059   19.9083   -6.8985 O   0  0  0  0  0  0  0  0  0  0  0  0
   33.2771   17.0624   -6.3763 H   0  0  0  0  0  0  0  0  0  0  0  0
   32.6153   19.6088   -5.9269 O   0  0  0  0  0  0  0  0  0  0  0  0
   31.4699   19.9503   -6.6282 C   0  0  0  0  0  0  0  0  0  0  0  0
   30.3191   19.0532   -6.5804 C   0  0  0  0  0  0  0  0  0  0  0  0
   29.1089   19.4013   -7.0730 C   0  0  0  0  0  0  0  0  0  0  0  0
   28.0225   18.5926   -7.0060 C   0  0  0  0  0  0  0  0  0  0  0  0
   28.1327   17.3364   -6.4099 C   0  0  0  0  0  0  0  0  0  0  0  0
   29.3564   16.9649   -5.9047 C   0  0  0  0  0  0  0  0  0  0  0  0
   30.4282   17.7916   -5.9758 C   0  0  0  0  0  0  0  0  0  0  0  0
   35.8978   16.2493   -6.2593 C   0  0  0  0  0  0  0  0  0  0  0  0
   36.7922   15.2349   -6.8548 C   0  0  0  0  0  0  0  0  0  0  0  0
   36.0676   16.2444   -3.7840 C   0  0  0  0  0  0  0  0  0  0  0  0
   36.5347   16.9249   -5.0866 C   0  0  0  0  0  0  0  0  0  0  0  0
   35.4487   13.7711  -14.3427 C   0  0  0  0  0  0  0  0  0  0  0  0
   34.3417   12.8612  -13.9794 C   0  0  0  0  0  0  0  0  0  0  0  0
   33.7374   11.9967  -15.0055 C   0  0  0  0  0  0  0  0  0  0  0  0
   33.2180   13.7963  -13.4674 C   0  0  0  0  0  0  0  0  0  0  0  0
 61 62  1  0  0  0
 62 59  1  0  0  0
 59 60  1  0  0  0
 59 46  1  0  0  0
 46 47  1  0  0  0
 47 48  1  0  0  0
 48 49  2  0  0  0
 48 51  1  0  0  0
 51 52  1  0  0  0
 52 53  1  0  0  0
 53 54  2  0  0  0
 54 55  1  0  0  0
 55 56  2  0  0  0
 56 57  1  0  0  0
 57 58  2  0  0  0
 46 39  1  0  0  0
 39 40  2  0  0  0
 39 41  1  0  0  0
 41 42  1  0  0  0
 42 43  1  0  0  0
 43 44  1  0  0  0
 44 45  1  0  0  0
 45 35  1  0  0  0
 35 36  2  0  0  0
 35 37  1  0  0  0
 37  1  1  0  0  0
  1 63  1  0  0  0
 63 64  1  0  0  0
 64 65  1  0  0  0
 64 66  1  0  0  0
  1  2  1  0  0  0
  2  3  2  0  0  0
  2  4  1  0  0  0
  4  6  1  0  0  0
  6 32  1  0  0  0
 32 33  1  0  0  0
  6  7  1  0  0  0
  7  8  2  0  0  0
  7  9  1  0  0  0
  9 11  1  0  0  0
 11 28  1  0  0  0
 28 29  1  0  0  0
 29 30  1  0  0  0
 29 31  1  0  0  0
 11 12  1  0  0  0
 12 13  2  0  0  0
 12 14  1  0  0  0
 14 16  1  0  0  0
 16 21  1  0  0  0
 21 22  1  0  0  0
 22 23  2  0  0  0
 23 24  1  0  0  0
 24 25  2  0  0  0
 25 26  1  0  0  0
 26 27  2  0  0  0
 16 17  1  0  0  0
 17 18  1  0  0  0
 17 19  2  0  0  0
 58 53  1  0  0  0
 45 41  1  0  0  0
 27 22  1  0  0  0
 47 50  1  0  0  0
 37 38  1  0  0  0
  4  5  1  0  0  0
 33 34  1  0  0  0
  9 10  1  0  0  0
 14 15  1  0  0  0
 18 20  1  0  0  0
M  END
> <minimizedAffinity>
-7.08917

> <CNNscore>
0.1901589334

> <CNNaffinity>
7.1433281898

> <CNN_VS>
1.3583676815

> <CNNaffinity_variance>
0.6703747511

$$$$
[H]OC(=O)[C@@]([H])(N([H])C(=O)[C@@]([H])(N([H])C(=O)[C@@]([H])(N([H])C(=O)[C@@]([H])(N([H])C(=O)[C@@]1([H])N(C(=O)[C@@]([H])(N([H])C(=O)OC([H])([H])c2c([H])c([H])c([H])c([H])c2[H])[C@@]([H])(C([H])([H])[H])C([H])([H])C([H])([H])[H])C([H])([H])C([H])([H])C1([H])[H])C([H])([H])C([H])(C([H])([H])[H])C([H])([H])[H])C([H])([H])O[H])C([H])([H])C([H])(C([H])([H])[H])C([H])([H])[H])C([H])([H])c1c([H])c([H])c([H])c([H])c1[H]


 66 68  0  0  0  0  0  0  0  0999 V2000
   36.6743   13.8006  -13.6984 C   0  0  0  0  0  0  0  0  0  0  0  0
   37.7799   13.1206  -14.3374 C   0  0  0  0  0  0  0  0  0  0  0  0
   37.6749   12.0827  -14.9903 O   0  0  0  0  0  0  0  0  0  0  0  0
   39.0155   13.7707  -14.1182 N   0  0  0  0  0  0  0  0  0  0  0  0
   38.9430   14.7478  -13.6108 H   0  0  0  0  0  0  0  0  0  0  0  0
   40.3668   13.4530  -14.4560 C   0  0  0  0  0  0  0  0  0  0  0  0
   41.1628   14.5942  -13.7426 C   0  0  0  0  0  0  0  0  0  0  0  0
   40.4306   15.5200  -13.4336 O   0  0  0  0  0  0  0  0  0  0  0  0
   42.5378   14.5319  -13.4916 N   0  0  0  0  0  0  0  0  0  0  0  0
   42.3919   15.8341  -12.9886 H   0  0  0  0  0  0  0  0  0  0  0  0
   43.8593   14.5413  -13.2127 C   0  0  0  0  0  0  0  0  0  0  0  0
   44.2567   15.7398  -12.3450 C   0  0  0  0  0  0  0  0  0  0  0  0
   43.5773   15.9569  -11.3406 O   0  0  0  0  0  0  0  0  0  0  0  0
   45.3592   16.4991  -12.7371 N   0  0  0  0  0  0  0  0  0  0  0  0
   45.8846   16.1675  -13.6355 H   0  0  0  0  0  0  0  0  0  0  0  0
   45.9499   17.6620  -12.1625 C   0  0  0  0  0  0  0  0  0  0  0  0
   46.2881   18.6426  -13.1807 C   0  0  0  0  0  0  0  0  0  0  0  0
   46.1708   18.3434  -14.5644 O   0  0  0  0  0  0  0  0  0  0  0  0
   46.7008   19.8213  -12.9464 O   0  0  0  0  0  0  0  0  0  0  0  0
   46.3961   17.4030  -14.8799 H   0  0  0  0  0  0  0  0  0  0  0  0
   47.1867   17.1918  -11.3964 C   0  0  0  0  0  0  0  0  0  0  0  0
   48.1743   16.5420  -12.2463 C   0  0  0  0  0  0  0  0  0  0  0  0
   48.1184   15.3440  -12.8613 C   0  0  0  0  0  0  0  0  0  0  0  0
   49.1467   14.8957  -13.7002 C   0  0  0  0  0  0  0  0  0  0  0  0
   50.2820   15.6216  -13.9731 C   0  0  0  0  0  0  0  0  0  0  0  0
   50.3258   16.8771  -13.3248 C   0  0  0  0  0  0  0  0  0  0  0  0
   49.3326   17.2974  -12.5152 C   0  0  0  0  0  0  0  0  0  0  0  0
   44.5985   14.5848  -14.5436 C   0  0  0  0  0  0  0  0  0  0  0  0
   45.3172   13.3937  -14.9876 C   0  0  0  0  0  0  0  0  0  0  0  0
   46.0493   12.5253  -14.0598 C   0  0  0  0  0  0  0  0  0  0  0  0
   44.5014   12.5657  -15.9926 C   0  0  0  0  0  0  0  0  0  0  0  0
   40.5810   13.7846  -15.9638 C   0  0  0  0  0  0  0  0  0  0  0  0
   40.2348   12.6769  -16.7025 O   0  0  0  0  0  0  0  0  0  0  0  0
   40.9365   11.9962  -16.5487 H   0  0  0  0  0  0  0  0  0  0  0  0
   37.0072   15.3860  -11.9166 C   0  0  0  0  0  0  0  0  0  0  0  0
   37.3324   14.1963  -11.3504 O   0  0  0  0  0  0  0  0  0  0  0  0
   36.6607   15.1640  -13.2749 N   0  0  0  0  0  0  0  0  0  0  0  0
   36.4106   15.9327  -13.8869 H   0  0  0  0  0  0  0  0  0  0  0  0
   35.5450   16.2444   -8.8955 C   0  0  0  0  0  0  0  0  0  0  0  0
   34.6337   15.4471   -9.1959 O   0  0  0  0  0  0  0  0  0  0  0  0
   36.4996   16.7188   -9.8138 N   0  0  0  0  0  0  0  0  0  0  0  0
   37.2456   18.0092   -9.4575 C   0  0  0  0  0  0  0  0  0  0  0  0
   38.6404   17.4950   -9.5113 C   0  0  0  0  0  0  0  0  0  0  0  0
   38.6474   16.4952  -10.6130 C   0  0  0  0  0  0  0  0  0  0  0  0
   37.0915   16.4379  -11.0214 C   0  0  0  0  0  0  0  0  0  0  0  0
   35.5817   16.7000   -7.4594 C   0  0  0  0  0  0  0  0  0  0  0  0
   34.3483   16.8912   -6.7926 N   0  0  0  0  0  0  0  0  0  0  0  0
   33.8218   18.2136   -6.4991 C   0  0  0  0  0  0  0  0  0  0  0  0
   34.4574   19.1696   -6.9309 O   0  0  0  0  0  0  0  0  0  0  0  0
   33.7582   16.0986   -6.4640 H   0  0  0  0  0  0  0  0  0  0  0  0
   32.6809   18.4442   -5.7847 O   0  0  0  0  0  0  0  0  0  0  0  0
   31.9601   17.4655   -5.1191 C   0  0  0  0  0  0  0  0  0  0  0  0
   30.6795   17.0336   -5.6712 C   0  0  0  0  0  0  0  0  0  0  0  0
   29.5462   17.7559   -5.5218 C   0  0  0  0  0  0  0  0  0  0  0  0
   28.3432   17.3520   -5.9996 C   0  0  0  0  0  0  0  0  0  0  0  0
   28.2435   16.1408   -6.6841 C   0  0  0  0  0  0  0  0  0  0  0  0
   29.3863   15.3935   -6.8467 C   0  0  0  0  0  0  0  0  0  0  0  0
   30.5778   15.8125   -6.3550 C   0  0  0  0  0  0  0  0  0  0  0  0
   36.4890   15.8240   -6.6571 C   0  0  0  0  0  0  0  0  0  0  0  0
   37.6064   16.4784   -5.9452 C   0  0  0  0  0  0  0  0  0  0  0  0
   36.1786   13.4633   -5.9592 C   0  0  0  0  0  0  0  0  0  0  0  0
   35.7141   14.9191   -5.7526 C   0  0  0  0  0  0  0  0  0  0  0  0
   35.5032   13.6247  -14.7429 C   0  0  0  0  0  0  0  0  0  0  0  0
   34.4425   12.6980  -14.2940 C   0  0  0  0  0  0  0  0  0  0  0  0
   33.7760   11.8201  -15.2689 C   0  0  0  0  0  0  0  0  0  0  0  0
   33.3458   13.6163  -13.6996 C   0  0  0  0  0  0  0  0  0  0  0  0
 61 62  1  0  0  0
 62 59  1  0  0  0
 59 60  1  0  0  0
 59 46  1  0  0  0
 46 47  1  0  0  0
 47 48  1  0  0  0
 48 49  2  0  0  0
 48 51  1  0  0  0
 51 52  1  0  0  0
 52 53  1  0  0  0
 53 54  2  0  0  0
 54 55  1  0  0  0
 55 56  2  0  0  0
 56 57  1  0  0  0
 57 58  2  0  0  0
 46 39  1  0  0  0
 39 40  2  0  0  0
 39 41  1  0  0  0
 41 42  1  0  0  0
 42 43  1  0  0  0
 43 44  1  0  0  0
 44 45  1  0  0  0
 45 35  1  0  0  0
 35 36  2  0  0  0
 35 37  1  0  0  0
 37  1  1  0  0  0
  1 63  1  0  0  0
 63 64  1  0  0  0
 64 65  1  0  0  0
 64 66  1  0  0  0
  1  2  1  0  0  0
  2  3  2  0  0  0
  2  4  1  0  0  0
  4  6  1  0  0  0
  6 32  1  0  0  0
 32 33  1  0  0  0
  6  7  1  0  0  0
  7  8  2  0  0  0
  7  9  1  0  0  0
  9 11  1  0  0  0
 11 28  1  0  0  0
 28 29  1  0  0  0
 29 30  1  0  0  0
 29 31  1  0  0  0
 11 12  1  0  0  0
 12 13  2  0  0  0
 12 14  1  0  0  0
 14 16  1  0  0  0
 16 21  1  0  0  0
 21 22  1  0  0  0
 22 23  2  0  0  0
 23 24  1  0  0  0
 24 25  2  0  0  0
 25 26  1  0  0  0
 26 27  2  0  0  0
 16 17  1  0  0  0
 17 18  1  0  0  0
 17 19  2  0  0  0
 58 53  1  0  0  0
 45 41  1  0  0  0
 27 22  1  0  0  0
 47 50  1  0  0  0
 37 38  1  0  0  0
  4  5  1  0  0  0
 33 34  1  0  0  0
  9 10  1  0  0  0
 14 15  1  0  0  0
 18 20  1  0  0  0
M  END
> <minimizedAffinity>
-7.35285

> <CNNscore>
0.1777001768

> <CNNaffinity>
6.6026716232

> <CNN_VS>
1.1732958555

> <CNNaffinity_variance>
0.8399294615

$$$$
[H]OC(=O)[C@@]([H])(N([H])C(=O)[C@@]([H])(N([H])C(=O)[C@@]([H])(N([H])C(=O)[C@@]([H])(N([H])C(=O)[C@@]1([H])N(C(=O)[C@@]([H])(N([H])C(=O)OC([H])([H])c2c([H])c([H])c([H])c([H])c2[H])[C@@]([H])(C([H])([H])[H])C([H])([H])C([H])([H])[H])C([H])([H])C([H])([H])C1([H])[H])C([H])([H])C([H])(C([H])([H])[H])C([H])([H])[H])C([H])([H])O[H])C([H])([H])C([H])(C([H])([H])[H])C([H])([H])[H])C([H])([H])c1c([H])c([H])c([H])c([H])c1[H]


 66 68  0  0  0  0  0  0  0  0999 V2000
   36.0349   14.9329  -11.6863 C   0  0  0  0  0  0  0  0  0  0  0  0
   37.4448   14.9459  -12.0100 C   0  0  0  0  0  0  0  0  0  0  0  0
   37.9044   14.7137  -13.1278 O   0  0  0  0  0  0  0  0  0  0  0  0
   38.2552   15.2407  -10.8903 N   0  0  0  0  0  0  0  0  0  0  0  0
   37.7031   15.5362   -9.9819 H   0  0  0  0  0  0  0  0  0  0  0  0
   39.6682   15.2832  -10.6835 C   0  0  0  0  0  0  0  0  0  0  0  0
   39.7700   15.4633   -9.1337 C   0  0  0  0  0  0  0  0  0  0  0  0
   39.2440   16.5031   -8.7720 O   0  0  0  0  0  0  0  0  0  0  0  0
   40.3814   14.5299   -8.2895 N   0  0  0  0  0  0  0  0  0  0  0  0
   40.1142   15.4496   -7.2634 H   0  0  0  0  0  0  0  0  0  0  0  0
   40.9508   13.6741   -7.4134 C   0  0  0  0  0  0  0  0  0  0  0  0
   40.0220   13.3481   -6.2396 C   0  0  0  0  0  0  0  0  0  0  0  0
   40.3088   12.3678   -5.5508 O   0  0  0  0  0  0  0  0  0  0  0  0
   38.9237   14.1792   -6.0191 N   0  0  0  0  0  0  0  0  0  0  0  0
   38.8139   15.0310   -6.6941 H   0  0  0  0  0  0  0  0  0  0  0  0
   37.8870   14.1250   -5.0425 C   0  0  0  0  0  0  0  0  0  0  0  0
   36.7737   13.3080   -5.4963 C   0  0  0  0  0  0  0  0  0  0  0  0
   35.8083   12.8009   -4.5858 O   0  0  0  0  0  0  0  0  0  0  0  0
   36.5561   12.9823   -6.7051 O   0  0  0  0  0  0  0  0  0  0  0  0
   36.1170   12.5091   -3.6615 H   0  0  0  0  0  0  0  0  0  0  0  0
   37.4587   15.5687   -4.7781 C   0  0  0  0  0  0  0  0  0  0  0  0
   38.4672   16.3452   -4.0710 C   0  0  0  0  0  0  0  0  0  0  0  0
   39.0157   16.1331   -2.8582 C   0  0  0  0  0  0  0  0  0  0  0  0
   40.0287   16.9570   -2.3514 C   0  0  0  0  0  0  0  0  0  0  0  0
   40.5509   18.0325   -3.0304 C   0  0  0  0  0  0  0  0  0  0  0  0
   39.9695   18.2410   -4.3020 C   0  0  0  0  0  0  0  0  0  0  0  0
   38.9912   17.4448   -4.7788 C   0  0  0  0  0  0  0  0  0  0  0  0
   42.2282   14.3324   -6.9089 C   0  0  0  0  0  0  0  0  0  0  0  0
   42.1215   15.4508   -5.9761 C   0  0  0  0  0  0  0  0  0  0  0  0
   42.5852   15.3639   -4.5875 C   0  0  0  0  0  0  0  0  0  0  0  0
   42.5428   16.7823   -6.6172 C   0  0  0  0  0  0  0  0  0  0  0  0
   40.1960   16.6492  -11.2168 C   0  0  0  0  0  0  0  0  0  0  0  0
   40.3814   16.5393  -12.5757 O   0  0  0  0  0  0  0  0  0  0  0  0
   41.1689   15.9562  -12.7136 H   0  0  0  0  0  0  0  0  0  0  0  0
   35.1354   15.9505   -9.6976 C   0  0  0  0  0  0  0  0  0  0  0  0
   35.7989   14.8637   -9.2282 O   0  0  0  0  0  0  0  0  0  0  0  0
   35.2980   16.0095  -11.1063 N   0  0  0  0  0  0  0  0  0  0  0  0
   34.9001   16.7666  -11.6510 H   0  0  0  0  0  0  0  0  0  0  0  0
   32.2948   15.5523   -7.7550 C   0  0  0  0  0  0  0  0  0  0  0  0
   31.8926   14.7674   -8.6374 O   0  0  0  0  0  0  0  0  0  0  0  0
   33.3742   16.4372   -7.9321 N   0  0  0  0  0  0  0  0  0  0  0  0
   33.4676   17.6395   -6.9864 C   0  0  0  0  0  0  0  0  0  0  0  0
   34.8201   17.3874   -6.4210 C   0  0  0  0  0  0  0  0  0  0  0  0
   35.6123   16.8117   -7.5411 C   0  0  0  0  0  0  0  0  0  0  0  0
   34.4978   16.6556   -8.6920 C   0  0  0  0  0  0  0  0  0  0  0  0
   31.5487   15.5180   -6.4459 C   0  0  0  0  0  0  0  0  0  0  0  0
   32.2783   15.7703   -5.2599 N   0  0  0  0  0  0  0  0  0  0  0  0
   33.1068   14.7571   -4.6283 C   0  0  0  0  0  0  0  0  0  0  0  0
   33.2149   13.6864   -5.2166 O   0  0  0  0  0  0  0  0  0  0  0  0
   32.2515   16.6878   -4.7681 H   0  0  0  0  0  0  0  0  0  0  0  0
   33.7587   14.9298   -3.4406 O   0  0  0  0  0  0  0  0  0  0  0  0
   33.4905   15.9471   -2.5386 C   0  0  0  0  0  0  0  0  0  0  0  0
   34.1596   17.2338   -2.7063 C   0  0  0  0  0  0  0  0  0  0  0  0
   35.4551   17.4255   -2.3695 C   0  0  0  0  0  0  0  0  0  0  0  0
   36.0808   18.6226   -2.4878 C   0  0  0  0  0  0  0  0  0  0  0  0
   35.3793   19.7225   -2.9812 C   0  0  0  0  0  0  0  0  0  0  0  0
   34.0610   19.5458   -3.3302 C   0  0  0  0  0  0  0  0  0  0  0  0
   33.4525   18.3419   -3.1973 C   0  0  0  0  0  0  0  0  0  0  0  0
   30.3324   16.3840   -6.5158 C   0  0  0  0  0  0  0  0  0  0  0  0
   29.0223   15.7055   -6.5999 C   0  0  0  0  0  0  0  0  0  0  0  0
   30.0607   18.8095   -6.0693 C   0  0  0  0  0  0  0  0  0  0  0  0
   30.3443   17.4283   -5.4449 C   0  0  0  0  0  0  0  0  0  0  0  0
   35.3593   14.5993  -13.0740 C   0  0  0  0  0  0  0  0  0  0  0  0
   34.6133   13.3229  -13.0786 C   0  0  0  0  0  0  0  0  0  0  0  0
   35.3440   12.0479  -13.1553 C   0  0  0  0  0  0  0  0  0  0  0  0
   33.7161   13.3981  -14.3391 C   0  0  0  0  0  0  0  0  0  0  0  0
 61 62  1  0  0  0
 62 59  1  0  0  0
 59 60  1  0  0  0
 59 46  1  0  0  0
 46 47  1  0  0  0
 47 48  1  0  0  0
 48 49  2  0  0  0
 48 51  1  0  0  0
 51 52  1  0  0  0
 52 53  1  0  0  0
 53 54  2  0  0  0
 54 55  1  0  0  0
 55 56  2  0  0  0
 56 57  1  0  0  0
 57 58  2  0  0  0
 46 39  1  0  0  0
 39 40  2  0  0  0
 39 41  1  0  0  0
 41 42  1  0  0  0
 42 43  1  0  0  0
 43 44  1  0  0  0
 44 45  1  0  0  0
 45 35  1  0  0  0
 35 36  2  0  0  0
 35 37  1  0  0  0
 37  1  1  0  0  0
  1 63  1  0  0  0
 63 64  1  0  0  0
 64 65  1  0  0  0
 64 66  1  0  0  0
  1  2  1  0  0  0
  2  3  2  0  0  0
  2  4  1  0  0  0
  4  6  1  0  0  0
  6 32  1  0  0  0
 32 33  1  0  0  0
  6  7  1  0  0  0
  7  8  2  0  0  0
  7  9  1  0  0  0
  9 11  1  0  0  0
 11 28  1  0  0  0
 28 29  1  0  0  0
 29 30  1  0  0  0
 29 31  1  0  0  0
 11 12  1  0  0  0
 12 13  2  0  0  0
 12 14  1  0  0  0
 14 16  1  0  0  0
 16 21  1  0  0  0
 21 22  1  0  0  0
 22 23  2  0  0  0
 23 24  1  0  0  0
 24 25  2  0  0  0
 25 26  1  0  0  0
 26 27  2  0  0  0
 16 17  1  0  0  0
 17 18  1  0  0  0
 17 19  2  0  0  0
 58 53  1  0  0  0
 45 41  1  0  0  0
 27 22  1  0  0  0
 47 50  1  0  0  0
 37 38  1  0  0  0
  4  5  1  0  0  0
 33 34  1  0  0  0
  9 10  1  0  0  0
 14 15  1  0  0  0
 18 20  1  0  0  0
M  END
> <minimizedAffinity>
-6.84755

> <CNNscore>
0.1549617797

> <CNNaffinity>
7.0301294327

> <CNN_VS>
1.0894013643

> <CNNaffinity_variance>
1.0272182226

$$$$
[H]OC(=O)[C@@]([H])(N([H])C(=O)[C@@]([H])(N([H])C(=O)[C@@]([H])(N([H])C(=O)[C@@]([H])(N([H])C(=O)[C@@]1([H])N(C(=O)[C@@]([H])(N([H])C(=O)OC([H])([H])c2c([H])c([H])c([H])c([H])c2[H])[C@@]([H])(C([H])([H])[H])C([H])([H])C([H])([H])[H])C([H])([H])C([H])([H])C1([H])[H])C([H])([H])C([H])(C([H])([H])[H])C([H])([H])[H])C([H])([H])O[H])C([H])([H])C([H])(C([H])([H])[H])C([H])([H])[H])C([H])([H])c1c([H])c([H])c([H])c([H])c1[H]


 66 68  0  0  0  0  0  0  0  0999 V2000
   38.5231   15.8308  -10.9130 C   0  0  0  0  0  0  0  0  0  0  0  0
   39.8955   16.2550  -11.0855 C   0  0  0  0  0  0  0  0  0  0  0  0
   40.3615   16.6931  -12.1369 O   0  0  0  0  0  0  0  0  0  0  0  0
   40.6634   16.0971   -9.9096 N   0  0  0  0  0  0  0  0  0  0  0  0
   40.0889   15.7998   -9.0158 H   0  0  0  0  0  0  0  0  0  0  0  0
   42.0470   16.2844   -9.6067 C   0  0  0  0  0  0  0  0  0  0  0  0
   42.7242   15.1470  -10.4388 C   0  0  0  0  0  0  0  0  0  0  0  0
   42.7138   14.0876   -9.8336 O   0  0  0  0  0  0  0  0  0  0  0  0
   43.2562   15.3425  -11.7180 N   0  0  0  0  0  0  0  0  0  0  0  0
   43.6636   14.0021  -11.6318 H   0  0  0  0  0  0  0  0  0  0  0  0
   43.7868   15.4542  -12.9551 C   0  0  0  0  0  0  0  0  0  0  0  0
   43.7665   14.1231  -13.7133 C   0  0  0  0  0  0  0  0  0  0  0  0
   44.5860   13.2689  -13.3721 O   0  0  0  0  0  0  0  0  0  0  0  0
   42.8238   13.9582  -14.7280 N   0  0  0  0  0  0  0  0  0  0  0  0
   42.1399   14.7928  -14.8981 H   0  0  0  0  0  0  0  0  0  0  0  0
   42.5755   12.8662  -15.6097 C   0  0  0  0  0  0  0  0  0  0  0  0
   43.7757   12.4901  -16.3383 C   0  0  0  0  0  0  0  0  0  0  0  0
   44.7481   13.4560  -16.7118 O   0  0  0  0  0  0  0  0  0  0  0  0
   44.0683   11.3063  -16.6958 O   0  0  0  0  0  0  0  0  0  0  0  0
   44.4325   14.3822  -16.9897 H   0  0  0  0  0  0  0  0  0  0  0  0
   41.4569   13.3105  -16.5526 C   0  0  0  0  0  0  0  0  0  0  0  0
   40.1782   12.6770  -16.2632 C   0  0  0  0  0  0  0  0  0  0  0  0
   39.3715   12.8270  -15.1940 C   0  0  0  0  0  0  0  0  0  0  0  0
   38.1337   12.1773  -15.1057 C   0  0  0  0  0  0  0  0  0  0  0  0
   37.6341   11.3481  -16.0821 C   0  0  0  0  0  0  0  0  0  0  0  0
   38.4884   11.2029  -17.1990 C   0  0  0  0  0  0  0  0  0  0  0  0
   39.6805   11.8291  -17.2721 C   0  0  0  0  0  0  0  0  0  0  0  0
   45.2189   15.9441  -12.7865 C   0  0  0  0  0  0  0  0  0  0  0  0
   45.5595   17.2896  -13.2403 C   0  0  0  0  0  0  0  0  0  0  0  0
   44.5610   18.3579  -13.3532 C   0  0  0  0  0  0  0  0  0  0  0  0
   46.8536   17.8088  -12.5945 C   0  0  0  0  0  0  0  0  0  0  0  0
   42.2900   15.8187   -8.1393 C   0  0  0  0  0  0  0  0  0  0  0  0
   42.4855   16.9350   -7.3593 O   0  0  0  0  0  0  0  0  0  0  0  0
   43.3724   17.3031   -7.5988 H   0  0  0  0  0  0  0  0  0  0  0  0
   37.1229   16.6394   -9.1284 C   0  0  0  0  0  0  0  0  0  0  0  0
   38.0173   15.8390   -8.4950 O   0  0  0  0  0  0  0  0  0  0  0  0
   37.4330   16.6615  -10.5132 N   0  0  0  0  0  0  0  0  0  0  0  0
   36.8976   17.2259  -11.1636 H   0  0  0  0  0  0  0  0  0  0  0  0
   33.7328   16.2449   -8.5338 C   0  0  0  0  0  0  0  0  0  0  0  0
   33.6622   15.7723   -9.6863 O   0  0  0  0  0  0  0  0  0  0  0  0
   34.8440   16.9608   -8.0518 N   0  0  0  0  0  0  0  0  0  0  0  0
   34.6295   17.8671   -6.8348 C   0  0  0  0  0  0  0  0  0  0  0  0
   35.6391   17.2715   -5.9191 C   0  0  0  0  0  0  0  0  0  0  0  0
   36.7709   16.8645   -6.7949 C   0  0  0  0  0  0  0  0  0  0  0  0
   36.1850   17.1731   -8.2621 C   0  0  0  0  0  0  0  0  0  0  0  0
   32.5357   16.0151   -7.6477 C   0  0  0  0  0  0  0  0  0  0  0  0
   31.2812   16.4988   -8.0890 N   0  0  0  0  0  0  0  0  0  0  0  0
   30.4656   17.3903   -7.2816 C   0  0  0  0  0  0  0  0  0  0  0  0
   30.9513   17.7773   -6.2239 O   0  0  0  0  0  0  0  0  0  0  0  0
   30.8678   16.2333   -9.0072 H   0  0  0  0  0  0  0  0  0  0  0  0
   29.2144   17.8127   -7.6303 O   0  0  0  0  0  0  0  0  0  0  0  0
   28.0374   17.2441   -7.1702 C   0  0  0  0  0  0  0  0  0  0  0  0
   27.7985   15.8240   -7.4101 C   0  0  0  0  0  0  0  0  0  0  0  0
   27.6919   15.3080   -8.6555 C   0  0  0  0  0  0  0  0  0  0  0  0
   27.4368   13.9978   -8.8940 C   0  0  0  0  0  0  0  0  0  0  0  0
   27.2768   13.1194   -7.8225 C   0  0  0  0  0  0  0  0  0  0  0  0
   27.3834   13.6263   -6.5487 C   0  0  0  0  0  0  0  0  0  0  0  0
   27.6319   14.9410   -6.3323 C   0  0  0  0  0  0  0  0  0  0  0  0
   32.4428   14.5747   -7.2594 C   0  0  0  0  0  0  0  0  0  0  0  0
   32.7392   14.2323   -5.8528 C   0  0  0  0  0  0  0  0  0  0  0  0
   30.8928   12.6647   -6.9336 C   0  0  0  0  0  0  0  0  0  0  0  0
   31.1524   13.9695   -7.7135 C   0  0  0  0  0  0  0  0  0  0  0  0
   38.1598   15.2334  -12.3288 C   0  0  0  0  0  0  0  0  0  0  0  0
   36.7313   14.8819  -12.4752 C   0  0  0  0  0  0  0  0  0  0  0  0
   36.2421   13.5845  -11.9826 C   0  0  0  0  0  0  0  0  0  0  0  0
   36.4776   14.9022  -14.0031 C   0  0  0  0  0  0  0  0  0  0  0  0
 61 62  1  0  0  0
 62 59  1  0  0  0
 59 60  1  0  0  0
 59 46  1  0  0  0
 46 47  1  0  0  0
 47 48  1  0  0  0
 48 49  2  0  0  0
 48 51  1  0  0  0
 51 52  1  0  0  0
 52 53  1  0  0  0
 53 54  2  0  0  0
 54 55  1  0  0  0
 55 56  2  0  0  0
 56 57  1  0  0  0
 57 58  2  0  0  0
 46 39  1  0  0  0
 39 40  2  0  0  0
 39 41  1  0  0  0
 41 42  1  0  0  0
 42 43  1  0  0  0
 43 44  1  0  0  0
 44 45  1  0  0  0
 45 35  1  0  0  0
 35 36  2  0  0  0
 35 37  1  0  0  0
 37  1  1  0  0  0
  1 63  1  0  0  0
 63 64  1  0  0  0
 64 65  1  0  0  0
 64 66  1  0  0  0
  1  2  1  0  0  0
  2  3  2  0  0  0
  2  4  1  0  0  0
  4  6  1  0  0  0
  6 32  1  0  0  0
 32 33  1  0  0  0
  6  7  1  0  0  0
  7  8  2  0  0  0
  7  9  1  0  0  0
  9 11  1  0  0  0
 11 28  1  0  0  0
 28 29  1  0  0  0
 29 30  1  0  0  0
 29 31  1  0  0  0
 11 12  1  0  0  0
 12 13  2  0  0  0
 12 14  1  0  0  0
 14 16  1  0  0  0
 16 21  1  0  0  0
 21 22  1  0  0  0
 22 23  2  0  0  0
 23 24  1  0  0  0
 24 25  2  0  0  0
 25 26  1  0  0  0
 26 27  2  0  0  0
 16 17  1  0  0  0
 17 18  1  0  0  0
 17 19  2  0  0  0
 58 53  1  0  0  0
 45 41  1  0  0  0
 27 22  1  0  0  0
 47 50  1  0  0  0
 37 38  1  0  0  0
  4  5  1  0  0  0
 33 34  1  0  0  0
  9 10  1  0  0  0
 14 15  1  0  0  0
 18 20  1  0  0  0
M  END
> <minimizedAffinity>
-8.24074

> <CNNscore>
0.1041929945

> <CNNaffinity>
6.7553396225

> <CNN_VS>
0.7038590908

> <CNNaffinity_variance>
0.7289925218

$$$$
[H]OC(=O)[C@@]([H])(N([H])C(=O)[C@@]([H])(N([H])C(=O)[C@@]([H])(N([H])C(=O)[C@@]([H])(N([H])C(=O)[C@@]1([H])N(C(=O)[C@@]([H])(N([H])C(=O)OC([H])([H])c2c([H])c([H])c([H])c([H])c2[H])[C@@]([H])(C([H])([H])[H])C([H])([H])C([H])([H])[H])C([H])([H])C([H])([H])C1([H])[H])C([H])([H])C([H])(C([H])([H])[H])C([H])([H])[H])C([H])([H])O[H])C([H])([H])C([H])(C([H])([H])[H])C([H])([H])[H])C([H])([H])c1c([H])c([H])c([H])c([H])c1[H]


 66 68  0  0  0  0  0  0  0  0999 V2000
   36.6212   13.6049  -13.9402 C   0  0  0  0  0  0  0  0  0  0  0  0
   37.6857   12.9254  -14.6459 C   0  0  0  0  0  0  0  0  0  0  0  0
   37.5311   11.9179  -15.3356 O   0  0  0  0  0  0  0  0  0  0  0  0
   38.9445   13.5360  -14.4460 N   0  0  0  0  0  0  0  0  0  0  0  0
   38.9150   14.4929  -13.8975 H   0  0  0  0  0  0  0  0  0  0  0  0
   40.2745   13.2000  -14.8454 C   0  0  0  0  0  0  0  0  0  0  0  0
   41.1335   14.2089  -14.0154 C   0  0  0  0  0  0  0  0  0  0  0  0
   40.5260   15.2473  -13.8124 O   0  0  0  0  0  0  0  0  0  0  0  0
   42.4278   13.9276  -13.5643 N   0  0  0  0  0  0  0  0  0  0  0  0
   42.4254   15.2452  -13.0807 H   0  0  0  0  0  0  0  0  0  0  0  0
   43.6774   13.7264  -13.0931 C   0  0  0  0  0  0  0  0  0  0  0  0
   43.7703   13.9694  -11.5834 C   0  0  0  0  0  0  0  0  0  0  0  0
   44.3865   13.1368  -10.9165 O   0  0  0  0  0  0  0  0  0  0  0  0
   43.1650   15.1131  -11.0626 N   0  0  0  0  0  0  0  0  0  0  0  0
   42.6801   15.7779  -11.7811 H   0  0  0  0  0  0  0  0  0  0  0  0
   43.0621   15.5939   -9.7248 C   0  0  0  0  0  0  0  0  0  0  0  0
   44.3704   15.8958   -9.1682 C   0  0  0  0  0  0  0  0  0  0  0  0
   45.1539   14.8946   -8.5342 O   0  0  0  0  0  0  0  0  0  0  0  0
   44.9266   17.0379   -9.1959 O   0  0  0  0  0  0  0  0  0  0  0  0
   44.6810   14.1846   -7.9802 H   0  0  0  0  0  0  0  0  0  0  0  0
   42.3428   14.5085   -8.9236 C   0  0  0  0  0  0  0  0  0  0  0  0
   41.3931   15.0433   -7.9582 C   0  0  0  0  0  0  0  0  0  0  0  0
   41.4410   16.1941   -7.2581 C   0  0  0  0  0  0  0  0  0  0  0  0
   40.3992   16.5848   -6.4072 C   0  0  0  0  0  0  0  0  0  0  0  0
   39.2531   15.8502   -6.2145 C   0  0  0  0  0  0  0  0  0  0  0  0
   39.2144   14.6482   -6.9575 C   0  0  0  0  0  0  0  0  0  0  0  0
   40.2250   14.2787   -7.7704 C   0  0  0  0  0  0  0  0  0  0  0  0
   44.5979   14.6830  -13.8396 C   0  0  0  0  0  0  0  0  0  0  0  0
   45.8085   14.1528  -14.4605 C   0  0  0  0  0  0  0  0  0  0  0  0
   47.1379   14.7129  -14.1963 C   0  0  0  0  0  0  0  0  0  0  0  0
   45.8428   12.6167  -14.4447 C   0  0  0  0  0  0  0  0  0  0  0  0
   40.4838   13.7014  -16.3062 C   0  0  0  0  0  0  0  0  0  0  0  0
   40.0252   12.7299  -17.1656 O   0  0  0  0  0  0  0  0  0  0  0  0
   40.6675   11.9783  -17.1212 H   0  0  0  0  0  0  0  0  0  0  0  0
   37.1744   15.2518  -12.2725 C   0  0  0  0  0  0  0  0  0  0  0  0
   37.6409   14.0924  -11.7435 O   0  0  0  0  0  0  0  0  0  0  0  0
   36.6179   14.9780  -13.5491 N   0  0  0  0  0  0  0  0  0  0  0  0
   36.2363   15.7187  -14.1269 H   0  0  0  0  0  0  0  0  0  0  0  0
   35.5529   16.6042   -9.5259 C   0  0  0  0  0  0  0  0  0  0  0  0
   34.5427   15.9806   -9.9097 O   0  0  0  0  0  0  0  0  0  0  0  0
   36.6912   16.8122  -10.3263 N   0  0  0  0  0  0  0  0  0  0  0  0
   37.6345   17.9544   -9.9338 C   0  0  0  0  0  0  0  0  0  0  0  0
   38.8905   17.1744   -9.7706 C   0  0  0  0  0  0  0  0  0  0  0  0
   38.8307   16.1128  -10.8113 C   0  0  0  0  0  0  0  0  0  0  0  0
   37.3592   16.3310  -11.4262 C   0  0  0  0  0  0  0  0  0  0  0  0
   35.5024   17.1502   -8.1221 C   0  0  0  0  0  0  0  0  0  0  0  0
   35.0432   18.4766   -7.9425 N   0  0  0  0  0  0  0  0  0  0  0  0
   35.8148   19.4737   -7.2198 C   0  0  0  0  0  0  0  0  0  0  0  0
   36.9309   19.1381   -6.8377 O   0  0  0  0  0  0  0  0  0  0  0  0
   34.1246   18.8072   -8.3048 H   0  0  0  0  0  0  0  0  0  0  0  0
   35.3739   20.7379   -6.9499 O   0  0  0  0  0  0  0  0  0  0  0  0
   35.5254   21.8206   -7.8014 C   0  0  0  0  0  0  0  0  0  0  0  0
   36.0064   23.0863   -7.2554 C   0  0  0  0  0  0  0  0  0  0  0  0
   36.2170   23.2705   -5.9324 C   0  0  0  0  0  0  0  0  0  0  0  0
   36.6312   24.4497   -5.4066 C   0  0  0  0  0  0  0  0  0  0  0  0
   36.8618   25.5379   -6.2481 C   0  0  0  0  0  0  0  0  0  0  0  0
   36.6541   25.3684   -7.5968 C   0  0  0  0  0  0  0  0  0  0  0  0
   36.2331   24.1828   -8.1010 C   0  0  0  0  0  0  0  0  0  0  0  0
   34.7700   16.2081   -7.2219 C   0  0  0  0  0  0  0  0  0  0  0  0
   35.5289   15.6152   -6.1011 C   0  0  0  0  0  0  0  0  0  0  0  0
   32.3180   15.8393   -7.1315 C   0  0  0  0  0  0  0  0  0  0  0  0
   33.4724   16.7922   -6.7607 C   0  0  0  0  0  0  0  0  0  0  0  0
   35.3769   13.3865  -14.8874 C   0  0  0  0  0  0  0  0  0  0  0  0
   34.3297   12.5232  -14.3011 C   0  0  0  0  0  0  0  0  0  0  0  0
   33.6196   11.5536  -15.1502 C   0  0  0  0  0  0  0  0  0  0  0  0
   33.2631   13.5103  -13.7650 C   0  0  0  0  0  0  0  0  0  0  0  0
 61 62  1  0  0  0
 62 59  1  0  0  0
 59 60  1  0  0  0
 59 46  1  0  0  0
 46 47  1  0  0  0
 47 48  1  0  0  0
 48 49  2  0  0  0
 48 51  1  0  0  0
 51 52  1  0  0  0
 52 53  1  0  0  0
 53 54  2  0  0  0
 54 55  1  0  0  0
 55 56  2  0  0  0
 56 57  1  0  0  0
 57 58  2  0  0  0
 46 39  1  0  0  0
 39 40  2  0  0  0
 39 41  1  0  0  0
 41 42  1  0  0  0
 42 43  1  0  0  0
 43 44  1  0  0  0
 44 45  1  0  0  0
 45 35  1  0  0  0
 35 36  2  0  0  0
 35 37  1  0  0  0
 37  1  1  0  0  0
  1 63  1  0  0  0
 63 64  1  0  0  0
 64 65  1  0  0  0
 64 66  1  0  0  0
  1  2  1  0  0  0
  2  3  2  0  0  0
  2  4  1  0  0  0
  4  6  1  0  0  0
  6 32  1  0  0  0
 32 33  1  0  0  0
  6  7  1  0  0  0
  7  8  2  0  0  0
  7  9  1  0  0  0
  9 11  1  0  0  0
 11 28  1  0  0  0
 28 29  1  0  0  0
 29 30  1  0  0  0
 29 31  1  0  0  0
 11 12  1  0  0  0
 12 13  2  0  0  0
 12 14  1  0  0  0
 14 16  1  0  0  0
 16 21  1  0  0  0
 21 22  1  0  0  0
 22 23  2  0  0  0
 23 24  1  0  0  0
 24 25  2  0  0  0
 25 26  1  0  0  0
 26 27  2  0  0  0
 16 17  1  0  0  0
 17 18  1  0  0  0
 17 19  2  0  0  0
 58 53  1  0  0  0
 45 41  1  0  0  0
 27 22  1  0  0  0
 47 50  1  0  0  0
 37 38  1  0  0  0
  4  5  1  0  0  0
 33 34  1  0  0  0
  9 10  1  0  0  0
 14 15  1  0  0  0
 18 20  1  0  0  0
M  END
> <minimizedAffinity>
-7.33169

> <CNNscore>
0.1032902822

> <CNNaffinity>
7.0269470215

> <CNN_VS>
0.7258153558

> <CNNaffinity_variance>
0.7383636236

$$$$
[H]OC(=O)[C@@]([H])(N([H])C(=O)[C@@]([H])(N([H])C(=O)[C@@]([H])(N([H])C(=O)[C@@]([H])(N([H])C(=O)[C@@]1([H])N(C(=O)[C@@]([H])(N([H])C(=O)OC([H])([H])c2c([H])c([H])c([H])c([H])c2[H])[C@@]([H])(C([H])([H])[H])C([H])([H])C([H])([H])[H])C([H])([H])C([H])([H])C1([H])[H])C([H])([H])C([H])(C([H])([H])[H])C([H])([H])[H])C([H])([H])O[H])C([H])([H])C([H])(C([H])([H])[H])C([H])([H])[H])C([H])([H])c1c([H])c([H])c([H])c([H])c1[H]


 66 68  0  0  0  0  0  0  0  0999 V2000
   37.4630   15.1564  -12.3460 C   0  0  0  0  0  0  0  0  0  0  0  0
   38.8381   15.1484  -12.7955 C   0  0  0  0  0  0  0  0  0  0  0  0
   39.1929   14.8887  -13.9450 O   0  0  0  0  0  0  0  0  0  0  0  0
   39.7486   15.4576  -11.7598 N   0  0  0  0  0  0  0  0  0  0  0  0
   39.2832   15.7772  -10.8119 H   0  0  0  0  0  0  0  0  0  0  0  0
   41.1749   15.4898  -11.6821 C   0  0  0  0  0  0  0  0  0  0  0  0
   41.4148   15.9981  -10.2230 C   0  0  0  0  0  0  0  0  0  0  0  0
   40.4477   16.6111   -9.8017 O   0  0  0  0  0  0  0  0  0  0  0  0
   42.5934   15.7567   -9.5087 N   0  0  0  0  0  0  0  0  0  0  0  0
   42.0154   16.5495   -8.5050 H   0  0  0  0  0  0  0  0  0  0  0  0
   43.6985   15.5605   -8.7574 C   0  0  0  0  0  0  0  0  0  0  0  0
   43.3757   14.8775   -7.4246 C   0  0  0  0  0  0  0  0  0  0  0  0
   43.8507   15.3806   -6.4053 O   0  0  0  0  0  0  0  0  0  0  0  0
   42.5636   13.7437   -7.4460 N   0  0  0  0  0  0  0  0  0  0  0  0
   42.1892   13.4309   -8.4234 H   0  0  0  0  0  0  0  0  0  0  0  0
   42.1126   12.8924   -6.3956 C   0  0  0  0  0  0  0  0  0  0  0  0
   43.1039   11.8798   -6.0718 C   0  0  0  0  0  0  0  0  0  0  0  0
   43.0250   10.5679   -6.6110 O   0  0  0  0  0  0  0  0  0  0  0  0
   44.1043   12.0592   -5.3093 O   0  0  0  0  0  0  0  0  0  0  0  0
   42.1073   10.1475   -6.7366 H   0  0  0  0  0  0  0  0  0  0  0  0
   40.8003   12.2684   -6.8707 C   0  0  0  0  0  0  0  0  0  0  0  0
   39.6230   12.9965   -6.4192 C   0  0  0  0  0  0  0  0  0  0  0  0
   38.3686   12.9850   -6.9121 C   0  0  0  0  0  0  0  0  0  0  0  0
   37.3319   13.7097   -6.3104 C   0  0  0  0  0  0  0  0  0  0  0  0
   37.4917   14.4796   -5.1825 C   0  0  0  0  0  0  0  0  0  0  0  0
   38.8109   14.4795   -4.6742 C   0  0  0  0  0  0  0  0  0  0  0  0
   39.8030   13.7821   -5.2638 C   0  0  0  0  0  0  0  0  0  0  0  0
   44.3230   16.9279   -8.5124 C   0  0  0  0  0  0  0  0  0  0  0  0
   45.5678   17.2650   -9.1972 C   0  0  0  0  0  0  0  0  0  0  0  0
   45.5993   17.7314  -10.5874 C   0  0  0  0  0  0  0  0  0  0  0  0
   46.5082   18.0988   -8.3131 C   0  0  0  0  0  0  0  0  0  0  0  0
   41.6811   16.6862  -12.5431 C   0  0  0  0  0  0  0  0  0  0  0  0
   43.0296   16.5214  -12.7603 O   0  0  0  0  0  0  0  0  0  0  0  0
   43.4841   16.6927  -11.8981 H   0  0  0  0  0  0  0  0  0  0  0  0
   36.6899   16.1942  -10.3151 C   0  0  0  0  0  0  0  0  0  0  0  0
   37.3387   15.0845   -9.8798 O   0  0  0  0  0  0  0  0  0  0  0  0
   36.7891   16.2538  -11.7296 N   0  0  0  0  0  0  0  0  0  0  0  0
   36.3912   17.0256  -12.2532 H   0  0  0  0  0  0  0  0  0  0  0  0
   33.8414   15.9704   -8.3560 C   0  0  0  0  0  0  0  0  0  0  0  0
   33.3669   15.2536   -9.2602 O   0  0  0  0  0  0  0  0  0  0  0  0
   34.9907   16.7664   -8.5147 N   0  0  0  0  0  0  0  0  0  0  0  0
   35.1935   17.9228   -7.5298 C   0  0  0  0  0  0  0  0  0  0  0  0
   36.5242   17.5376   -6.9882 C   0  0  0  0  0  0  0  0  0  0  0  0
   37.2555   16.9363   -8.1358 C   0  0  0  0  0  0  0  0  0  0  0  0
   36.1225   16.9152   -9.2791 C   0  0  0  0  0  0  0  0  0  0  0  0
   33.1056   15.9538   -7.0408 C   0  0  0  0  0  0  0  0  0  0  0  0
   33.8443   15.6549   -5.8714 N   0  0  0  0  0  0  0  0  0  0  0  0
   33.5494   14.4988   -5.0417 C   0  0  0  0  0  0  0  0  0  0  0  0
   32.6768   13.7372   -5.4454 O   0  0  0  0  0  0  0  0  0  0  0  0
   34.6282   16.2516   -5.5340 H   0  0  0  0  0  0  0  0  0  0  0  0
   34.1791   14.2198   -3.8623 O   0  0  0  0  0  0  0  0  0  0  0  0
   34.2472   15.0879   -2.7843 C   0  0  0  0  0  0  0  0  0  0  0  0
   35.4551   15.8859   -2.5956 C   0  0  0  0  0  0  0  0  0  0  0  0
   35.6577   17.0564   -3.2416 C   0  0  0  0  0  0  0  0  0  0  0  0
   36.7883   17.7919   -3.1026 C   0  0  0  0  0  0  0  0  0  0  0  0
   37.8034   17.3446   -2.2571 C   0  0  0  0  0  0  0  0  0  0  0  0
   37.6141   16.1567   -1.5909 C   0  0  0  0  0  0  0  0  0  0  0  0
   36.4789   15.4333   -1.7494 C   0  0  0  0  0  0  0  0  0  0  0  0
   32.3211   17.2140   -6.8659 C   0  0  0  0  0  0  0  0  0  0  0  0
   31.0663   17.3424   -7.6357 C   0  0  0  0  0  0  0  0  0  0  0  0
   32.5379   18.9890   -5.1459 C   0  0  0  0  0  0  0  0  0  0  0  0
   32.1147   17.5315   -5.4188 C   0  0  0  0  0  0  0  0  0  0  0  0
   36.6626   14.7949  -13.6583 C   0  0  0  0  0  0  0  0  0  0  0  0
   36.4468   13.3437  -13.8403 C   0  0  0  0  0  0  0  0  0  0  0  0
   35.5786   12.8629  -14.9268 C   0  0  0  0  0  0  0  0  0  0  0  0
   35.8000   12.8745  -12.5132 C   0  0  0  0  0  0  0  0  0  0  0  0
 61 62  1  0  0  0
 62 59  1  0  0  0
 59 60  1  0  0  0
 59 46  1  0  0  0
 46 47  1  0  0  0
 47 48  1  0  0  0
 48 49  2  0  0  0
 48 51  1  0  0  0
 51 52  1  0  0  0
 52 53  1  0  0  0
 53 54  2  0  0  0
 54 55  1  0  0  0
 55 56  2  0  0  0
 56 57  1  0  0  0
 57 58  2  0  0  0
 46 39  1  0  0  0
 39 40  2  0  0  0
 39 41  1  0  0  0
 41 42  1  0  0  0
 42 43  1  0  0  0
 43 44  1  0  0  0
 44 45  1  0  0  0
 45 35  1  0  0  0
 35 36  2  0  0  0
 35 37  1  0  0  0
 37  1  1  0  0  0
  1 63  1  0  0  0
 63 64  1  0  0  0
 64 65  1  0  0  0
 64 66  1  0  0  0
  1  2  1  0  0  0
  2  3  2  0  0  0
  2  4  1  0  0  0
  4  6  1  0  0  0
  6 32  1  0  0  0
 32 33  1  0  0  0
  6  7  1  0  0  0
  7  8  2  0  0  0
  7  9  1  0  0  0
  9 11  1  0  0  0
 11 28  1  0  0  0
 28 29  1  0  0  0
 29 30  1  0  0  0
 29 31  1  0  0  0
 11 12  1  0  0  0
 12 13  2  0  0  0
 12 14  1  0  0  0
 14 16  1  0  0  0
 16 21  1  0  0  0
 21 22  1  0  0  0
 22 23  2  0  0  0
 23 24  1  0  0  0
 24 25  2  0  0  0
 25 26  1  0  0  0
 26 27  2  0  0  0
 16 17  1  0  0  0
 17 18  1  0  0  0
 17 19  2  0  0  0
 58 53  1  0  0  0
 45 41  1  0  0  0
 27 22  1  0  0  0
 47 50  1  0  0  0
 37 38  1  0  0  0
  4  5  1  0  0  0
 33 34  1  0  0  0
  9 10  1  0  0  0
 14 15  1  0  0  0
 18 20  1  0  0  0
M  END
> <minimizedAffinity>
-6.79064

> <CNNscore>
0.0958636180

> <CNNaffinity>
6.7938470840

> <CNN_VS>
0.6512827873

> <CNNaffinity_variance>
0.8575932384

$$$$
[H]OC(=O)[C@@]([H])(N([H])C(=O)[C@@]([H])(N([H])C(=O)[C@@]([H])(N([H])C(=O)[C@@]([H])(N([H])C(=O)[C@@]1([H])N(C(=O)[C@@]([H])(N([H])C(=O)OC([H])([H])c2c([H])c([H])c([H])c([H])c2[H])[C@@]([H])(C([H])([H])[H])C([H])([H])C([H])([H])[H])C([H])([H])C([H])([H])C1([H])[H])C([H])([H])C([H])(C([H])([H])[H])C([H])([H])[H])C([H])([H])O[H])C([H])([H])C([H])(C([H])([H])[H])C([H])([H])[H])C([H])([H])c1c([H])c([H])c([H])c([H])c1[H]


 66 68  0  0  0  0  0  0  0  0999 V2000
   38.8615   15.0466  -12.1255 C   0  0  0  0  0  0  0  0  0  0  0  0
   40.0543   15.8639  -12.0770 C   0  0  0  0  0  0  0  0  0  0  0  0
   40.4290   16.6028  -12.9870 O   0  0  0  0  0  0  0  0  0  0  0  0
   40.7662   15.7123  -10.8655 N   0  0  0  0  0  0  0  0  0  0  0  0
   40.2554   15.1047  -10.0992 H   0  0  0  0  0  0  0  0  0  0  0  0
   42.0127   16.2212  -10.3878 C   0  0  0  0  0  0  0  0  0  0  0  0
   43.0188   15.1164  -10.8480 C   0  0  0  0  0  0  0  0  0  0  0  0
   43.4335   15.3348  -11.9745 O   0  0  0  0  0  0  0  0  0  0  0  0
   43.3893   14.0314  -10.0459 N   0  0  0  0  0  0  0  0  0  0  0  0
   44.1281   13.6035  -11.1600 H   0  0  0  0  0  0  0  0  0  0  0  0
   43.7961   12.9614   -9.3291 C   0  0  0  0  0  0  0  0  0  0  0  0
   43.2457   12.9822   -7.8996 C   0  0  0  0  0  0  0  0  0  0  0  0
   43.7904   13.7430   -7.0982 O   0  0  0  0  0  0  0  0  0  0  0  0
   42.1653   12.1529   -7.5983 N   0  0  0  0  0  0  0  0  0  0  0  0
   41.7658   11.5551   -8.4206 H   0  0  0  0  0  0  0  0  0  0  0  0
   41.4597   11.9367   -6.3790 C   0  0  0  0  0  0  0  0  0  0  0  0
   40.3545   12.8696   -6.2339 C   0  0  0  0  0  0  0  0  0  0  0  0
   39.6948   13.0475   -4.9884 O   0  0  0  0  0  0  0  0  0  0  0  0
   39.8885   13.5956   -7.1668 O   0  0  0  0  0  0  0  0  0  0  0  0
   39.5655   12.2381   -4.3860 H   0  0  0  0  0  0  0  0  0  0  0  0
   42.4797   12.0877   -5.2502 C   0  0  0  0  0  0  0  0  0  0  0  0
   42.8440   10.8200   -4.6336 C   0  0  0  0  0  0  0  0  0  0  0  0
   43.9019   10.0218   -4.8791 C   0  0  0  0  0  0  0  0  0  0  0  0
   44.1326    8.8535   -4.1416 C   0  0  0  0  0  0  0  0  0  0  0  0
   43.3224    8.4235   -3.1173 C   0  0  0  0  0  0  0  0  0  0  0  0
   42.2193    9.2717   -2.8682 C   0  0  0  0  0  0  0  0  0  0  0  0
   42.0035   10.3919   -3.5873 C   0  0  0  0  0  0  0  0  0  0  0  0
   45.3187   12.9873   -9.3091 C   0  0  0  0  0  0  0  0  0  0  0  0
   46.0480   12.2312  -10.3234 C   0  0  0  0  0  0  0  0  0  0  0  0
   45.5920   10.9249  -10.8097 C   0  0  0  0  0  0  0  0  0  0  0  0
   46.5151   13.1213  -11.4855 C   0  0  0  0  0  0  0  0  0  0  0  0
   42.0353   16.0723   -8.8365 C   0  0  0  0  0  0  0  0  0  0  0  0
   40.7499   16.2234   -8.3699 O   0  0  0  0  0  0  0  0  0  0  0  0
   40.5157   17.1794   -8.4728 H   0  0  0  0  0  0  0  0  0  0  0  0
   37.3278   15.1364  -10.2710 C   0  0  0  0  0  0  0  0  0  0  0  0
   38.4551   14.6109   -9.7280 O   0  0  0  0  0  0  0  0  0  0  0  0
   37.5709   15.4178  -11.6406 N   0  0  0  0  0  0  0  0  0  0  0  0
   36.8597   15.8431  -12.2250 H   0  0  0  0  0  0  0  0  0  0  0  0
   36.9046   16.3699   -7.0614 C   0  0  0  0  0  0  0  0  0  0  0  0
   38.1439   16.2844   -6.9459 O   0  0  0  0  0  0  0  0  0  0  0  0
   36.1735   15.7527   -8.0930 N   0  0  0  0  0  0  0  0  0  0  0  0
   34.6727   15.5391   -7.8682 C   0  0  0  0  0  0  0  0  0  0  0  0
   34.1520   16.2830   -9.0464 C   0  0  0  0  0  0  0  0  0  0  0  0
   35.1415   16.0421  -10.1309 C   0  0  0  0  0  0  0  0  0  0  0  0
   36.2932   15.2265   -9.3564 C   0  0  0  0  0  0  0  0  0  0  0  0
   36.1948   17.1857   -6.0116 C   0  0  0  0  0  0  0  0  0  0  0  0
   35.5769   18.3930   -6.4155 N   0  0  0  0  0  0  0  0  0  0  0  0
   36.3110   19.6428   -6.5213 C   0  0  0  0  0  0  0  0  0  0  0  0
   37.5203   19.5916   -6.3235 O   0  0  0  0  0  0  0  0  0  0  0  0
   34.5632   18.4561   -6.6452 H   0  0  0  0  0  0  0  0  0  0  0  0
   35.7390   20.8455   -6.8240 O   0  0  0  0  0  0  0  0  0  0  0  0
   35.6082   21.8989   -5.9331 C   0  0  0  0  0  0  0  0  0  0  0  0
   36.0588   23.2269   -6.3391 C   0  0  0  0  0  0  0  0  0  0  0  0
   36.3926   24.1834   -5.4435 C   0  0  0  0  0  0  0  0  0  0  0  0
   36.7805   25.4316   -5.8042 C   0  0  0  0  0  0  0  0  0  0  0  0
   36.8507   25.7692   -7.1557 C   0  0  0  0  0  0  0  0  0  0  0  0
   36.5161   24.8085   -8.0809 C   0  0  0  0  0  0  0  0  0  0  0  0
   36.1241   23.5687   -7.6985 C   0  0  0  0  0  0  0  0  0  0  0  0
   35.2387   16.3305   -5.2444 C   0  0  0  0  0  0  0  0  0  0  0  0
   35.8139   15.3693   -4.2805 C   0  0  0  0  0  0  0  0  0  0  0  0
   33.4573   16.3297   -3.5173 C   0  0  0  0  0  0  0  0  0  0  0  0
   34.1516   17.1493   -4.6238 C   0  0  0  0  0  0  0  0  0  0  0  0
   38.7100   14.7379  -13.6666 C   0  0  0  0  0  0  0  0  0  0  0  0
   39.0947   13.3590  -14.0356 C   0  0  0  0  0  0  0  0  0  0  0  0
   39.4793   13.0521  -15.4225 C   0  0  0  0  0  0  0  0  0  0  0  0
   37.8407   12.5053  -13.7224 C   0  0  0  0  0  0  0  0  0  0  0  0
 61 62  1  0  0  0
 62 59  1  0  0  0
 59 60  1  0  0  0
 59 46  1  0  0  0
 46 47  1  0  0  0
 47 48  1  0  0  0
 48 49  2  0  0  0
 48 51  1  0  0  0
 51 52  1  0  0  0
 52 53  1  0  0  0
 53 54  2  0  0  0
 54 55  1  0  0  0
 55 56  2  0  0  0
 56 57  1  0  0  0
 57 58  2  0  0  0
 46 39  1  0  0  0
 39 40  2  0  0  0
 39 41  1  0  0  0
 41 42  1  0  0  0
 42 43  1  0  0  0
 43 44  1  0  0  0
 44 45  1  0  0  0
 45 35  1  0  0  0
 35 36  2  0  0  0
 35 37  1  0  0  0
 37  1  1  0  0  0
  1 63  1  0  0  0
 63 64  1  0  0  0
 64 65  1  0  0  0
 64 66  1  0  0  0
  1  2  1  0  0  0
  2  3  2  0  0  0
  2  4  1  0  0  0
  4  6  1  0  0  0
  6 32  1  0  0  0
 32 33  1  0  0  0
  6  7  1  0  0  0
  7  8  2  0  0  0
  7  9  1  0  0  0
  9 11  1  0  0  0
 11 28  1  0  0  0
 28 29  1  0  0  0
 29 30  1  0  0  0
 29 31  1  0  0  0
 11 12  1  0  0  0
 12 13  2  0  0  0
 12 14  1  0  0  0
 14 16  1  0  0  0
 16 21  1  0  0  0
 21 22  1  0  0  0
 22 23  2  0  0  0
 23 24  1  0  0  0
 24 25  2  0  0  0
 25 26  1  0  0  0
 26 27  2  0  0  0
 16 17  1  0  0  0
 17 18  1  0  0  0
 17 19  2  0  0  0
 58 53  1  0  0  0
 45 41  1  0  0  0
 27 22  1  0  0  0
 47 50  1  0  0  0
 37 38  1  0  0  0
  4  5  1  0  0  0
 33 34  1  0  0  0
  9 10  1  0  0  0
 14 15  1  0  0  0
 18 20  1  0  0  0
M  END
> <minimizedAffinity>
-7.67709

> <CNNscore>
0.0854746774

> <CNNaffinity>
6.1563606262

> <CNN_VS>
0.5262129307

> <CNNaffinity_variance>
0.9872363806

$$$$
[H]c1c([H])c([H])c(-c2nc(C3([H])C([H])([H])C([H])([H])N(C(=O)c4c([H])c(OC([H])([H])[H])c(OC([H])([H])[H])c(OC([H])([H])[H])c4[H])C([H])([H])C3([H])[H])n([H])c2-c2c([H])c([H])c([H])c([H])c2[H])c([H])c1[H]


 38 42  0  0  0  0  0  0  0  0999 V2000
   44.2220   16.7397   -9.1474 C   0  0  0  0  0  0  0  0  0  0  0  0
   43.3899   17.0884   -8.1756 O   0  0  0  0  0  0  0  0  0  0  0  0
   43.6849   15.8257  -10.0357 N   0  0  0  0  0  0  0  0  0  0  0  0
   44.2859   15.2733  -11.1985 C   0  0  0  0  0  0  0  0  0  0  0  0
   43.1939   14.5545  -12.0075 C   0  0  0  0  0  0  0  0  0  0  0  0
   42.0234   15.4853  -12.2381 C   0  0  0  0  0  0  0  0  0  0  0  0
   41.3803   15.7387  -10.8622 C   0  0  0  0  0  0  0  0  0  0  0  0
   42.3116   15.3245   -9.7605 C   0  0  0  0  0  0  0  0  0  0  0  0
   47.6067   18.0826  -10.0056 C   0  0  0  0  0  0  0  0  0  0  0  0
   46.3868   17.4077  -10.1412 C   0  0  0  0  0  0  0  0  0  0  0  0
   45.5129   17.3776   -9.0897 C   0  0  0  0  0  0  0  0  0  0  0  0
   45.8797   18.0279   -7.9126 C   0  0  0  0  0  0  0  0  0  0  0  0
   47.0728   18.6857   -7.7855 C   0  0  0  0  0  0  0  0  0  0  0  0
   47.9370   18.7081   -8.8458 C   0  0  0  0  0  0  0  0  0  0  0  0
   48.0607   18.4543  -12.3823 C   0  0  0  0  0  0  0  0  0  0  0  0
   48.4713   18.1000  -11.0783 O   0  0  0  0  0  0  0  0  0  0  0  0
   47.4022   19.3251   -6.5907 O   0  0  0  0  0  0  0  0  0  0  0  0
   47.8084   18.5405   -5.5002 C   0  0  0  0  0  0  0  0  0  0  0  0
   49.1473   19.3573   -8.7620 O   0  0  0  0  0  0  0  0  0  0  0  0
   49.3668   20.7097   -9.0559 C   0  0  0  0  0  0  0  0  0  0  0  0
   41.0483   14.7804  -13.1094 C   0  0  0  0  0  0  0  0  0  0  0  0
   41.2383   14.1248  -14.2495 N   0  0  0  0  0  0  0  0  0  0  0  0
   40.0679   13.6338  -14.6979 C   0  0  0  0  0  0  0  0  0  0  0  0
   39.0987   14.0019  -13.7905 C   0  0  0  0  0  0  0  0  0  0  0  0
   39.7379   14.6992  -12.8381 N   0  0  0  0  0  0  0  0  0  0  0  0
   39.2640   15.1268  -11.9870 H   0  0  0  0  0  0  0  0  0  0  0  0
   37.6885   13.7094  -13.8327 C   0  0  0  0  0  0  0  0  0  0  0  0
   37.1671   12.6886  -13.0416 C   0  0  0  0  0  0  0  0  0  0  0  0
   35.8332   12.3544  -13.0326 C   0  0  0  0  0  0  0  0  0  0  0  0
   34.9826   13.0728  -13.8509 C   0  0  0  0  0  0  0  0  0  0  0  0
   35.5034   14.0865  -14.6354 C   0  0  0  0  0  0  0  0  0  0  0  0
   36.8396   14.4266  -14.6494 C   0  0  0  0  0  0  0  0  0  0  0  0
   39.8750   12.8625  -15.9186 C   0  0  0  0  0  0  0  0  0  0  0  0
   40.4695   13.1362  -17.1261 C   0  0  0  0  0  0  0  0  0  0  0  0
   40.2331   12.3471  -18.2503 C   0  0  0  0  0  0  0  0  0  0  0  0
   39.3935   11.2657  -18.1845 C   0  0  0  0  0  0  0  0  0  0  0  0
   38.7924   10.9835  -16.9765 C   0  0  0  0  0  0  0  0  0  0  0  0
   39.0324   11.7729  -15.8627 C   0  0  0  0  0  0  0  0  0  0  0  0
 15 16  1  0  0  0
 16  9  1  0  0  0
  9 10  2  0  0  0
 10 11  1  0  0  0
 11 12  2  0  0  0
 12 13  1  0  0  0
 13 17  1  0  0  0
 17 18  1  0  0  0
 13 14  2  0  0  0
 14 19  1  0  0  0
 19 20  1  0  0  0
 11  1  1  0  0  0
  1  2  2  0  0  0
  1  3  1  0  0  0
  3  4  1  0  0  0
  4  5  1  0  0  0
  5  6  1  0  0  0
  6  7  1  0  0  0
  7  8  1  0  0  0
  6 21  1  0  0  0
 21 22  2  0  0  0
 22 23  1  0  0  0
 23 24  2  0  0  0
 24 25  1  0  0  0
 24 27  1  0  0  0
 27 28  2  0  0  0
 28 29  1  0  0  0
 29 30  2  0  0  0
 30 31  1  0  0  0
 31 32  2  0  0  0
 23 33  1  0  0  0
 33 34  2  0  0  0
 34 35  1  0  0  0
 35 36  2  0  0  0
 36 37  1  0  0  0
 37 38  2  0  0  0
 14  9  1  0  0  0
  8  3  1  0  0  0
 25 21  1  0  0  0
 32 27  1  0  0  0
 38 33  1  0  0  0
 25 26  1  0  0  0
M  END
> <minimizedAffinity>
-7.59204

> <CNNscore>
0.1531731635

> <CNNaffinity>
6.2471814156

> <CNN_VS>
0.9569005370

> <CNNaffinity_variance>
0.2820126712

$$$$
[H]c1c([H])c([H])c(-c2nc(C3([H])C([H])([H])C([H])([H])N(C(=O)c4c([H])c(OC([H])([H])[H])c(OC([H])([H])[H])c(OC([H])([H])[H])c4[H])C([H])([H])C3([H])[H])n([H])c2-c2c([H])c([H])c([H])c([H])c2[H])c([H])c1[H]


 38 42  0  0  0  0  0  0  0  0999 V2000
   36.4379   13.0045  -13.1091 C   0  0  0  0  0  0  0  0  0  0  0  0
   35.6494   12.1048  -12.5371 O   0  0  0  0  0  0  0  0  0  0  0  0
   36.4381   14.2295  -12.4670 N   0  0  0  0  0  0  0  0  0  0  0  0
   37.1887   15.3913  -12.7915 C   0  0  0  0  0  0  0  0  0  0  0  0
   37.0774   16.3776  -11.6175 C   0  0  0  0  0  0  0  0  0  0  0  0
   37.4441   15.6850  -10.3230 C   0  0  0  0  0  0  0  0  0  0  0  0
   36.3468   14.6390  -10.0534 C   0  0  0  0  0  0  0  0  0  0  0  0
   35.5384   14.3910  -11.2933 C   0  0  0  0  0  0  0  0  0  0  0  0
   39.0873   12.1349  -15.6032 C   0  0  0  0  0  0  0  0  0  0  0  0
   38.4880   12.6547  -14.4488 C   0  0  0  0  0  0  0  0  0  0  0  0
   37.1366   12.5333  -14.2781 C   0  0  0  0  0  0  0  0  0  0  0  0
   36.4044   11.8895  -15.2742 C   0  0  0  0  0  0  0  0  0  0  0  0
   36.9949   11.3835  -16.4002 C   0  0  0  0  0  0  0  0  0  0  0  0
   38.3479   11.5118  -16.5574 C   0  0  0  0  0  0  0  0  0  0  0  0
   41.1015   13.5213  -15.7199 C   0  0  0  0  0  0  0  0  0  0  0  0
   40.4504   12.2685  -15.7537 O   0  0  0  0  0  0  0  0  0  0  0  0
   36.2269   10.7452  -17.3736 O   0  0  0  0  0  0  0  0  0  0  0  0
   34.8450   10.6213  -17.1626 C   0  0  0  0  0  0  0  0  0  0  0  0
   38.9831   11.0181  -17.6737 O   0  0  0  0  0  0  0  0  0  0  0  0
   39.5447   11.7914  -18.6985 C   0  0  0  0  0  0  0  0  0  0  0  0
   37.4227   16.7036   -9.2419 C   0  0  0  0  0  0  0  0  0  0  0  0
   36.8182   17.8859   -9.1929 N   0  0  0  0  0  0  0  0  0  0  0  0
   37.0647   18.4794   -8.0102 C   0  0  0  0  0  0  0  0  0  0  0  0
   37.8635   17.6230   -7.2845 C   0  0  0  0  0  0  0  0  0  0  0  0
   38.0583   16.5529   -8.0712 N   0  0  0  0  0  0  0  0  0  0  0  0
   38.6391   15.7045   -7.7977 H   0  0  0  0  0  0  0  0  0  0  0  0
   38.3899   17.8134   -5.9568 C   0  0  0  0  0  0  0  0  0  0  0  0
   37.5220   17.8912   -4.8704 C   0  0  0  0  0  0  0  0  0  0  0  0
   37.9541   18.0731   -3.5776 C   0  0  0  0  0  0  0  0  0  0  0  0
   39.3144   18.1820   -3.3614 C   0  0  0  0  0  0  0  0  0  0  0  0
   40.1741   18.1040   -4.4426 C   0  0  0  0  0  0  0  0  0  0  0  0
   39.7477   17.9218   -5.7411 C   0  0  0  0  0  0  0  0  0  0  0  0
   36.5755   19.7858   -7.5899 C   0  0  0  0  0  0  0  0  0  0  0  0
   37.2964   20.9534   -7.6483 C   0  0  0  0  0  0  0  0  0  0  0  0
   36.7546   22.1662   -7.2261 C   0  0  0  0  0  0  0  0  0  0  0  0
   35.4763   22.2308   -6.7359 C   0  0  0  0  0  0  0  0  0  0  0  0
   34.7455   21.0637   -6.6736 C   0  0  0  0  0  0  0  0  0  0  0  0
   35.2910   19.8613   -7.0954 C   0  0  0  0  0  0  0  0  0  0  0  0
 15 16  1  0  0  0
 16  9  1  0  0  0
  9 10  2  0  0  0
 10 11  1  0  0  0
 11 12  2  0  0  0
 12 13  1  0  0  0
 13 17  1  0  0  0
 17 18  1  0  0  0
 13 14  2  0  0  0
 14 19  1  0  0  0
 19 20  1  0  0  0
 11  1  1  0  0  0
  1  2  2  0  0  0
  1  3  1  0  0  0
  3  4  1  0  0  0
  4  5  1  0  0  0
  5  6  1  0  0  0
  6  7  1  0  0  0
  7  8  1  0  0  0
  6 21  1  0  0  0
 21 22  2  0  0  0
 22 23  1  0  0  0
 23 24  2  0  0  0
 24 25  1  0  0  0
 24 27  1  0  0  0
 27 28  2  0  0  0
 28 29  1  0  0  0
 29 30  2  0  0  0
 30 31  1  0  0  0
 31 32  2  0  0  0
 23 33  1  0  0  0
 33 34  2  0  0  0
 34 35  1  0  0  0
 35 36  2  0  0  0
 36 37  1  0  0  0
 37 38  2  0  0  0
 14  9  1  0  0  0
  8  3  1  0  0  0
 25 21  1  0  0  0
 32 27  1  0  0  0
 38 33  1  0  0  0
 25 26  1  0  0  0
M  END
> <minimizedAffinity>
-7.61530

> <CNNscore>
0.1400984675

> <CNNaffinity>
6.3649039268

> <CNN_VS>
0.8917132616

> <CNNaffinity_variance>
0.1987388730

$$$$
[H]c1c([H])c([H])c(-c2nc(C3([H])C([H])([H])C([H])([H])N(C(=O)c4c([H])c(OC([H])([H])[H])c(OC([H])([H])[H])c(OC([H])([H])[H])c4[H])C([H])([H])C3([H])[H])n([H])c2-c2c([H])c([H])c([H])c([H])c2[H])c([H])c1[H]


 38 42  0  0  0  0  0  0  0  0999 V2000
   36.8671   17.6650   -8.3057 C   0  0  0  0  0  0  0  0  0  0  0  0
   38.1208   18.0961   -8.2827 O   0  0  0  0  0  0  0  0  0  0  0  0
   36.4942   17.1086   -9.5158 N   0  0  0  0  0  0  0  0  0  0  0  0
   35.2477   16.5247   -9.8673 C   0  0  0  0  0  0  0  0  0  0  0  0
   35.4248   15.7833  -11.2024 C   0  0  0  0  0  0  0  0  0  0  0  0
   36.6048   14.8397  -11.1179 C   0  0  0  0  0  0  0  0  0  0  0  0
   37.8650   15.7155  -10.9929 C   0  0  0  0  0  0  0  0  0  0  0  0
   37.4956   17.1204  -10.6158 C   0  0  0  0  0  0  0  0  0  0  0  0
   35.3448   17.1871   -4.9218 C   0  0  0  0  0  0  0  0  0  0  0  0
   36.0389   16.8991   -6.1040 C   0  0  0  0  0  0  0  0  0  0  0  0
   36.1439   17.8572   -7.0741 C   0  0  0  0  0  0  0  0  0  0  0  0
   35.5468   19.0950   -6.8415 C   0  0  0  0  0  0  0  0  0  0  0  0
   34.8698   19.3711   -5.6848 C   0  0  0  0  0  0  0  0  0  0  0  0
   34.7732   18.4032   -4.7227 C   0  0  0  0  0  0  0  0  0  0  0  0
   34.3250   15.1443   -4.0386 C   0  0  0  0  0  0  0  0  0  0  0  0
   35.2521   16.2066   -3.9582 O   0  0  0  0  0  0  0  0  0  0  0  0
   34.2869   20.6229   -5.4900 O   0  0  0  0  0  0  0  0  0  0  0  0
   33.1346   20.9474   -6.2224 C   0  0  0  0  0  0  0  0  0  0  0  0
   34.1018   18.6374   -3.5447 O   0  0  0  0  0  0  0  0  0  0  0  0
   32.7166   18.5294   -3.3628 C   0  0  0  0  0  0  0  0  0  0  0  0
   36.6665   14.0757  -12.3905 C   0  0  0  0  0  0  0  0  0  0  0  0
   35.6979   13.4797  -13.0778 N   0  0  0  0  0  0  0  0  0  0  0  0
   36.2059   12.9053  -14.1841 C   0  0  0  0  0  0  0  0  0  0  0  0
   37.5606   13.1564  -14.1867 C   0  0  0  0  0  0  0  0  0  0  0  0
   37.8001   13.8721  -13.0766 N   0  0  0  0  0  0  0  0  0  0  0  0
   38.7603   14.2263  -12.7861 H   0  0  0  0  0  0  0  0  0  0  0  0
   38.5355   12.7486  -15.1661 C   0  0  0  0  0  0  0  0  0  0  0  0
   39.4959   13.6547  -15.6089 C   0  0  0  0  0  0  0  0  0  0  0  0
   40.4546   13.3347  -16.5415 C   0  0  0  0  0  0  0  0  0  0  0  0
   40.4530   12.0515  -17.0540 C   0  0  0  0  0  0  0  0  0  0  0  0
   39.4979   11.1535  -16.6120 C   0  0  0  0  0  0  0  0  0  0  0  0
   38.5340   11.4677  -15.6775 C   0  0  0  0  0  0  0  0  0  0  0  0
   35.4535   12.1568  -15.1821 C   0  0  0  0  0  0  0  0  0  0  0  0
   34.2433   11.5459  -14.9620 C   0  0  0  0  0  0  0  0  0  0  0  0
   33.5852   10.8472  -15.9726 C   0  0  0  0  0  0  0  0  0  0  0  0
   34.1300   10.7479  -17.2264 C   0  0  0  0  0  0  0  0  0  0  0  0
   35.3445   11.3580  -17.4563 C   0  0  0  0  0  0  0  0  0  0  0  0
   35.9931   12.0511  -16.4462 C   0  0  0  0  0  0  0  0  0  0  0  0
 15 16  1  0  0  0
 16  9  1  0  0  0
  9 10  2  0  0  0
 10 11  1  0  0  0
 11 12  2  0  0  0
 12 13  1  0  0  0
 13 17  1  0  0  0
 17 18  1  0  0  0
 13 14  2  0  0  0
 14 19  1  0  0  0
 19 20  1  0  0  0
 11  1  1  0  0  0
  1  2  2  0  0  0
  1  3  1  0  0  0
  3  4  1  0  0  0
  4  5  1  0  0  0
  5  6  1  0  0  0
  6  7  1  0  0  0
  7  8  1  0  0  0
  6 21  1  0  0  0
 21 22  2  0  0  0
 22 23  1  0  0  0
 23 24  2  0  0  0
 24 25  1  0  0  0
 24 27  1  0  0  0
 27 28  2  0  0  0
 28 29  1  0  0  0
 29 30  2  0  0  0
 30 31  1  0  0  0
 31 32  2  0  0  0
 23 33  1  0  0  0
 33 34  2  0  0  0
 34 35  1  0  0  0
 35 36  2  0  0  0
 36 37  1  0  0  0
 37 38  2  0  0  0
 14  9  1  0  0  0
  8  3  1  0  0  0
 25 21  1  0  0  0
 32 27  1  0  0  0
 38 33  1  0  0  0
 25 26  1  0  0  0
M  END
> <minimizedAffinity>
-8.41929

> <CNNscore>
0.1381325424

> <CNNaffinity>
6.3609037399

> <CNN_VS>
0.8786478043

> <CNNaffinity_variance>
0.1885833591

$$$$
[H]c1c([H])c([H])c(-c2nc(C3([H])C([H])([H])C([H])([H])N(C(=O)c4c([H])c(OC([H])([H])[H])c(OC([H])([H])[H])c(OC([H])([H])[H])c4[H])C([H])([H])C3([H])[H])n([H])c2-c2c([H])c([H])c([H])c([H])c2[H])c([H])c1[H]


 38 42  0  0  0  0  0  0  0  0999 V2000
   38.5669   14.1946  -13.7936 C   0  0  0  0  0  0  0  0  0  0  0  0
   39.6371   14.7425  -14.3529 O   0  0  0  0  0  0  0  0  0  0  0  0
   38.4241   14.5008  -12.4524 N   0  0  0  0  0  0  0  0  0  0  0  0
   37.3822   14.1116  -11.5686 C   0  0  0  0  0  0  0  0  0  0  0  0
   37.5084   14.9440  -10.2822 C   0  0  0  0  0  0  0  0  0  0  0  0
   37.5802   16.4165  -10.6235 C   0  0  0  0  0  0  0  0  0  0  0  0
   38.9153   16.6369  -11.3582 C   0  0  0  0  0  0  0  0  0  0  0  0
   39.4862   15.3276  -11.8189 C   0  0  0  0  0  0  0  0  0  0  0  0
   37.4376   11.7419  -16.3830 C   0  0  0  0  0  0  0  0  0  0  0  0
   38.2949   12.5035  -15.5786 C   0  0  0  0  0  0  0  0  0  0  0  0
   37.7666   13.3948  -14.6861 C   0  0  0  0  0  0  0  0  0  0  0  0
   36.3792   13.5086  -14.6154 C   0  0  0  0  0  0  0  0  0  0  0  0
   35.5462   12.7621  -15.4036 C   0  0  0  0  0  0  0  0  0  0  0  0
   36.0887   11.8740  -16.2916 C   0  0  0  0  0  0  0  0  0  0  0  0
   39.1177   11.1654  -18.0676 C   0  0  0  0  0  0  0  0  0  0  0  0
   37.9923   10.8500  -17.2749 O   0  0  0  0  0  0  0  0  0  0  0  0
   34.1627   12.9051  -15.3017 O   0  0  0  0  0  0  0  0  0  0  0  0
   33.6192   13.3105  -14.0729 C   0  0  0  0  0  0  0  0  0  0  0  0
   35.2887   11.1034  -17.1037 O   0  0  0  0  0  0  0  0  0  0  0  0
   34.5315    9.9998  -16.6886 C   0  0  0  0  0  0  0  0  0  0  0  0
   37.5945   17.1775   -9.3478 C   0  0  0  0  0  0  0  0  0  0  0  0
   36.9930   18.3177   -9.0255 N   0  0  0  0  0  0  0  0  0  0  0  0
   37.2779   18.6433   -7.7509 C   0  0  0  0  0  0  0  0  0  0  0  0
   38.0988   17.6552   -7.2529 C   0  0  0  0  0  0  0  0  0  0  0  0
   38.2673   16.7815   -8.2579 N   0  0  0  0  0  0  0  0  0  0  0  0
   38.8557   15.8975   -8.1926 H   0  0  0  0  0  0  0  0  0  0  0  0
   38.6677   17.5576   -5.9328 C   0  0  0  0  0  0  0  0  0  0  0  0
   38.1074   16.6911   -4.9975 C   0  0  0  0  0  0  0  0  0  0  0  0
   38.5971   16.5483   -3.7204 C   0  0  0  0  0  0  0  0  0  0  0  0
   39.6960   17.3056   -3.3625 C   0  0  0  0  0  0  0  0  0  0  0  0
   40.2506   18.1654   -4.2938 C   0  0  0  0  0  0  0  0  0  0  0  0
   39.7647   18.3135   -5.5757 C   0  0  0  0  0  0  0  0  0  0  0  0
   36.8037   19.8252   -7.0432 C   0  0  0  0  0  0  0  0  0  0  0  0
   36.0235   19.8070   -5.9131 C   0  0  0  0  0  0  0  0  0  0  0  0
   35.6108   20.9853   -5.2934 C   0  0  0  0  0  0  0  0  0  0  0  0
   35.9739   22.2072   -5.7970 C   0  0  0  0  0  0  0  0  0  0  0  0
   36.7569   22.2350   -6.9311 C   0  0  0  0  0  0  0  0  0  0  0  0
   37.1635   21.0590   -7.5419 C   0  0  0  0  0  0  0  0  0  0  0  0
 15 16  1  0  0  0
 16  9  1  0  0  0
  9 10  2  0  0  0
 10 11  1  0  0  0
 11 12  2  0  0  0
 12 13  1  0  0  0
 13 17  1  0  0  0
 17 18  1  0  0  0
 13 14  2  0  0  0
 14 19  1  0  0  0
 19 20  1  0  0  0
 11  1  1  0  0  0
  1  2  2  0  0  0
  1  3  1  0  0  0
  3  4  1  0  0  0
  4  5  1  0  0  0
  5  6  1  0  0  0
  6  7  1  0  0  0
  7  8  1  0  0  0
  6 21  1  0  0  0
 21 22  2  0  0  0
 22 23  1  0  0  0
 23 24  2  0  0  0
 24 25  1  0  0  0
 24 27  1  0  0  0
 27 28  2  0  0  0
 28 29  1  0  0  0
 29 30  2  0  0  0
 30 31  1  0  0  0
 31 32  2  0  0  0
 23 33  1  0  0  0
 33 34  2  0  0  0
 34 35  1  0  0  0
 35 36  2  0  0  0
 36 37  1  0  0  0
 37 38  2  0  0  0
 14  9  1  0  0  0
  8  3  1  0  0  0
 25 21  1  0  0  0
 32 27  1  0  0  0
 38 33  1  0  0  0
 25 26  1  0  0  0
M  END
> <minimizedAffinity>
-7.41559

> <CNNscore>
0.1374814212

> <CNNaffinity>
6.3964920044

> <CNN_VS>
0.8793988228

> <CNNaffinity_variance>
0.2485974729

$$$$
[H]c1c([H])c([H])c(-c2nc(C3([H])C([H])([H])C([H])([H])N(C(=O)c4c([H])c(OC([H])([H])[H])c(OC([H])([H])[H])c(OC([H])([H])[H])c4[H])C([H])([H])C3([H])[H])n([H])c2-c2c([H])c([H])c([H])c([H])c2[H])c([H])c1[H]


 38 42  0  0  0  0  0  0  0  0999 V2000
   44.4823   16.6706  -10.6769 C   0  0  0  0  0  0  0  0  0  0  0  0
   43.9408   16.9393   -9.4967 O   0  0  0  0  0  0  0  0  0  0  0  0
   43.7685   15.7453  -11.4166 N   0  0  0  0  0  0  0  0  0  0  0  0
   44.0462   15.2629  -12.7237 C   0  0  0  0  0  0  0  0  0  0  0  0
   42.8125   14.4936  -13.2233 C   0  0  0  0  0  0  0  0  0  0  0  0
   41.5738   15.3502  -13.0762 C   0  0  0  0  0  0  0  0  0  0  0  0
   41.3330   15.5263  -11.5656 C   0  0  0  0  0  0  0  0  0  0  0  0
   42.5598   15.1476  -10.7884 C   0  0  0  0  0  0  0  0  0  0  0  0
   47.2129   18.5884  -12.3688 C   0  0  0  0  0  0  0  0  0  0  0  0
   46.0244   17.8672  -12.1968 C   0  0  0  0  0  0  0  0  0  0  0  0
   45.6986   17.3910  -10.9570 C   0  0  0  0  0  0  0  0  0  0  0  0
   46.5757   17.6468   -9.9043 C   0  0  0  0  0  0  0  0  0  0  0  0
   47.7355   18.3519  -10.0778 C   0  0  0  0  0  0  0  0  0  0  0  0
   48.0484   18.8227  -11.3236 C   0  0  0  0  0  0  0  0  0  0  0  0
   47.9676   18.2151  -14.6674 C   0  0  0  0  0  0  0  0  0  0  0  0
   47.5205   19.0587  -13.6268 O   0  0  0  0  0  0  0  0  0  0  0  0
   48.5863   18.5874   -8.9982 O   0  0  0  0  0  0  0  0  0  0  0  0
   48.8264   17.5419   -8.0932 C   0  0  0  0  0  0  0  0  0  0  0  0
   49.2043   19.5361  -11.5436 O   0  0  0  0  0  0  0  0  0  0  0  0
   49.3618   20.9132  -11.3374 C   0  0  0  0  0  0  0  0  0  0  0  0
   40.4335   14.6040  -13.6677 C   0  0  0  0  0  0  0  0  0  0  0  0
   39.1626   14.5404  -13.2850 N   0  0  0  0  0  0  0  0  0  0  0  0
   38.4705   13.7434  -14.1203 C   0  0  0  0  0  0  0  0  0  0  0  0
   39.3552   13.2872  -15.0728 C   0  0  0  0  0  0  0  0  0  0  0  0
   40.5402   13.8349  -14.7606 N   0  0  0  0  0  0  0  0  0  0  0  0
   41.4380   13.6764  -15.3091 H   0  0  0  0  0  0  0  0  0  0  0  0
   39.0872   12.4077  -16.1821 C   0  0  0  0  0  0  0  0  0  0  0  0
   37.8261   11.8344  -16.3248 C   0  0  0  0  0  0  0  0  0  0  0  0
   37.5009   10.9859  -17.3571 C   0  0  0  0  0  0  0  0  0  0  0  0
   38.4803   10.6979  -18.2881 C   0  0  0  0  0  0  0  0  0  0  0  0
   39.7322   11.2691  -18.1439 C   0  0  0  0  0  0  0  0  0  0  0  0
   40.0649   12.1204  -17.1116 C   0  0  0  0  0  0  0  0  0  0  0  0
   37.0518   13.4271  -14.0218 C   0  0  0  0  0  0  0  0  0  0  0  0
   36.0466   14.1044  -14.6677 C   0  0  0  0  0  0  0  0  0  0  0  0
   34.7099   13.7378  -14.5213 C   0  0  0  0  0  0  0  0  0  0  0  0
   34.3553   12.6823  -13.7222 C   0  0  0  0  0  0  0  0  0  0  0  0
   35.3577   11.9968  -13.0699 C   0  0  0  0  0  0  0  0  0  0  0  0
   36.6849   12.3671  -13.2204 C   0  0  0  0  0  0  0  0  0  0  0  0
 15 16  1  0  0  0
 16  9  1  0  0  0
  9 10  2  0  0  0
 10 11  1  0  0  0
 11 12  2  0  0  0
 12 13  1  0  0  0
 13 17  1  0  0  0
 17 18  1  0  0  0
 13 14  2  0  0  0
 14 19  1  0  0  0
 19 20  1  0  0  0
 11  1  1  0  0  0
  1  2  2  0  0  0
  1  3  1  0  0  0
  3  4  1  0  0  0
  4  5  1  0  0  0
  5  6  1  0  0  0
  6  7  1  0  0  0
  7  8  1  0  0  0
  6 21  1  0  0  0
 21 22  2  0  0  0
 22 23  1  0  0  0
 23 24  2  0  0  0
 24 25  1  0  0  0
 24 27  1  0  0  0
 27 28  2  0  0  0
 28 29  1  0  0  0
 29 30  2  0  0  0
 30 31  1  0  0  0
 31 32  2  0  0  0
 23 33  1  0  0  0
 33 34  2  0  0  0
 34 35  1  0  0  0
 35 36  2  0  0  0
 36 37  1  0  0  0
 37 38  2  0  0  0
 14  9  1  0  0  0
  8  3  1  0  0  0
 25 21  1  0  0  0
 32 27  1  0  0  0
 38 33  1  0  0  0
 25 26  1  0  0  0
M  END
> <minimizedAffinity>
-8.20999

> <CNNscore>
0.1369726807

> <CNNaffinity>
6.4114332199

> <CNN_VS>
0.8781911731

> <CNNaffinity_variance>
0.3734505773

$$$$
[H]c1c([H])c([H])c(-c2nc(C3([H])C([H])([H])C([H])([H])N(C(=O)c4c([H])c(OC([H])([H])[H])c(OC([H])([H])[H])c(OC([H])([H])[H])c4[H])C([H])([H])C3([H])[H])n([H])c2-c2c([H])c([H])c([H])c([H])c2[H])c([H])c1[H]


 38 42  0  0  0  0  0  0  0  0999 V2000
   37.5519   17.3300   -8.2629 C   0  0  0  0  0  0  0  0  0  0  0  0
   37.0156   18.4720   -8.6707 O   0  0  0  0  0  0  0  0  0  0  0  0
   37.2611   16.2563   -9.0849 N   0  0  0  0  0  0  0  0  0  0  0  0
   37.6999   14.9108   -8.9607 C   0  0  0  0  0  0  0  0  0  0  0  0
   37.3666   14.1750  -10.2688 C   0  0  0  0  0  0  0  0  0  0  0  0
   37.9094   14.9487  -11.4506 C   0  0  0  0  0  0  0  0  0  0  0  0
   37.1053   16.2594  -11.5297 C   0  0  0  0  0  0  0  0  0  0  0  0
   36.3654   16.5025  -10.2468 C   0  0  0  0  0  0  0  0  0  0  0  0
   40.2252   16.9705   -5.6706 C   0  0  0  0  0  0  0  0  0  0  0  0
   39.5208   16.7864   -6.8673 C   0  0  0  0  0  0  0  0  0  0  0  0
   38.3287   17.4300   -7.0532 C   0  0  0  0  0  0  0  0  0  0  0  0
   37.8596   18.2516   -6.0296 C   0  0  0  0  0  0  0  0  0  0  0  0
   38.5518   18.4279   -4.8624 C   0  0  0  0  0  0  0  0  0  0  0  0
   39.7433   17.7782   -4.6903 C   0  0  0  0  0  0  0  0  0  0  0  0
   41.5416   14.9078   -5.5974 C   0  0  0  0  0  0  0  0  0  0  0  0
   41.4243   16.3122   -5.5054 O   0  0  0  0  0  0  0  0  0  0  0  0
   38.0486   19.2596   -3.8624 O   0  0  0  0  0  0  0  0  0  0  0  0
   36.7347   19.0514   -3.4153 C   0  0  0  0  0  0  0  0  0  0  0  0
   40.4724   17.9263   -3.5328 O   0  0  0  0  0  0  0  0  0  0  0  0
   41.5583   18.7951   -3.3611 C   0  0  0  0  0  0  0  0  0  0  0  0
   37.6541   14.1458  -12.6742 C   0  0  0  0  0  0  0  0  0  0  0  0
   36.5211   13.6269  -13.1354 N   0  0  0  0  0  0  0  0  0  0  0  0
   36.7511   12.9740  -14.2899 C   0  0  0  0  0  0  0  0  0  0  0  0
   38.0964   13.0923  -14.5624 C   0  0  0  0  0  0  0  0  0  0  0  0
   38.6100   13.8133  -13.5534 N   0  0  0  0  0  0  0  0  0  0  0  0
   39.6362   14.0808  -13.4682 H   0  0  0  0  0  0  0  0  0  0  0  0
   38.8221   12.5635  -15.6893 C   0  0  0  0  0  0  0  0  0  0  0  0
   39.6636   13.3942  -16.4250 C   0  0  0  0  0  0  0  0  0  0  0  0
   40.3846   12.9578  -17.5117 C   0  0  0  0  0  0  0  0  0  0  0  0
   40.2586   11.6318  -17.8791 C   0  0  0  0  0  0  0  0  0  0  0  0
   39.4221   10.8089  -17.1461 C   0  0  0  0  0  0  0  0  0  0  0  0
   38.6964   11.2399  -16.0558 C   0  0  0  0  0  0  0  0  0  0  0  0
   35.7552   12.2735  -15.0898 C   0  0  0  0  0  0  0  0  0  0  0  0
   34.5257   11.8635  -14.6354 C   0  0  0  0  0  0  0  0  0  0  0  0
   33.6266   11.1974  -15.4665 C   0  0  0  0  0  0  0  0  0  0  0  0
   33.9447   10.9293  -16.7724 C   0  0  0  0  0  0  0  0  0  0  0  0
   35.1768   11.3371  -17.2370 C   0  0  0  0  0  0  0  0  0  0  0  0
   36.0657   11.9991  -16.4046 C   0  0  0  0  0  0  0  0  0  0  0  0
 15 16  1  0  0  0
 16  9  1  0  0  0
  9 10  2  0  0  0
 10 11  1  0  0  0
 11 12  2  0  0  0
 12 13  1  0  0  0
 13 17  1  0  0  0
 17 18  1  0  0  0
 13 14  2  0  0  0
 14 19  1  0  0  0
 19 20  1  0  0  0
 11  1  1  0  0  0
  1  2  2  0  0  0
  1  3  1  0  0  0
  3  4  1  0  0  0
  4  5  1  0  0  0
  5  6  1  0  0  0
  6  7  1  0  0  0
  7  8  1  0  0  0
  6 21  1  0  0  0
 21 22  2  0  0  0
 22 23  1  0  0  0
 23 24  2  0  0  0
 24 25  1  0  0  0
 24 27  1  0  0  0
 27 28  2  0  0  0
 28 29  1  0  0  0
 29 30  2  0  0  0
 30 31  1  0  0  0
 31 32  2  0  0  0
 23 33  1  0  0  0
 33 34  2  0  0  0
 34 35  1  0  0  0
 35 36  2  0  0  0
 36 37  1  0  0  0
 37 38  2  0  0  0
 14  9  1  0  0  0
  8  3  1  0  0  0
 25 21  1  0  0  0
 32 27  1  0  0  0
 38 33  1  0  0  0
 25 26  1  0  0  0
M  END
> <minimizedAffinity>
-8.15639

> <CNNscore>
0.1365515292

> <CNNaffinity>
6.2347917557

> <CNN_VS>
0.8513703346

> <CNNaffinity_variance>
0.1983344406

$$$$
[H]c1c([H])c([H])c(-c2nc(C3([H])C([H])([H])C([H])([H])N(C(=O)c4c([H])c(OC([H])([H])[H])c(OC([H])([H])[H])c(OC([H])([H])[H])c4[H])C([H])([H])C3([H])[H])n([H])c2-c2c([H])c([H])c([H])c([H])c2[H])c([H])c1[H]


 38 42  0  0  0  0  0  0  0  0999 V2000
   37.1845   12.8130  -13.1960 C   0  0  0  0  0  0  0  0  0  0  0  0
   36.7326   11.7530  -12.5397 O   0  0  0  0  0  0  0  0  0  0  0  0
   36.9592   14.0092  -12.5392 N   0  0  0  0  0  0  0  0  0  0  0  0
   37.3410   15.3173  -12.9409 C   0  0  0  0  0  0  0  0  0  0  0  0
   37.1396   16.2638  -11.7462 C   0  0  0  0  0  0  0  0  0  0  0  0
   37.8378   15.7096  -10.5234 C   0  0  0  0  0  0  0  0  0  0  0  0
   37.0870   14.4246  -10.1283 C   0  0  0  0  0  0  0  0  0  0  0  0
   36.2113   13.9580  -11.2543 C   0  0  0  0  0  0  0  0  0  0  0  0
   37.8739   11.6494  -16.6841 C   0  0  0  0  0  0  0  0  0  0  0  0
   37.1890   11.8663  -15.4816 C   0  0  0  0  0  0  0  0  0  0  0  0
   37.8189   12.5138  -14.4548 C   0  0  0  0  0  0  0  0  0  0  0  0
   39.1331   12.9344  -14.6520 C   0  0  0  0  0  0  0  0  0  0  0  0
   39.7975   12.7198  -15.8289 C   0  0  0  0  0  0  0  0  0  0  0  0
   39.1548   12.0713  -16.8477 C   0  0  0  0  0  0  0  0  0  0  0  0
   35.8916   11.3005  -18.0776 C   0  0  0  0  0  0  0  0  0  0  0  0
   37.2192   10.9952  -17.7049 O   0  0  0  0  0  0  0  0  0  0  0  0
   41.1122   13.1573  -15.9868 O   0  0  0  0  0  0  0  0  0  0  0  0
   41.8465   13.5015  -14.8414 C   0  0  0  0  0  0  0  0  0  0  0  0
   39.7847   11.8340  -18.0478 O   0  0  0  0  0  0  0  0  0  0  0  0
   40.3955   10.6295  -18.4215 C   0  0  0  0  0  0  0  0  0  0  0  0
   37.7021   16.7083   -9.4321 C   0  0  0  0  0  0  0  0  0  0  0  0
   37.0896   17.8876   -9.4235 N   0  0  0  0  0  0  0  0  0  0  0  0
   37.2123   18.4604   -8.2116 C   0  0  0  0  0  0  0  0  0  0  0  0
   37.9383   17.5936   -7.4242 C   0  0  0  0  0  0  0  0  0  0  0  0
   38.2171   16.5387   -8.2060 N   0  0  0  0  0  0  0  0  0  0  0  0
   38.7716   15.6874   -7.8903 H   0  0  0  0  0  0  0  0  0  0  0  0
   38.3269   17.7617   -6.0470 C   0  0  0  0  0  0  0  0  0  0  0  0
   37.3967   17.5507   -5.0323 C   0  0  0  0  0  0  0  0  0  0  0  0
   37.6975   17.6941   -3.6981 C   0  0  0  0  0  0  0  0  0  0  0  0
   38.9858   18.0649   -3.3636 C   0  0  0  0  0  0  0  0  0  0  0  0
   39.9078   18.2737   -4.3738 C   0  0  0  0  0  0  0  0  0  0  0  0
   39.6129   18.1318   -5.7132 C   0  0  0  0  0  0  0  0  0  0  0  0
   36.6765   19.7573   -7.8199 C   0  0  0  0  0  0  0  0  0  0  0  0
   37.3546   20.9486   -7.9055 C   0  0  0  0  0  0  0  0  0  0  0  0
   36.7695   22.1501   -7.5097 C   0  0  0  0  0  0  0  0  0  0  0  0
   35.4901   22.1794   -7.0191 C   0  0  0  0  0  0  0  0  0  0  0  0
   34.8021   20.9883   -6.9295 C   0  0  0  0  0  0  0  0  0  0  0  0
   35.3904   19.7973   -7.3252 C   0  0  0  0  0  0  0  0  0  0  0  0
 15 16  1  0  0  0
 16  9  1  0  0  0
  9 10  2  0  0  0
 10 11  1  0  0  0
 11 12  2  0  0  0
 12 13  1  0  0  0
 13 17  1  0  0  0
 17 18  1  0  0  0
 13 14  2  0  0  0
 14 19  1  0  0  0
 19 20  1  0  0  0
 11  1  1  0  0  0
  1  2  2  0  0  0
  1  3  1  0  0  0
  3  4  1  0  0  0
  4  5  1  0  0  0
  5  6  1  0  0  0
  6  7  1  0  0  0
  7  8  1  0  0  0
  6 21  1  0  0  0
 21 22  2  0  0  0
 22 23  1  0  0  0
 23 24  2  0  0  0
 24 25  1  0  0  0
 24 27  1  0  0  0
 27 28  2  0  0  0
 28 29  1  0  0  0
 29 30  2  0  0  0
 30 31  1  0  0  0
 31 32  2  0  0  0
 23 33  1  0  0  0
 33 34  2  0  0  0
 34 35  1  0  0  0
 35 36  2  0  0  0
 36 37  1  0  0  0
 37 38  2  0  0  0
 14  9  1  0  0  0
  8  3  1  0  0  0
 25 21  1  0  0  0
 32 27  1  0  0  0
 38 33  1  0  0  0
 25 26  1  0  0  0
M  END
> <minimizedAffinity>
-7.14661

> <CNNscore>
0.1315992177

> <CNNaffinity>
6.3877782822

> <CNN_VS>
0.8406265974

> <CNNaffinity_variance>
0.2706487775

$$$$
[H]c1c([H])c([H])c(-c2nc(C3([H])C([H])([H])C([H])([H])N(C(=O)c4c([H])c(OC([H])([H])[H])c(OC([H])([H])[H])c(OC([H])([H])[H])c4[H])C([H])([H])C3([H])[H])n([H])c2-c2c([H])c([H])c([H])c([H])c2[H])c([H])c1[H]


 38 42  0  0  0  0  0  0  0  0999 V2000
   38.3330   13.8934  -13.7149 C   0  0  0  0  0  0  0  0  0  0  0  0
   39.4198   14.6234  -13.9250 O   0  0  0  0  0  0  0  0  0  0  0  0
   37.7600   14.0970  -12.4727 N   0  0  0  0  0  0  0  0  0  0  0  0
   36.5804   13.5090  -11.9423 C   0  0  0  0  0  0  0  0  0  0  0  0
   36.1948   14.2748  -10.6662 C   0  0  0  0  0  0  0  0  0  0  0  0
   36.1309   15.7593  -10.9528 C   0  0  0  0  0  0  0  0  0  0  0  0
   37.5702   16.2148  -11.2559 C   0  0  0  0  0  0  0  0  0  0  0  0
   38.4484   15.0320  -11.5427 C   0  0  0  0  0  0  0  0  0  0  0  0
   36.4052   12.0117  -16.3109 C   0  0  0  0  0  0  0  0  0  0  0  0
   36.6691   12.8329  -15.2072 C   0  0  0  0  0  0  0  0  0  0  0  0
   37.9627   13.0384  -14.8143 C   0  0  0  0  0  0  0  0  0  0  0  0
   38.9760   12.4125  -15.5385 C   0  0  0  0  0  0  0  0  0  0  0  0
   38.7126   11.6111  -16.6160 C   0  0  0  0  0  0  0  0  0  0  0  0
   37.4137   11.4150  -16.9981 C   0  0  0  0  0  0  0  0  0  0  0  0
   34.1238   11.2710  -15.8216 C   0  0  0  0  0  0  0  0  0  0  0  0
   35.0942   11.8193  -16.6889 O   0  0  0  0  0  0  0  0  0  0  0  0
   39.7552   11.0035  -17.3150 O   0  0  0  0  0  0  0  0  0  0  0  0
   40.8289   11.7995  -17.7431 C   0  0  0  0  0  0  0  0  0  0  0  0
   37.1031   10.6171  -18.0752 O   0  0  0  0  0  0  0  0  0  0  0  0
   37.7405   10.6505  -19.3228 C   0  0  0  0  0  0  0  0  0  0  0  0
   35.6539   16.4388   -9.7209 C   0  0  0  0  0  0  0  0  0  0  0  0
   36.1942   17.4384   -9.0319 N   0  0  0  0  0  0  0  0  0  0  0  0
   35.4152   17.7438   -7.9776 C   0  0  0  0  0  0  0  0  0  0  0  0
   34.3335   16.8910   -8.0112 C   0  0  0  0  0  0  0  0  0  0  0  0
   34.5177   16.1121   -9.0888 N   0  0  0  0  0  0  0  0  0  0  0  0
   33.8501   15.3421   -9.3942 H   0  0  0  0  0  0  0  0  0  0  0  0
   33.2238   16.8308   -7.0942 C   0  0  0  0  0  0  0  0  0  0  0  0
   32.1873   17.7553   -7.1968 C   0  0  0  0  0  0  0  0  0  0  0  0
   31.0993   17.7579   -6.3558 C   0  0  0  0  0  0  0  0  0  0  0  0
   31.0451   16.7930   -5.3682 C   0  0  0  0  0  0  0  0  0  0  0  0
   32.0761   15.8757   -5.2689 C   0  0  0  0  0  0  0  0  0  0  0  0
   33.1697   15.8676   -6.1086 C   0  0  0  0  0  0  0  0  0  0  0  0
   35.6799   18.7817   -6.9902 C   0  0  0  0  0  0  0  0  0  0  0  0
   36.0172   20.0805   -7.2830 C   0  0  0  0  0  0  0  0  0  0  0  0
   36.2548   21.0161   -6.2776 C   0  0  0  0  0  0  0  0  0  0  0  0
   36.1583   20.6656   -4.9560 C   0  0  0  0  0  0  0  0  0  0  0  0
   35.8204   19.3641   -4.6529 C   0  0  0  0  0  0  0  0  0  0  0  0
   35.5855   18.4392   -5.6582 C   0  0  0  0  0  0  0  0  0  0  0  0
 15 16  1  0  0  0
 16  9  1  0  0  0
  9 10  2  0  0  0
 10 11  1  0  0  0
 11 12  2  0  0  0
 12 13  1  0  0  0
 13 17  1  0  0  0
 17 18  1  0  0  0
 13 14  2  0  0  0
 14 19  1  0  0  0
 19 20  1  0  0  0
 11  1  1  0  0  0
  1  2  2  0  0  0
  1  3  1  0  0  0
  3  4  1  0  0  0
  4  5  1  0  0  0
  5  6  1  0  0  0
  6  7  1  0  0  0
  7  8  1  0  0  0
  6 21  1  0  0  0
 21 22  2  0  0  0
 22 23  1  0  0  0
 23 24  2  0  0  0
 24 25  1  0  0  0
 24 27  1  0  0  0
 27 28  2  0  0  0
 28 29  1  0  0  0
 29 30  2  0  0  0
 30 31  1  0  0  0
 31 32  2  0  0  0
 23 33  1  0  0  0
 33 34  2  0  0  0
 34 35  1  0  0  0
 35 36  2  0  0  0
 36 37  1  0  0  0
 37 38  2  0  0  0
 14  9  1  0  0  0
  8  3  1  0  0  0
 25 21  1  0  0  0
 32 27  1  0  0  0
 38 33  1  0  0  0
 25 26  1  0  0  0
M  END
> <minimizedAffinity>
-7.87873

> <CNNscore>
0.1311478019

> <CNNaffinity>
6.4533758163

> <CNN_VS>
0.8463460803

> <CNNaffinity_variance>
0.2682219446

$$$$
[H]c1c([H])c([H])c(-c2nc(C3([H])C([H])([H])C([H])([H])N(C(=O)c4c([H])c(OC([H])([H])[H])c(OC([H])([H])[H])c(OC([H])([H])[H])c4[H])C([H])([H])C3([H])[H])n([H])c2-c2c([H])c([H])c([H])c([H])c2[H])c([H])c1[H]


 38 42  0  0  0  0  0  0  0  0999 V2000
   35.6874   16.8048   -8.1802 C   0  0  0  0  0  0  0  0  0  0  0  0
   36.7910   17.0471   -7.4863 O   0  0  0  0  0  0  0  0  0  0  0  0
   35.9235   16.4976   -9.5079 N   0  0  0  0  0  0  0  0  0  0  0  0
   34.9785   16.1550  -10.5119 C   0  0  0  0  0  0  0  0  0  0  0  0
   35.7461   15.6088  -11.7268 C   0  0  0  0  0  0  0  0  0  0  0  0
   36.6879   14.5072  -11.2915 C   0  0  0  0  0  0  0  0  0  0  0  0
   37.7694   15.1681  -10.4171 C   0  0  0  0  0  0  0  0  0  0  0  0
   37.3328   16.5367   -9.9827 C   0  0  0  0  0  0  0  0  0  0  0  0
   32.4754   16.0348   -6.4233 C   0  0  0  0  0  0  0  0  0  0  0  0
   33.6233   15.8516   -7.2049 C   0  0  0  0  0  0  0  0  0  0  0  0
   34.4668   16.9061   -7.4208 C   0  0  0  0  0  0  0  0  0  0  0  0
   34.1426   18.1342   -6.8467 C   0  0  0  0  0  0  0  0  0  0  0  0
   33.0198   18.3077   -6.0840 C   0  0  0  0  0  0  0  0  0  0  0  0
   32.1853   17.2437   -5.8759 C   0  0  0  0  0  0  0  0  0  0  0  0
   31.9757   13.6465   -6.6211 C   0  0  0  0  0  0  0  0  0  0  0  0
   31.6402   14.9581   -6.2190 O   0  0  0  0  0  0  0  0  0  0  0  0
   32.7312   19.5528   -5.5261 O   0  0  0  0  0  0  0  0  0  0  0  0
   32.2377   20.5648   -6.3639 C   0  0  0  0  0  0  0  0  0  0  0  0
   31.0455   17.3731   -5.1160 O   0  0  0  0  0  0  0  0  0  0  0  0
   29.7918   17.7786   -5.5929 C   0  0  0  0  0  0  0  0  0  0  0  0
   37.3233   13.9456  -12.5112 C   0  0  0  0  0  0  0  0  0  0  0  0
   36.8042   13.1960  -13.4779 N   0  0  0  0  0  0  0  0  0  0  0  0
   37.7457   12.9164  -14.3983 C   0  0  0  0  0  0  0  0  0  0  0  0
   38.9114   13.5231  -13.9844 C   0  0  0  0  0  0  0  0  0  0  0  0
   38.6109   14.1395  -12.8305 N   0  0  0  0  0  0  0  0  0  0  0  0
   39.3039   14.7030  -12.2526 H   0  0  0  0  0  0  0  0  0  0  0  0
   40.1956   13.5139  -14.6378 C   0  0  0  0  0  0  0  0  0  0  0  0
   41.3619   13.5377  -13.8771 C   0  0  0  0  0  0  0  0  0  0  0  0
   42.6196   13.5320  -14.4332 C   0  0  0  0  0  0  0  0  0  0  0  0
   42.7155   13.5009  -15.8112 C   0  0  0  0  0  0  0  0  0  0  0  0
   41.5550   13.4770  -16.5643 C   0  0  0  0  0  0  0  0  0  0  0  0
   40.2911   13.4827  -16.0133 C   0  0  0  0  0  0  0  0  0  0  0  0
   37.5557   12.1166  -15.6011 C   0  0  0  0  0  0  0  0  0  0  0  0
   38.5285   11.3584  -16.2053 C   0  0  0  0  0  0  0  0  0  0  0  0
   38.2656   10.6188  -17.3570 C   0  0  0  0  0  0  0  0  0  0  0  0
   37.0186   10.6258  -17.9259 C   0  0  0  0  0  0  0  0  0  0  0  0
   36.0361   11.3841  -17.3262 C   0  0  0  0  0  0  0  0  0  0  0  0
   36.3050   12.1171  -16.1809 C   0  0  0  0  0  0  0  0  0  0  0  0
 15 16  1  0  0  0
 16  9  1  0  0  0
  9 10  2  0  0  0
 10 11  1  0  0  0
 11 12  2  0  0  0
 12 13  1  0  0  0
 13 17  1  0  0  0
 17 18  1  0  0  0
 13 14  2  0  0  0
 14 19  1  0  0  0
 19 20  1  0  0  0
 11  1  1  0  0  0
  1  2  2  0  0  0
  1  3  1  0  0  0
  3  4  1  0  0  0
  4  5  1  0  0  0
  5  6  1  0  0  0
  6  7  1  0  0  0
  7  8  1  0  0  0
  6 21  1  0  0  0
 21 22  2  0  0  0
 22 23  1  0  0  0
 23 24  2  0  0  0
 24 25  1  0  0  0
 24 27  1  0  0  0
 27 28  2  0  0  0
 28 29  1  0  0  0
 29 30  2  0  0  0
 30 31  1  0  0  0
 31 32  2  0  0  0
 23 33  1  0  0  0
 33 34  2  0  0  0
 34 35  1  0  0  0
 35 36  2  0  0  0
 36 37  1  0  0  0
 37 38  2  0  0  0
 14  9  1  0  0  0
  8  3  1  0  0  0
 25 21  1  0  0  0
 32 27  1  0  0  0
 38 33  1  0  0  0
 25 26  1  0  0  0
M  END
> <minimizedAffinity>
-9.20397

> <CNNscore>
0.1280045658

> <CNNaffinity>
6.1117587090

> <CNN_VS>
0.7823330164

> <CNNaffinity_variance>
0.2486376315

$$$$
