[H]c1c([H])c(N2C([H])([H])C([H])([H])N(c3nc4c([H])c(C(=O)N([H])[H])c([H])c([H])c4n3[H])C([H])([H])[C@@]2([H])C([H])([H])[H])c([H])c([H])c1F


 29 32  0  0  0  0  0  0  0  0999 V2000
   39.5863   12.9062  -15.8385 C   0  0  0  0  0  0  0  0  0  0  0  0
   38.3969   13.1453  -15.2788 N   0  0  0  0  0  0  0  0  0  0  0  0
   37.4656   12.3778  -15.8415 C   0  0  0  0  0  0  0  0  0  0  0  0
   36.1023   12.2131  -15.6655 C   0  0  0  0  0  0  0  0  0  0  0  0
   35.3693   11.3177  -16.4163 C   0  0  0  0  0  0  0  0  0  0  0  0
   36.0457   10.5620  -17.3802 C   0  0  0  0  0  0  0  0  0  0  0  0
   37.4056   10.6968  -17.5875 C   0  0  0  0  0  0  0  0  0  0  0  0
   38.1011   11.6114  -16.8086 C   0  0  0  0  0  0  0  0  0  0  0  0
   39.3943   11.9503  -16.7895 N   0  0  0  0  0  0  0  0  0  0  0  0
   40.1383   11.5516  -17.3983 H   0  0  0  0  0  0  0  0  0  0  0  0
   44.1633   12.4590  -16.5884 C   0  0  0  0  0  0  0  0  0  0  0  0
   42.9566   12.6934  -15.7162 C   0  0  0  0  0  0  0  0  0  0  0  0
   41.8939   13.4984  -16.4090 C   0  0  0  0  0  0  0  0  0  0  0  0
   40.7885   13.5298  -15.4896 N   0  0  0  0  0  0  0  0  0  0  0  0
   40.9560   14.1711  -14.2123 C   0  0  0  0  0  0  0  0  0  0  0  0
   42.2678   13.7648  -13.5728 C   0  0  0  0  0  0  0  0  0  0  0  0
   43.2853   13.3356  -14.4702 N   0  0  0  0  0  0  0  0  0  0  0  0
   44.6874   13.5148  -14.1533 C   0  0  0  0  0  0  0  0  0  0  0  0
   45.1917   14.7626  -14.4538 C   0  0  0  0  0  0  0  0  0  0  0  0
   46.4966   15.0612  -14.1960 C   0  0  0  0  0  0  0  0  0  0  0  0
   47.2753   14.0600  -13.6257 C   0  0  0  0  0  0  0  0  0  0  0  0
   48.5673   14.3357  -13.3581 F   0  0  0  0  0  0  0  0  0  0  0  0
   46.7729   12.8070  -13.3231 C   0  0  0  0  0  0  0  0  0  0  0  0
   45.4400   12.5169  -13.5917 C   0  0  0  0  0  0  0  0  0  0  0  0
   33.9357   11.1458  -16.2458 C   0  0  0  0  0  0  0  0  0  0  0  0
   33.3695   11.2327  -14.9606 N   0  0  0  0  0  0  0  0  0  0  0  0
   33.2161   10.9214  -17.2535 O   0  0  0  0  0  0  0  0  0  0  0  0
   33.3714   10.4119  -14.3390 H   0  0  0  0  0  0  0  0  0  0  0  0
   32.9504   12.1189  -14.6422 H   0  0  0  0  0  0  0  0  0  0  0  0
 11 12  1  0  0  0
 12 13  1  0  0  0
 13 14  1  0  0  0
 14 15  1  0  0  0
 15 16  1  0  0  0
 16 17  1  0  0  0
 17 18  1  0  0  0
 18 19  2  0  0  0
 19 20  1  0  0  0
 20 21  2  0  0  0
 21 22  1  0  0  0
 21 23  1  0  0  0
 23 24  2  0  0  0
 14  1  1  0  0  0
  1  2  2  0  0  0
  2  3  1  0  0  0
  3  4  2  0  0  0
  4  5  1  0  0  0
  5  6  2  0  0  0
  6  7  1  0  0  0
  7  8  2  0  0  0
  8  9  1  0  0  0
  5 25  1  0  0  0
 25 26  1  0  0  0
 25 27  2  0  0  0
 17 12  1  0  0  0
 24 18  1  0  0  0
  9  1  1  0  0  0
  8  3  1  0  0  0
  9 10  1  0  0  0
 26 28  1  0  0  0
 26 29  1  0  0  0
M  END
> <minimizedAffinity>
-8.45810

> <CNNscore>
0.5582327843

> <CNNaffinity>
6.6347184181

> <CNN_VS>
3.7037172318

> <CNNaffinity_variance>
0.1617147774

$$$$
[H]c1c([H])c(N2C([H])([H])C([H])([H])N(c3nc4c([H])c(C(=O)N([H])[H])c([H])c([H])c4n3[H])C([H])([H])[C@@]2([H])C([H])([H])[H])c([H])c([H])c1F


 29 32  0  0  0  0  0  0  0  0999 V2000
   41.9359   13.3523  -15.3648 C   0  0  0  0  0  0  0  0  0  0  0  0
   42.9621   13.1669  -16.1999 N   0  0  0  0  0  0  0  0  0  0  0  0
   44.1071   13.1577  -15.5204 C   0  0  0  0  0  0  0  0  0  0  0  0
   45.4411   13.0118  -15.8612 C   0  0  0  0  0  0  0  0  0  0  0  0
   46.4468   13.0480  -14.9178 C   0  0  0  0  0  0  0  0  0  0  0  0
   46.0843   13.2387  -13.5799 C   0  0  0  0  0  0  0  0  0  0  0  0
   44.7644   13.3890  -13.1981 C   0  0  0  0  0  0  0  0  0  0  0  0
   43.7871   13.3467  -14.1830 C   0  0  0  0  0  0  0  0  0  0  0  0
   42.4571   13.4632  -14.1114 N   0  0  0  0  0  0  0  0  0  0  0  0
   41.9039   13.6128  -13.2427 H   0  0  0  0  0  0  0  0  0  0  0  0
   37.7134   12.7587  -13.4861 C   0  0  0  0  0  0  0  0  0  0  0  0
   38.7446   12.5756  -14.5699 C   0  0  0  0  0  0  0  0  0  0  0  0
   39.6039   13.7936  -14.7580 C   0  0  0  0  0  0  0  0  0  0  0  0
   40.5882   13.4108  -15.7340 N   0  0  0  0  0  0  0  0  0  0  0  0
   40.1600   13.0591  -17.0621 C   0  0  0  0  0  0  0  0  0  0  0  0
   38.9592   12.1367  -17.0150 C   0  0  0  0  0  0  0  0  0  0  0  0
   38.1636   12.2187  -15.8381 N   0  0  0  0  0  0  0  0  0  0  0  0
   36.7446   11.9294  -15.8720 C   0  0  0  0  0  0  0  0  0  0  0  0
   36.3791   10.9389  -16.7592 C   0  0  0  0  0  0  0  0  0  0  0  0
   35.0732   10.5669  -16.8803 C   0  0  0  0  0  0  0  0  0  0  0  0
   34.1490   11.2268  -16.0775 C   0  0  0  0  0  0  0  0  0  0  0  0
   32.8528   10.8710  -16.1779 F   0  0  0  0  0  0  0  0  0  0  0  0
   34.5120   12.2210  -15.1866 C   0  0  0  0  0  0  0  0  0  0  0  0
   35.8477   12.5899  -15.0740 C   0  0  0  0  0  0  0  0  0  0  0  0
   47.8508   12.9065  -15.2677 C   0  0  0  0  0  0  0  0  0  0  0  0
   48.3568   13.5617  -16.4056 N   0  0  0  0  0  0  0  0  0  0  0  0
   48.5992   12.1980  -14.5456 O   0  0  0  0  0  0  0  0  0  0  0  0
   48.2556   13.1326  -17.3361 H   0  0  0  0  0  0  0  0  0  0  0  0
   48.8312   14.4714  -16.3067 H   0  0  0  0  0  0  0  0  0  0  0  0
 11 12  1  0  0  0
 12 13  1  0  0  0
 13 14  1  0  0  0
 14 15  1  0  0  0
 15 16  1  0  0  0
 16 17  1  0  0  0
 17 18  1  0  0  0
 18 19  2  0  0  0
 19 20  1  0  0  0
 20 21  2  0  0  0
 21 22  1  0  0  0
 21 23  1  0  0  0
 23 24  2  0  0  0
 14  1  1  0  0  0
  1  2  2  0  0  0
  2  3  1  0  0  0
  3  4  2  0  0  0
  4  5  1  0  0  0
  5  6  2  0  0  0
  6  7  1  0  0  0
  7  8  2  0  0  0
  8  9  1  0  0  0
  5 25  1  0  0  0
 25 26  1  0  0  0
 25 27  2  0  0  0
 17 12  1  0  0  0
 24 18  1  0  0  0
  9  1  1  0  0  0
  8  3  1  0  0  0
  9 10  1  0  0  0
 26 28  1  0  0  0
 26 29  1  0  0  0
M  END
> <minimizedAffinity>
-8.73957

> <CNNscore>
0.4229631126

> <CNNaffinity>
6.5031461716

> <CNN_VS>
2.7505910397

> <CNNaffinity_variance>
0.1027667895

$$$$
[H]c1c([H])c(N2C([H])([H])C([H])([H])N(c3nc4c([H])c(C(=O)N([H])[H])c([H])c([H])c4n3[H])C([H])([H])[C@@]2([H])C([H])([H])[H])c([H])c([H])c1F


 29 32  0  0  0  0  0  0  0  0999 V2000
   37.7644   13.3676  -13.5249 C   0  0  0  0  0  0  0  0  0  0  0  0
   38.7989   13.2874  -14.3664 N   0  0  0  0  0  0  0  0  0  0  0  0
   38.4519   12.5978  -15.4513 C   0  0  0  0  0  0  0  0  0  0  0  0
   39.1034   12.2130  -16.6108 C   0  0  0  0  0  0  0  0  0  0  0  0
   38.4760   11.4769  -17.5942 C   0  0  0  0  0  0  0  0  0  0  0  0
   37.1384   11.1192  -17.3928 C   0  0  0  0  0  0  0  0  0  0  0  0
   36.4523   11.4829  -16.2493 C   0  0  0  0  0  0  0  0  0  0  0  0
   37.1257   12.2226  -15.2869 C   0  0  0  0  0  0  0  0  0  0  0  0
   36.7266   12.7028  -14.1047 N   0  0  0  0  0  0  0  0  0  0  0  0
   35.7786   12.5916  -13.6899 H   0  0  0  0  0  0  0  0  0  0  0  0
   34.9183   15.8888  -10.8315 C   0  0  0  0  0  0  0  0  0  0  0  0
   36.2407   15.5967  -11.4930 C   0  0  0  0  0  0  0  0  0  0  0  0
   36.5490   14.1269  -11.5381 C   0  0  0  0  0  0  0  0  0  0  0  0
   37.7707   14.0232  -12.2896 N   0  0  0  0  0  0  0  0  0  0  0  0
   38.9678   14.6303  -11.7705 C   0  0  0  0  0  0  0  0  0  0  0  0
   38.6853   16.0278  -11.2585 C   0  0  0  0  0  0  0  0  0  0  0  0
   37.3412   16.2815  -10.8661 N   0  0  0  0  0  0  0  0  0  0  0  0
   37.0328   17.2502   -9.8342 C   0  0  0  0  0  0  0  0  0  0  0  0
   37.8343   18.3725   -9.8386 C   0  0  0  0  0  0  0  0  0  0  0  0
   37.6409   19.3635   -8.9227 C   0  0  0  0  0  0  0  0  0  0  0  0
   36.6132   19.1849   -8.0028 C   0  0  0  0  0  0  0  0  0  0  0  0
   36.4017   20.1551   -7.0913 F   0  0  0  0  0  0  0  0  0  0  0  0
   35.8075   18.0604   -7.9953 C   0  0  0  0  0  0  0  0  0  0  0  0
   36.0165   17.0578   -8.9355 C   0  0  0  0  0  0  0  0  0  0  0  0
   39.1553   11.0592  -18.8098 C   0  0  0  0  0  0  0  0  0  0  0  0
   38.4030   10.6219  -19.9156 N   0  0  0  0  0  0  0  0  0  0  0  0
   40.4123   11.0949  -18.8588 O   0  0  0  0  0  0  0  0  0  0  0  0
   38.0759    9.6468  -19.9644 H   0  0  0  0  0  0  0  0  0  0  0  0
   38.1811   11.2784  -20.6786 H   0  0  0  0  0  0  0  0  0  0  0  0
 11 12  1  0  0  0
 12 13  1  0  0  0
 13 14  1  0  0  0
 14 15  1  0  0  0
 15 16  1  0  0  0
 16 17  1  0  0  0
 17 18  1  0  0  0
 18 19  2  0  0  0
 19 20  1  0  0  0
 20 21  2  0  0  0
 21 22  1  0  0  0
 21 23  1  0  0  0
 23 24  2  0  0  0
 14  1  1  0  0  0
  1  2  2  0  0  0
  2  3  1  0  0  0
  3  4  2  0  0  0
  4  5  1  0  0  0
  5  6  2  0  0  0
  6  7  1  0  0  0
  7  8  2  0  0  0
  8  9  1  0  0  0
  5 25  1  0  0  0
 25 26  1  0  0  0
 25 27  2  0  0  0
 17 12  1  0  0  0
 24 18  1  0  0  0
  9  1  1  0  0  0
  8  3  1  0  0  0
  9 10  1  0  0  0
 26 28  1  0  0  0
 26 29  1  0  0  0
M  END
> <minimizedAffinity>
-7.90100

> <CNNscore>
0.3316848576

> <CNNaffinity>
6.1533317566

> <CNN_VS>
2.0409669876

> <CNNaffinity_variance>
0.5525717139

$$$$
[H]c1c([H])c(N2C([H])([H])C([H])([H])N(c3nc4c([H])c(C(=O)N([H])[H])c([H])c([H])c4n3[H])C([H])([H])[C@@]2([H])C([H])([H])[H])c([H])c([H])c1F


 29 32  0  0  0  0  0  0  0  0999 V2000
   37.7786   13.3745  -13.4032 C   0  0  0  0  0  0  0  0  0  0  0  0
   37.5545   12.5965  -14.4659 N   0  0  0  0  0  0  0  0  0  0  0  0
   38.6168   12.6037  -15.2686 C   0  0  0  0  0  0  0  0  0  0  0  0
   38.9308   12.0002  -16.4745 C   0  0  0  0  0  0  0  0  0  0  0  0
   40.1456   12.1963  -17.0978 C   0  0  0  0  0  0  0  0  0  0  0  0
   41.0751   13.0352  -16.4734 C   0  0  0  0  0  0  0  0  0  0  0  0
   40.8005   13.6571  -15.2699 C   0  0  0  0  0  0  0  0  0  0  0  0
   39.5642   13.4305  -14.6808 C   0  0  0  0  0  0  0  0  0  0  0  0
   39.0315   13.8899  -13.5439 N   0  0  0  0  0  0  0  0  0  0  0  0
   39.4938   14.5353  -12.8709 H   0  0  0  0  0  0  0  0  0  0  0  0
   33.2084   13.9585  -12.7083 C   0  0  0  0  0  0  0  0  0  0  0  0
   34.6597   14.3026  -12.4919 C   0  0  0  0  0  0  0  0  0  0  0  0
   35.5397   13.0854  -12.4522 C   0  0  0  0  0  0  0  0  0  0  0  0
   36.8806   13.5954  -12.3541 N   0  0  0  0  0  0  0  0  0  0  0  0
   37.2591   14.3559  -11.1925 C   0  0  0  0  0  0  0  0  0  0  0  0
   36.1936   15.3751  -10.8445 C   0  0  0  0  0  0  0  0  0  0  0  0
   34.8782   15.0709  -11.2940 N   0  0  0  0  0  0  0  0  0  0  0  0
   33.7132   15.5384  -10.5710 C   0  0  0  0  0  0  0  0  0  0  0  0
   33.9338   15.8128   -9.2376 C   0  0  0  0  0  0  0  0  0  0  0  0
   32.9195   16.2679   -8.4487 C   0  0  0  0  0  0  0  0  0  0  0  0
   31.6764   16.4368   -9.0488 C   0  0  0  0  0  0  0  0  0  0  0  0
   30.6606   16.8905   -8.2878 F   0  0  0  0  0  0  0  0  0  0  0  0
   31.4514   16.1623  -10.3859 C   0  0  0  0  0  0  0  0  0  0  0  0
   32.4955   15.6987  -11.1783 C   0  0  0  0  0  0  0  0  0  0  0  0
   40.4798   11.5753  -18.3692 C   0  0  0  0  0  0  0  0  0  0  0  0
   39.4521   11.1289  -19.2203 N   0  0  0  0  0  0  0  0  0  0  0  0
   41.6885   11.4449  -18.6944 O   0  0  0  0  0  0  0  0  0  0  0  0
   39.0250   10.2037  -19.0729 H   0  0  0  0  0  0  0  0  0  0  0  0
   39.1283   11.7285  -19.9937 H   0  0  0  0  0  0  0  0  0  0  0  0
 11 12  1  0  0  0
 12 13  1  0  0  0
 13 14  1  0  0  0
 14 15  1  0  0  0
 15 16  1  0  0  0
 16 17  1  0  0  0
 17 18  1  0  0  0
 18 19  2  0  0  0
 19 20  1  0  0  0
 20 21  2  0  0  0
 21 22  1  0  0  0
 21 23  1  0  0  0
 23 24  2  0  0  0
 14  1  1  0  0  0
  1  2  2  0  0  0
  2  3  1  0  0  0
  3  4  2  0  0  0
  4  5  1  0  0  0
  5  6  2  0  0  0
  6  7  1  0  0  0
  7  8  2  0  0  0
  8  9  1  0  0  0
  5 25  1  0  0  0
 25 26  1  0  0  0
 25 27  2  0  0  0
 17 12  1  0  0  0
 24 18  1  0  0  0
  9  1  1  0  0  0
  8  3  1  0  0  0
  9 10  1  0  0  0
 26 28  1  0  0  0
 26 29  1  0  0  0
M  END
> <minimizedAffinity>
-7.89044

> <CNNscore>
0.3024477363

> <CNNaffinity>
6.2024521828

> <CNN_VS>
1.8759176731

> <CNNaffinity_variance>
0.8770294189

$$$$
[H]c1c([H])c(N2C([H])([H])C([H])([H])N(c3nc4c([H])c(C(=O)N([H])[H])c([H])c([H])c4n3[H])C([H])([H])[C@@]2([H])C([H])([H])[H])c([H])c([H])c1F


 29 32  0  0  0  0  0  0  0  0999 V2000
   37.7198   14.4674  -13.3923 C   0  0  0  0  0  0  0  0  0  0  0  0
   38.9330   14.5724  -13.9417 N   0  0  0  0  0  0  0  0  0  0  0  0
   39.0774   13.6647  -14.9052 C   0  0  0  0  0  0  0  0  0  0  0  0
   40.0964   13.3250  -15.7788 C   0  0  0  0  0  0  0  0  0  0  0  0
   39.9634   12.3062  -16.6992 C   0  0  0  0  0  0  0  0  0  0  0  0
   38.7515   11.6078  -16.7339 C   0  0  0  0  0  0  0  0  0  0  0  0
   37.7099   11.9153  -15.8788 C   0  0  0  0  0  0  0  0  0  0  0  0
   37.8905   12.9478  -14.9687 C   0  0  0  0  0  0  0  0  0  0  0  0
   37.0767   13.4544  -14.0367 N   0  0  0  0  0  0  0  0  0  0  0  0
   36.1082   13.1327  -13.8328 H   0  0  0  0  0  0  0  0  0  0  0  0
   38.2637   15.0596   -8.8026 C   0  0  0  0  0  0  0  0  0  0  0  0
   37.4375   14.9225  -10.0557 C   0  0  0  0  0  0  0  0  0  0  0  0
   38.0777   15.5856  -11.2422 C   0  0  0  0  0  0  0  0  0  0  0  0
   37.2255   15.2654  -12.3555 N   0  0  0  0  0  0  0  0  0  0  0  0
   35.8681   15.7429  -12.3604 C   0  0  0  0  0  0  0  0  0  0  0  0
   35.2145   15.5241  -11.0114 C   0  0  0  0  0  0  0  0  0  0  0  0
   36.1018   15.4378   -9.9023 N   0  0  0  0  0  0  0  0  0  0  0  0
   35.6861   15.8495   -8.5772 C   0  0  0  0  0  0  0  0  0  0  0  0
   35.2238   14.8280   -7.7743 C   0  0  0  0  0  0  0  0  0  0  0  0
   34.8099   15.0831   -6.5008 C   0  0  0  0  0  0  0  0  0  0  0  0
   34.8774   16.4019   -6.0644 C   0  0  0  0  0  0  0  0  0  0  0  0
   34.4775   16.6754   -4.8066 F   0  0  0  0  0  0  0  0  0  0  0  0
   35.3403   17.4292   -6.8670 C   0  0  0  0  0  0  0  0  0  0  0  0
   35.7592   17.1539   -8.1638 C   0  0  0  0  0  0  0  0  0  0  0  0
   41.0317   11.9355  -17.6130 C   0  0  0  0  0  0  0  0  0  0  0  0
   42.3733   12.1252  -17.2333 N   0  0  0  0  0  0  0  0  0  0  0  0
   40.7425   11.4469  -18.7360 O   0  0  0  0  0  0  0  0  0  0  0  0
   42.8186   13.0458  -17.3535 H   0  0  0  0  0  0  0  0  0  0  0  0
   42.9112   11.3407  -16.8363 H   0  0  0  0  0  0  0  0  0  0  0  0
 11 12  1  0  0  0
 12 13  1  0  0  0
 13 14  1  0  0  0
 14 15  1  0  0  0
 15 16  1  0  0  0
 16 17  1  0  0  0
 17 18  1  0  0  0
 18 19  2  0  0  0
 19 20  1  0  0  0
 20 21  2  0  0  0
 21 22  1  0  0  0
 21 23  1  0  0  0
 23 24  2  0  0  0
 14  1  1  0  0  0
  1  2  2  0  0  0
  2  3  1  0  0  0
  3  4  2  0  0  0
  4  5  1  0  0  0
  5  6  2  0  0  0
  6  7  1  0  0  0
  7  8  2  0  0  0
  8  9  1  0  0  0
  5 25  1  0  0  0
 25 26  1  0  0  0
 25 27  2  0  0  0
 17 12  1  0  0  0
 24 18  1  0  0  0
  9  1  1  0  0  0
  8  3  1  0  0  0
  9 10  1  0  0  0
 26 28  1  0  0  0
 26 29  1  0  0  0
M  END
> <minimizedAffinity>
-8.06834

> <CNNscore>
0.2562750876

> <CNNaffinity>
5.8546071053

> <CNN_VS>
1.5003899336

> <CNNaffinity_variance>
0.3426207900

$$$$
[H]c1c([H])c(N2C([H])([H])C([H])([H])N(c3nc4c([H])c(C(=O)N([H])[H])c([H])c([H])c4n3[H])C([H])([H])[C@@]2([H])C([H])([H])[H])c([H])c([H])c1F


 29 32  0  0  0  0  0  0  0  0999 V2000
   32.7511   14.8913  -11.7781 C   0  0  0  0  0  0  0  0  0  0  0  0
   32.9312   15.6286  -10.6786 N   0  0  0  0  0  0  0  0  0  0  0  0
   31.8459   15.5727   -9.9092 C   0  0  0  0  0  0  0  0  0  0  0  0
   31.4839   16.1276   -8.6935 C   0  0  0  0  0  0  0  0  0  0  0  0
   30.2533   15.8909   -8.1172 C   0  0  0  0  0  0  0  0  0  0  0  0
   29.3583   15.0599   -8.8000 C   0  0  0  0  0  0  0  0  0  0  0  0
   29.6807   14.4869  -10.0159 C   0  0  0  0  0  0  0  0  0  0  0  0
   30.9305   14.7550  -10.5573 C   0  0  0  0  0  0  0  0  0  0  0  0
   31.5037   14.3506  -11.6954 N   0  0  0  0  0  0  0  0  0  0  0  0
   31.0732   13.7238  -12.4060 H   0  0  0  0  0  0  0  0  0  0  0  0
   33.9653   11.7301  -14.9786 C   0  0  0  0  0  0  0  0  0  0  0  0
   34.2635   12.7401  -13.9005 C   0  0  0  0  0  0  0  0  0  0  0  0
   33.3401   13.9243  -13.9504 C   0  0  0  0  0  0  0  0  0  0  0  0
   33.6869   14.7187  -12.8029 N   0  0  0  0  0  0  0  0  0  0  0  0
   35.0053   15.2889  -12.7166 C   0  0  0  0  0  0  0  0  0  0  0  0
   36.0600   14.2679  -13.0909 C   0  0  0  0  0  0  0  0  0  0  0  0
   35.6234   13.2117  -13.9387 N   0  0  0  0  0  0  0  0  0  0  0  0
   36.5364   12.5630  -14.8573 C   0  0  0  0  0  0  0  0  0  0  0  0
   37.7735   12.2640  -14.3260 C   0  0  0  0  0  0  0  0  0  0  0  0
   38.7207   11.6448  -15.0860 C   0  0  0  0  0  0  0  0  0  0  0  0
   38.3791   11.3376  -16.3987 C   0  0  0  0  0  0  0  0  0  0  0  0
   39.2995   10.7207  -17.1662 F   0  0  0  0  0  0  0  0  0  0  0  0
   37.1394   11.6362  -16.9350 C   0  0  0  0  0  0  0  0  0  0  0  0
   36.1832   12.2680  -16.1479 C   0  0  0  0  0  0  0  0  0  0  0  0
   29.8606   16.4778   -6.8464 C   0  0  0  0  0  0  0  0  0  0  0  0
   30.7309   17.3666   -6.1886 N   0  0  0  0  0  0  0  0  0  0  0  0
   28.7428   16.1835   -6.3489 O   0  0  0  0  0  0  0  0  0  0  0  0
   31.4883   17.0021   -5.5939 H   0  0  0  0  0  0  0  0  0  0  0  0
   30.6082   18.3838   -6.3007 H   0  0  0  0  0  0  0  0  0  0  0  0
 11 12  1  0  0  0
 12 13  1  0  0  0
 13 14  1  0  0  0
 14 15  1  0  0  0
 15 16  1  0  0  0
 16 17  1  0  0  0
 17 18  1  0  0  0
 18 19  2  0  0  0
 19 20  1  0  0  0
 20 21  2  0  0  0
 21 22  1  0  0  0
 21 23  1  0  0  0
 23 24  2  0  0  0
 14  1  1  0  0  0
  1  2  2  0  0  0
  2  3  1  0  0  0
  3  4  2  0  0  0
  4  5  1  0  0  0
  5  6  2  0  0  0
  6  7  1  0  0  0
  7  8  2  0  0  0
  8  9  1  0  0  0
  5 25  1  0  0  0
 25 26  1  0  0  0
 25 27  2  0  0  0
 17 12  1  0  0  0
 24 18  1  0  0  0
  9  1  1  0  0  0
  8  3  1  0  0  0
  9 10  1  0  0  0
 26 28  1  0  0  0
 26 29  1  0  0  0
M  END
> <minimizedAffinity>
-8.32265

> <CNNscore>
0.2049316019

> <CNNaffinity>
5.6739177704

> <CNN_VS>
1.1627650261

> <CNNaffinity_variance>
0.2812114060

$$$$
[H]c1c([H])c(N2C([H])([H])C([H])([H])N(c3nc4c([H])c(C(=O)N([H])[H])c([H])c([H])c4n3[H])C([H])([H])[C@@]2([H])C([H])([H])[H])c([H])c([H])c1F


 29 32  0  0  0  0  0  0  0  0999 V2000
   41.0579   13.0247  -14.8912 C   0  0  0  0  0  0  0  0  0  0  0  0
   40.0671   13.5350  -14.1545 N   0  0  0  0  0  0  0  0  0  0  0  0
   38.8899   13.2021  -14.6802 C   0  0  0  0  0  0  0  0  0  0  0  0
   37.5692   13.4513  -14.3479 C   0  0  0  0  0  0  0  0  0  0  0  0
   36.5200   12.9662  -15.1006 C   0  0  0  0  0  0  0  0  0  0  0  0
   36.8234   12.1999  -16.2313 C   0  0  0  0  0  0  0  0  0  0  0  0
   38.1283   11.9288  -16.5977 C   0  0  0  0  0  0  0  0  0  0  0  0
   39.1510   12.4392  -15.8100 C   0  0  0  0  0  0  0  0  0  0  0  0
   40.4800   12.3439  -15.9196 N   0  0  0  0  0  0  0  0  0  0  0  0
   40.9954   11.8332  -16.6657 H   0  0  0  0  0  0  0  0  0  0  0  0
   43.9088   15.6062  -12.2607 C   0  0  0  0  0  0  0  0  0  0  0  0
   43.4950   14.9429  -13.5492 C   0  0  0  0  0  0  0  0  0  0  0  0
   42.8511   13.6038  -13.3259 C   0  0  0  0  0  0  0  0  0  0  0  0
   42.4239   13.1714  -14.6292 N   0  0  0  0  0  0  0  0  0  0  0  0
   43.4113   12.9348  -15.6488 C   0  0  0  0  0  0  0  0  0  0  0  0
   44.4301   14.0554  -15.6834 C   0  0  0  0  0  0  0  0  0  0  0  0
   44.5897   14.7822  -14.4705 N   0  0  0  0  0  0  0  0  0  0  0  0
   45.8546   15.4000  -14.1290 C   0  0  0  0  0  0  0  0  0  0  0  0
   45.9850   16.7109  -14.5372 C   0  0  0  0  0  0  0  0  0  0  0  0
   47.1255   17.4079  -14.2695 C   0  0  0  0  0  0  0  0  0  0  0  0
   48.1294   16.7394  -13.5771 C   0  0  0  0  0  0  0  0  0  0  0  0
   49.2638   17.4117  -13.2978 F   0  0  0  0  0  0  0  0  0  0  0  0
   48.0022   15.4245  -13.1663 C   0  0  0  0  0  0  0  0  0  0  0  0
   46.8331   14.7261  -13.4465 C   0  0  0  0  0  0  0  0  0  0  0  0
   35.1304   13.2317  -14.7654 C   0  0  0  0  0  0  0  0  0  0  0  0
   34.7164   14.5490  -14.4950 N   0  0  0  0  0  0  0  0  0  0  0  0
   34.3119   12.2769  -14.7219 O   0  0  0  0  0  0  0  0  0  0  0  0
   34.8436   14.9474  -13.5541 H   0  0  0  0  0  0  0  0  0  0  0  0
   34.2831   15.1150  -15.2396 H   0  0  0  0  0  0  0  0  0  0  0  0
 11 12  1  0  0  0
 12 13  1  0  0  0
 13 14  1  0  0  0
 14 15  1  0  0  0
 15 16  1  0  0  0
 16 17  1  0  0  0
 17 18  1  0  0  0
 18 19  2  0  0  0
 19 20  1  0  0  0
 20 21  2  0  0  0
 21 22  1  0  0  0
 21 23  1  0  0  0
 23 24  2  0  0  0
 14  1  1  0  0  0
  1  2  2  0  0  0
  2  3  1  0  0  0
  3  4  2  0  0  0
  4  5  1  0  0  0
  5  6  2  0  0  0
  6  7  1  0  0  0
  7  8  2  0  0  0
  8  9  1  0  0  0
  5 25  1  0  0  0
 25 26  1  0  0  0
 25 27  2  0  0  0
 17 12  1  0  0  0
 24 18  1  0  0  0
  9  1  1  0  0  0
  8  3  1  0  0  0
  9 10  1  0  0  0
 26 28  1  0  0  0
 26 29  1  0  0  0
M  END
> <minimizedAffinity>
-7.03622

> <CNNscore>
0.2008819580

> <CNNaffinity>
5.8469252586

> <CNN_VS>
1.1745418310

> <CNNaffinity_variance>
0.1549611986

$$$$
[H]c1c([H])c(N2C([H])([H])C([H])([H])N(c3nc4c([H])c(C(=O)N([H])[H])c([H])c([H])c4n3[H])C([H])([H])[C@@]2([H])C([H])([H])[H])c([H])c([H])c1F


 29 32  0  0  0  0  0  0  0  0999 V2000
   41.0432   13.2888  -15.0483 C   0  0  0  0  0  0  0  0  0  0  0  0
   39.8036   13.3458  -14.5532 N   0  0  0  0  0  0  0  0  0  0  0  0
   38.9695   12.6601  -15.3323 C   0  0  0  0  0  0  0  0  0  0  0  0
   37.6116   12.3909  -15.3065 C   0  0  0  0  0  0  0  0  0  0  0  0
   36.9969   11.6289  -16.2781 C   0  0  0  0  0  0  0  0  0  0  0  0
   37.7902   11.1215  -17.3130 C   0  0  0  0  0  0  0  0  0  0  0  0
   39.1489   11.3676  -17.3757 C   0  0  0  0  0  0  0  0  0  0  0  0
   39.7230   12.1408  -16.3759 C   0  0  0  0  0  0  0  0  0  0  0  0
   40.9852   12.5370  -16.1825 N   0  0  0  0  0  0  0  0  0  0  0  0
   41.7960   12.3102  -16.7942 H   0  0  0  0  0  0  0  0  0  0  0  0
   45.6585   12.6830  -14.8401 C   0  0  0  0  0  0  0  0  0  0  0  0
   44.3101   12.9858  -14.2388 C   0  0  0  0  0  0  0  0  0  0  0  0
   43.4381   13.7924  -15.1588 C   0  0  0  0  0  0  0  0  0  0  0  0
   42.1720   13.8915  -14.4840 N   0  0  0  0  0  0  0  0  0  0  0  0
   42.1016   14.5781  -13.2213 C   0  0  0  0  0  0  0  0  0  0  0  0
   43.2424   14.1608  -12.3161 C   0  0  0  0  0  0  0  0  0  0  0  0
   44.4038   13.6676  -12.9740 N   0  0  0  0  0  0  0  0  0  0  0  0
   45.7187   13.8195  -12.3858 C   0  0  0  0  0  0  0  0  0  0  0  0
   46.1558   12.7305  -11.6613 C   0  0  0  0  0  0  0  0  0  0  0  0
   47.3810   12.7444  -11.0638 C   0  0  0  0  0  0  0  0  0  0  0  0
   48.1501   13.8923  -11.2212 C   0  0  0  0  0  0  0  0  0  0  0  0
   49.3671   13.9251  -10.6426 F   0  0  0  0  0  0  0  0  0  0  0  0
   47.7149   14.9867  -11.9469 C   0  0  0  0  0  0  0  0  0  0  0  0
   46.4629   14.9582  -12.5507 C   0  0  0  0  0  0  0  0  0  0  0  0
   35.5701   11.3500  -16.2649 C   0  0  0  0  0  0  0  0  0  0  0  0
   34.7173   12.1095  -15.4428 N   0  0  0  0  0  0  0  0  0  0  0  0
   35.1135   10.4302  -16.9922 O   0  0  0  0  0  0  0  0  0  0  0  0
   34.6034   11.8629  -14.4496 H   0  0  0  0  0  0  0  0  0  0  0  0
   34.2044   12.9123  -15.8363 H   0  0  0  0  0  0  0  0  0  0  0  0
 11 12  1  0  0  0
 12 13  1  0  0  0
 13 14  1  0  0  0
 14 15  1  0  0  0
 15 16  1  0  0  0
 16 17  1  0  0  0
 17 18  1  0  0  0
 18 19  2  0  0  0
 19 20  1  0  0  0
 20 21  2  0  0  0
 21 22  1  0  0  0
 21 23  1  0  0  0
 23 24  2  0  0  0
 14  1  1  0  0  0
  1  2  2  0  0  0
  2  3  1  0  0  0
  3  4  2  0  0  0
  4  5  1  0  0  0
  5  6  2  0  0  0
  6  7  1  0  0  0
  7  8  2  0  0  0
  8  9  1  0  0  0
  5 25  1  0  0  0
 25 26  1  0  0  0
 25 27  2  0  0  0
 17 12  1  0  0  0
 24 18  1  0  0  0
  9  1  1  0  0  0
  8  3  1  0  0  0
  9 10  1  0  0  0
 26 28  1  0  0  0
 26 29  1  0  0  0
M  END
> <minimizedAffinity>
-6.95774

> <CNNscore>
0.1669658720

> <CNNaffinity>
5.8132767677

> <CNN_VS>
0.9706188440

> <CNNaffinity_variance>
0.2143563926

$$$$
[H]c1c([H])c(N2C([H])([H])C([H])([H])N(c3nc4c([H])c(C(=O)N([H])[H])c([H])c([H])c4n3[H])C([H])([H])[C@@]2([H])C([H])([H])[H])c([H])c([H])c1F


 29 32  0  0  0  0  0  0  0  0999 V2000
   41.4536   14.1268  -13.7280 C   0  0  0  0  0  0  0  0  0  0  0  0
   42.5396   13.3841  -13.9605 N   0  0  0  0  0  0  0  0  0  0  0  0
   43.5087   13.7144  -13.1092 C   0  0  0  0  0  0  0  0  0  0  0  0
   44.8091   13.2876  -12.9003 C   0  0  0  0  0  0  0  0  0  0  0  0
   45.6085   13.8283  -11.9148 C   0  0  0  0  0  0  0  0  0  0  0  0
   45.0673   14.8386  -11.1122 C   0  0  0  0  0  0  0  0  0  0  0  0
   43.7740   15.2933  -11.2885 C   0  0  0  0  0  0  0  0  0  0  0  0
   43.0077   14.7198  -12.2939 C   0  0  0  0  0  0  0  0  0  0  0  0
   41.7524   14.9555  -12.6893 N   0  0  0  0  0  0  0  0  0  0  0  0
   41.1037   15.6556  -12.2745 H   0  0  0  0  0  0  0  0  0  0  0  0
   37.0645   12.7015  -13.0834 C   0  0  0  0  0  0  0  0  0  0  0  0
   38.3445   12.8106  -13.8716 C   0  0  0  0  0  0  0  0  0  0  0  0
   39.0041   14.1514  -13.7147 C   0  0  0  0  0  0  0  0  0  0  0  0
   40.2469   14.0437  -14.4301 N   0  0  0  0  0  0  0  0  0  0  0  0
   40.2216   13.8147  -15.8506 C   0  0  0  0  0  0  0  0  0  0  0  0
   39.2201   12.7347  -16.2049 C   0  0  0  0  0  0  0  0  0  0  0  0
   38.1595   12.5471  -15.2750 N   0  0  0  0  0  0  0  0  0  0  0  0
   36.8621   12.0683  -15.7058 C   0  0  0  0  0  0  0  0  0  0  0  0
   36.9025   11.0523  -16.6375 C   0  0  0  0  0  0  0  0  0  0  0  0
   35.7484   10.5085  -17.1176 C   0  0  0  0  0  0  0  0  0  0  0  0
   34.5531   11.0231  -16.6273 C   0  0  0  0  0  0  0  0  0  0  0  0
   33.4000   10.4963  -17.0852 F   0  0  0  0  0  0  0  0  0  0  0  0
   34.5086   12.0423  -15.6929 C   0  0  0  0  0  0  0  0  0  0  0  0
   35.6939   12.5873  -15.2123 C   0  0  0  0  0  0  0  0  0  0  0  0
   46.9785   13.3939  -11.6952 C   0  0  0  0  0  0  0  0  0  0  0  0
   47.2743   12.5291  -10.6254 N   0  0  0  0  0  0  0  0  0  0  0  0
   47.8861   13.7975  -12.4678 O   0  0  0  0  0  0  0  0  0  0  0  0
   47.4215   12.9091   -9.6798 H   0  0  0  0  0  0  0  0  0  0  0  0
   47.3457   11.5140  -10.7895 H   0  0  0  0  0  0  0  0  0  0  0  0
 11 12  1  0  0  0
 12 13  1  0  0  0
 13 14  1  0  0  0
 14 15  1  0  0  0
 15 16  1  0  0  0
 16 17  1  0  0  0
 17 18  1  0  0  0
 18 19  2  0  0  0
 19 20  1  0  0  0
 20 21  2  0  0  0
 21 22  1  0  0  0
 21 23  1  0  0  0
 23 24  2  0  0  0
 14  1  1  0  0  0
  1  2  2  0  0  0
  2  3  1  0  0  0
  3  4  2  0  0  0
  4  5  1  0  0  0
  5  6  2  0  0  0
  6  7  1  0  0  0
  7  8  2  0  0  0
  8  9  1  0  0  0
  5 25  1  0  0  0
 25 26  1  0  0  0
 25 27  2  0  0  0
 17 12  1  0  0  0
 24 18  1  0  0  0
  9  1  1  0  0  0
  8  3  1  0  0  0
  9 10  1  0  0  0
 26 28  1  0  0  0
 26 29  1  0  0  0
M  END
> <minimizedAffinity>
-7.51553

> <CNNscore>
0.1104920655

> <CNNaffinity>
5.8297324181

> <CNN_VS>
0.6441391706

> <CNNaffinity_variance>
0.0906100646

$$$$
[H]c1c([H])c(Oc2c([H])c([H])c(C(F)(F)F)c([H])c2[H])c(N2C([H])([H])C([H])([H])N(c3c([H])c([H])c(C#N)c([H])c3[H])[C@@]([H])(C([H])([H])[H])C2([H])[H])c([H])c1F


 33 36  0  0  0  0  0  0  0  0999 V2000
   35.4687   12.4328  -14.9662 C   0  0  0  0  0  0  0  0  0  0  0  0
   34.3637   11.7000  -15.4212 C   0  0  0  0  0  0  0  0  0  0  0  0
   34.4005   10.8940  -16.5364 C   0  0  0  0  0  0  0  0  0  0  0  0
   33.3122   10.1963  -16.9615 F   0  0  0  0  0  0  0  0  0  0  0  0
   35.5745   10.8002  -17.2337 C   0  0  0  0  0  0  0  0  0  0  0  0
   36.6801   11.4917  -16.8294 C   0  0  0  0  0  0  0  0  0  0  0  0
   36.6396   12.3184  -15.6872 C   0  0  0  0  0  0  0  0  0  0  0  0
   38.1514   14.8106  -12.0014 C   0  0  0  0  0  0  0  0  0  0  0  0
   36.8052   14.5974  -12.5765 C   0  0  0  0  0  0  0  0  0  0  0  0
   36.4360   13.1488  -12.8421 C   0  0  0  0  0  0  0  0  0  0  0  0
   35.3272   13.2492  -13.8082 N   0  0  0  0  0  0  0  0  0  0  0  0
   34.2715   14.1499  -13.5169 C   0  0  0  0  0  0  0  0  0  0  0  0
   34.3955   14.8627  -12.2121 C   0  0  0  0  0  0  0  0  0  0  0  0
   35.7109   15.0536  -11.7121 N   0  0  0  0  0  0  0  0  0  0  0  0
   36.0217   15.5906  -10.4560 C   0  0  0  0  0  0  0  0  0  0  0  0
   36.2694   16.9199  -10.1984 C   0  0  0  0  0  0  0  0  0  0  0  0
   36.5838   17.3456   -8.9257 C   0  0  0  0  0  0  0  0  0  0  0  0
   36.6664   16.4818   -7.8520 C   0  0  0  0  0  0  0  0  0  0  0  0
   36.4190   15.1445   -8.0978 C   0  0  0  0  0  0  0  0  0  0  0  0
   36.1064   14.7167   -9.3596 C   0  0  0  0  0  0  0  0  0  0  0  0
   36.9977   16.8963   -6.5204 C   0  0  0  0  0  0  0  0  0  0  0  0
   37.2743   17.2170   -5.4535 N   0  0  0  0  0  0  0  0  0  0  0  0
   37.7265   13.0041  -15.2816 O   0  0  0  0  0  0  0  0  0  0  0  0
   39.0431   12.9481  -15.4861 C   0  0  0  0  0  0  0  0  0  0  0  0
   39.8629   13.4527  -14.4607 C   0  0  0  0  0  0  0  0  0  0  0  0
   41.2345   13.4613  -14.5440 C   0  0  0  0  0  0  0  0  0  0  0  0
   41.8584   12.9570  -15.6712 C   0  0  0  0  0  0  0  0  0  0  0  0
   41.1049   12.4569  -16.6831 C   0  0  0  0  0  0  0  0  0  0  0  0
   39.7148   12.4590  -16.5801 C   0  0  0  0  0  0  0  0  0  0  0  0
   43.3597   12.9998  -15.7057 C   0  0  0  0  0  0  0  0  0  0  0  0
   43.7832   11.8501  -16.3256 F   0  0  0  0  0  0  0  0  0  0  0  0
   43.8504   13.0161  -14.4115 F   0  0  0  0  0  0  0  0  0  0  0  0
   43.8140   14.0708  -16.4365 F   0  0  0  0  0  0  0  0  0  0  0  0
  8  9  1  0  0  0
  9 10  1  0  0  0
 10 11  1  0  0  0
 11 12  1  0  0  0
 12 13  1  0  0  0
 13 14  1  0  0  0
 14 15  1  0  0  0
 15 16  2  0  0  0
 16 17  1  0  0  0
 17 18  2  0  0  0
 18 19  1  0  0  0
 19 20  2  0  0  0
 18 21  1  0  0  0
 21 22  3  0  0  0
 11  1  1  0  0  0
  1  2  2  0  0  0
  2  3  1  0  0  0
  3  4  1  0  0  0
  3  5  2  0  0  0
  5  6  1  0  0  0
  6  7  2  0  0  0
  7 23  1  0  0  0
 23 24  1  0  0  0
 24 25  2  0  0  0
 25 26  1  0  0  0
 26 27  2  0  0  0
 27 28  1  0  0  0
 28 29  2  0  0  0
 27 30  1  0  0  0
 30 31  1  0  0  0
 30 32  1  0  0  0
 30 33  1  0  0  0
 14  9  1  0  0  0
 20 15  1  0  0  0
  7  1  1  0  0  0
 29 24  1  0  0  0
M  END
> <minimizedAffinity>
-9.52495

> <CNNscore>
0.4377130568

> <CNNaffinity>
6.9349250793

> <CNN_VS>
3.0355072021

> <CNNaffinity_variance>
0.2305140495

$$$$
[H]c1c([H])c(Oc2c([H])c([H])c(C(F)(F)F)c([H])c2[H])c(N2C([H])([H])C([H])([H])N(c3c([H])c([H])c(C#N)c([H])c3[H])[C@@]([H])(C([H])([H])[H])C2([H])[H])c([H])c1F


 33 36  0  0  0  0  0  0  0  0999 V2000
   36.5651   12.3937  -15.2278 C   0  0  0  0  0  0  0  0  0  0  0  0
   35.4492   11.6464  -15.6297 C   0  0  0  0  0  0  0  0  0  0  0  0
   35.4460   10.8335  -16.7404 C   0  0  0  0  0  0  0  0  0  0  0  0
   34.3477   10.1217  -17.1134 F   0  0  0  0  0  0  0  0  0  0  0  0
   36.5895   10.7473  -17.4876 C   0  0  0  0  0  0  0  0  0  0  0  0
   37.7041   11.4529  -17.1362 C   0  0  0  0  0  0  0  0  0  0  0  0
   37.7046   12.2867  -15.9984 C   0  0  0  0  0  0  0  0  0  0  0  0
   39.2643   15.1824  -12.6629 C   0  0  0  0  0  0  0  0  0  0  0  0
   37.8960   14.7794  -13.0554 C   0  0  0  0  0  0  0  0  0  0  0  0
   37.6919   13.2882  -13.2555 C   0  0  0  0  0  0  0  0  0  0  0  0
   36.4654   13.2163  -14.0698 N   0  0  0  0  0  0  0  0  0  0  0  0
   35.3451   13.9790  -13.6527 C   0  0  0  0  0  0  0  0  0  0  0  0
   35.5390   14.7377  -12.3828 C   0  0  0  0  0  0  0  0  0  0  0  0
   36.8703   15.1125  -12.0605 N   0  0  0  0  0  0  0  0  0  0  0  0
   37.2649   15.7199  -10.8613 C   0  0  0  0  0  0  0  0  0  0  0  0
   37.8037   15.0645   -9.7774 C   0  0  0  0  0  0  0  0  0  0  0  0
   38.1450   15.7540   -8.6337 C   0  0  0  0  0  0  0  0  0  0  0  0
   37.9720   17.1179   -8.5083 C   0  0  0  0  0  0  0  0  0  0  0  0
   37.4325   17.7874   -9.5904 C   0  0  0  0  0  0  0  0  0  0  0  0
   37.0920   17.1075  -10.7282 C   0  0  0  0  0  0  0  0  0  0  0  0
   38.3116   17.8584   -7.3290 C   0  0  0  0  0  0  0  0  0  0  0  0
   38.5685   18.4560   -6.3832 N   0  0  0  0  0  0  0  0  0  0  0  0
   38.8007   12.9864  -15.6448 O   0  0  0  0  0  0  0  0  0  0  0  0
   40.1202   12.8686  -15.7983 C   0  0  0  0  0  0  0  0  0  0  0  0
   40.5643   12.2210  -16.9652 C   0  0  0  0  0  0  0  0  0  0  0  0
   41.8956   12.0274  -17.2452 C   0  0  0  0  0  0  0  0  0  0  0  0
   42.8577   12.4805  -16.3601 C   0  0  0  0  0  0  0  0  0  0  0  0
   42.4727   13.1140  -15.2234 C   0  0  0  0  0  0  0  0  0  0  0  0
   41.1170   13.2989  -14.9567 C   0  0  0  0  0  0  0  0  0  0  0  0
   44.2955   12.2336  -16.7188 C   0  0  0  0  0  0  0  0  0  0  0  0
   44.3395   11.9887  -18.0692 F   0  0  0  0  0  0  0  0  0  0  0  0
   44.7525   11.1132  -16.0466 F   0  0  0  0  0  0  0  0  0  0  0  0
   45.0733   13.3360  -16.4595 F   0  0  0  0  0  0  0  0  0  0  0  0
  8  9  1  0  0  0
  9 10  1  0  0  0
 10 11  1  0  0  0
 11 12  1  0  0  0
 12 13  1  0  0  0
 13 14  1  0  0  0
 14 15  1  0  0  0
 15 16  2  0  0  0
 16 17  1  0  0  0
 17 18  2  0  0  0
 18 19  1  0  0  0
 19 20  2  0  0  0
 18 21  1  0  0  0
 21 22  3  0  0  0
 11  1  1  0  0  0
  1  2  2  0  0  0
  2  3  1  0  0  0
  3  4  1  0  0  0
  3  5  2  0  0  0
  5  6  1  0  0  0
  6  7  2  0  0  0
  7 23  1  0  0  0
 23 24  1  0  0  0
 24 25  2  0  0  0
 25 26  1  0  0  0
 26 27  2  0  0  0
 27 28  1  0  0  0
 28 29  2  0  0  0
 27 30  1  0  0  0
 30 31  1  0  0  0
 30 32  1  0  0  0
 30 33  1  0  0  0
 14  9  1  0  0  0
 20 15  1  0  0  0
  7  1  1  0  0  0
 29 24  1  0  0  0
M  END
> <minimizedAffinity>
-9.28452

> <CNNscore>
0.3383903205

> <CNNaffinity>
6.7487440109

> <CNN_VS>
2.2837097645

> <CNNaffinity_variance>
0.1694675535

$$$$
[H]c1c([H])c(Oc2c([H])c([H])c(C(F)(F)F)c([H])c2[H])c(N2C([H])([H])C([H])([H])N(c3c([H])c([H])c(C#N)c([H])c3[H])[C@@]([H])(C([H])([H])[H])C2([H])[H])c([H])c1F


 33 36  0  0  0  0  0  0  0  0999 V2000
   37.8825   12.4181  -15.7498 C   0  0  0  0  0  0  0  0  0  0  0  0
   37.1097   11.5355  -16.5173 C   0  0  0  0  0  0  0  0  0  0  0  0
   37.6163   10.8120  -17.5730 C   0  0  0  0  0  0  0  0  0  0  0  0
   36.8442    9.9651  -18.3069 F   0  0  0  0  0  0  0  0  0  0  0  0
   38.9403   10.9585  -17.8872 C   0  0  0  0  0  0  0  0  0  0  0  0
   39.7359   11.8034  -17.1682 C   0  0  0  0  0  0  0  0  0  0  0  0
   39.2142   12.5451  -16.0876 C   0  0  0  0  0  0  0  0  0  0  0  0
   39.0878   15.2180  -12.2357 C   0  0  0  0  0  0  0  0  0  0  0  0
   38.0219   14.7282  -13.1370 C   0  0  0  0  0  0  0  0  0  0  0  0
   38.0780   13.2460  -13.4615 C   0  0  0  0  0  0  0  0  0  0  0  0
   37.2632   13.1317  -14.6845 N   0  0  0  0  0  0  0  0  0  0  0  0
   35.9897   13.7553  -14.6953 C   0  0  0  0  0  0  0  0  0  0  0  0
   35.6057   14.4224  -13.4172 C   0  0  0  0  0  0  0  0  0  0  0  0
   36.6672   14.8867  -12.5960 N   0  0  0  0  0  0  0  0  0  0  0  0
   36.5116   15.4272  -11.3129 C   0  0  0  0  0  0  0  0  0  0  0  0
   36.5667   16.7671  -11.0022 C   0  0  0  0  0  0  0  0  0  0  0  0
   36.4169   17.1967   -9.7012 C   0  0  0  0  0  0  0  0  0  0  0  0
   36.2049   16.3265   -8.6506 C   0  0  0  0  0  0  0  0  0  0  0  0
   36.1467   14.9785   -8.9501 C   0  0  0  0  0  0  0  0  0  0  0  0
   36.2948   14.5468  -10.2402 C   0  0  0  0  0  0  0  0  0  0  0  0
   36.0526   16.7453   -7.2883 C   0  0  0  0  0  0  0  0  0  0  0  0
   35.9282   17.0956   -6.2022 N   0  0  0  0  0  0  0  0  0  0  0  0
   39.9929   13.3812  -15.3729 O   0  0  0  0  0  0  0  0  0  0  0  0
   41.2754   13.4456  -15.0131 C   0  0  0  0  0  0  0  0  0  0  0  0
   42.2230   13.0855  -15.9882 C   0  0  0  0  0  0  0  0  0  0  0  0
   43.5761   13.1014  -15.7490 C   0  0  0  0  0  0  0  0  0  0  0  0
   44.0508   13.4853  -14.5074 C   0  0  0  0  0  0  0  0  0  0  0  0
   43.1707   13.8441  -13.5387 C   0  0  0  0  0  0  0  0  0  0  0  0
   41.8018   13.8195  -13.8006 C   0  0  0  0  0  0  0  0  0  0  0  0
   45.5394   13.4761  -14.3054 C   0  0  0  0  0  0  0  0  0  0  0  0
   46.0865   12.7853  -15.3585 F   0  0  0  0  0  0  0  0  0  0  0  0
   45.8411   12.8106  -13.1298 F   0  0  0  0  0  0  0  0  0  0  0  0
   46.0548   14.7496  -14.3167 F   0  0  0  0  0  0  0  0  0  0  0  0
  8  9  1  0  0  0
  9 10  1  0  0  0
 10 11  1  0  0  0
 11 12  1  0  0  0
 12 13  1  0  0  0
 13 14  1  0  0  0
 14 15  1  0  0  0
 15 16  2  0  0  0
 16 17  1  0  0  0
 17 18  2  0  0  0
 18 19  1  0  0  0
 19 20  2  0  0  0
 18 21  1  0  0  0
 21 22  3  0  0  0
 11  1  1  0  0  0
  1  2  2  0  0  0
  2  3  1  0  0  0
  3  4  1  0  0  0
  3  5  2  0  0  0
  5  6  1  0  0  0
  6  7  2  0  0  0
  7 23  1  0  0  0
 23 24  1  0  0  0
 24 25  2  0  0  0
 25 26  1  0  0  0
 26 27  2  0  0  0
 27 28  1  0  0  0
 28 29  2  0  0  0
 27 30  1  0  0  0
 30 31  1  0  0  0
 30 32  1  0  0  0
 30 33  1  0  0  0
 14  9  1  0  0  0
 20 15  1  0  0  0
  7  1  1  0  0  0
 29 24  1  0  0  0
M  END
> <minimizedAffinity>
-8.93715

> <CNNscore>
0.2670691013

> <CNNaffinity>
6.6661362648

> <CNN_VS>
1.7803189754

> <CNNaffinity_variance>
0.1595483124

$$$$
[H]c1c([H])c(Oc2c([H])c([H])c(C(F)(F)F)c([H])c2[H])c(N2C([H])([H])C([H])([H])N(c3c([H])c([H])c(C#N)c([H])c3[H])[C@@]([H])(C([H])([H])[H])C2([H])[H])c([H])c1F


 33 36  0  0  0  0  0  0  0  0999 V2000
   39.1181   12.5311  -16.0374 C   0  0  0  0  0  0  0  0  0  0  0  0
   38.2069   11.7283  -16.7377 C   0  0  0  0  0  0  0  0  0  0  0  0
   38.5528   10.9804  -17.8402 C   0  0  0  0  0  0  0  0  0  0  0  0
   37.6483   10.2127  -18.5069 F   0  0  0  0  0  0  0  0  0  0  0  0
   39.8509   11.0193  -18.2725 C   0  0  0  0  0  0  0  0  0  0  0  0
   40.7771   11.7834  -17.6228 C   0  0  0  0  0  0  0  0  0  0  0  0
   40.4200   12.5503  -16.4940 C   0  0  0  0  0  0  0  0  0  0  0  0
   35.9038   12.2179  -12.6891 C   0  0  0  0  0  0  0  0  0  0  0  0
   37.1677   12.8270  -13.1579 C   0  0  0  0  0  0  0  0  0  0  0  0
   37.2175   13.1576  -14.6391 C   0  0  0  0  0  0  0  0  0  0  0  0
   38.6604   13.2784  -14.9151 N   0  0  0  0  0  0  0  0  0  0  0  0
   39.4396   14.0777  -14.0406 C   0  0  0  0  0  0  0  0  0  0  0  0
   38.6716   14.7522  -12.9537 C   0  0  0  0  0  0  0  0  0  0  0  0
   37.4733   14.1180  -12.5312 N   0  0  0  0  0  0  0  0  0  0  0  0
   36.5612   14.6559  -11.6139 C   0  0  0  0  0  0  0  0  0  0  0  0
   35.3763   15.2756  -11.9405 C   0  0  0  0  0  0  0  0  0  0  0  0
   34.5539   15.7878  -10.9602 C   0  0  0  0  0  0  0  0  0  0  0  0
   34.8616   15.7108   -9.6166 C   0  0  0  0  0  0  0  0  0  0  0  0
   36.0485   15.0900   -9.2759 C   0  0  0  0  0  0  0  0  0  0  0  0
   36.8685   14.5798  -10.2454 C   0  0  0  0  0  0  0  0  0  0  0  0
   34.0284   16.2405   -8.5775 C   0  0  0  0  0  0  0  0  0  0  0  0
   33.3655   16.6528   -7.7358 N   0  0  0  0  0  0  0  0  0  0  0  0
   41.3283   13.3070  -15.8471 O   0  0  0  0  0  0  0  0  0  0  0  0
   42.6033   13.1887  -15.4744 C   0  0  0  0  0  0  0  0  0  0  0  0
   42.8966   13.4762  -14.1292 C   0  0  0  0  0  0  0  0  0  0  0  0
   44.1685   13.3998  -13.6147 C   0  0  0  0  0  0  0  0  0  0  0  0
   45.2201   13.0254  -14.4322 C   0  0  0  0  0  0  0  0  0  0  0  0
   44.9805   12.7357  -15.7363 C   0  0  0  0  0  0  0  0  0  0  0  0
   43.6834   12.8211  -16.2395 C   0  0  0  0  0  0  0  0  0  0  0  0
   46.5876   12.9663  -13.8132 C   0  0  0  0  0  0  0  0  0  0  0  0
   47.4689   12.6279  -14.8104 F   0  0  0  0  0  0  0  0  0  0  0  0
   46.6119   11.9802  -12.8421 F   0  0  0  0  0  0  0  0  0  0  0  0
   46.9627   14.1878  -13.3086 F   0  0  0  0  0  0  0  0  0  0  0  0
  8  9  1  0  0  0
  9 10  1  0  0  0
 10 11  1  0  0  0
 11 12  1  0  0  0
 12 13  1  0  0  0
 13 14  1  0  0  0
 14 15  1  0  0  0
 15 16  2  0  0  0
 16 17  1  0  0  0
 17 18  2  0  0  0
 18 19  1  0  0  0
 19 20  2  0  0  0
 18 21  1  0  0  0
 21 22  3  0  0  0
 11  1  1  0  0  0
  1  2  2  0  0  0
  2  3  1  0  0  0
  3  4  1  0  0  0
  3  5  2  0  0  0
  5  6  1  0  0  0
  6  7  2  0  0  0
  7 23  1  0  0  0
 23 24  1  0  0  0
 24 25  2  0  0  0
 25 26  1  0  0  0
 26 27  2  0  0  0
 27 28  1  0  0  0
 28 29  2  0  0  0
 27 30  1  0  0  0
 30 31  1  0  0  0
 30 32  1  0  0  0
 30 33  1  0  0  0
 14  9  1  0  0  0
 20 15  1  0  0  0
  7  1  1  0  0  0
 29 24  1  0  0  0
M  END
> <minimizedAffinity>
-9.30424

> <CNNscore>
0.2464024872

> <CNNaffinity>
6.5433206558

> <CNN_VS>
1.6122905016

> <CNNaffinity_variance>
0.1228946075

$$$$
[H]c1c([H])c(Oc2c([H])c([H])c(C(F)(F)F)c([H])c2[H])c(N2C([H])([H])C([H])([H])N(c3c([H])c([H])c(C#N)c([H])c3[H])[C@@]([H])(C([H])([H])[H])C2([H])[H])c([H])c1F


 33 36  0  0  0  0  0  0  0  0999 V2000
   40.1760   13.8813  -14.3626 C   0  0  0  0  0  0  0  0  0  0  0  0
   41.5312   13.7946  -14.0148 C   0  0  0  0  0  0  0  0  0  0  0  0
   42.4869   13.2412  -14.8365 C   0  0  0  0  0  0  0  0  0  0  0  0
   43.7962   13.1635  -14.4738 F   0  0  0  0  0  0  0  0  0  0  0  0
   42.0959   12.7548  -16.0546 C   0  0  0  0  0  0  0  0  0  0  0  0
   40.7881   12.8186  -16.4412 C   0  0  0  0  0  0  0  0  0  0  0  0
   39.8102   13.3846  -15.5968 C   0  0  0  0  0  0  0  0  0  0  0  0
   36.1621   12.8164  -12.2659 C   0  0  0  0  0  0  0  0  0  0  0  0
   37.3848   13.6491  -12.2798 C   0  0  0  0  0  0  0  0  0  0  0  0
   37.8493   14.0953  -13.6548 C   0  0  0  0  0  0  0  0  0  0  0  0
   39.2609   14.4603  -13.4380 N   0  0  0  0  0  0  0  0  0  0  0  0
   39.5684   15.3022  -12.3391 C   0  0  0  0  0  0  0  0  0  0  0  0
   38.3883   15.7639  -11.5516 C   0  0  0  0  0  0  0  0  0  0  0  0
   37.2460   14.9203  -11.5604 N   0  0  0  0  0  0  0  0  0  0  0  0
   36.0095   15.2379  -10.9832 C   0  0  0  0  0  0  0  0  0  0  0  0
   35.7832   15.4204   -9.6378 C   0  0  0  0  0  0  0  0  0  0  0  0
   34.5215   15.7152   -9.1678 C   0  0  0  0  0  0  0  0  0  0  0  0
   33.4289   15.8445  -10.0018 C   0  0  0  0  0  0  0  0  0  0  0  0
   33.6437   15.6643  -11.3551 C   0  0  0  0  0  0  0  0  0  0  0  0
   34.8945   15.3715  -11.8268 C   0  0  0  0  0  0  0  0  0  0  0  0
   32.1056   16.1437   -9.5395 C   0  0  0  0  0  0  0  0  0  0  0  0
   31.0429   16.3677   -9.1678 N   0  0  0  0  0  0  0  0  0  0  0  0
   38.5173   13.4514  -15.9711 O   0  0  0  0  0  0  0  0  0  0  0  0
   37.5252   12.5893  -16.1969 C   0  0  0  0  0  0  0  0  0  0  0  0
   36.2547   12.9486  -15.7122 C   0  0  0  0  0  0  0  0  0  0  0  0
   35.1473   12.1505  -15.8710 C   0  0  0  0  0  0  0  0  0  0  0  0
   35.2603   10.9406  -16.5325 C   0  0  0  0  0  0  0  0  0  0  0  0
   36.4677   10.5570  -17.0194 C   0  0  0  0  0  0  0  0  0  0  0  0
   37.5794   11.3800  -16.8463 C   0  0  0  0  0  0  0  0  0  0  0  0
   34.0158   10.1102  -16.6687 C   0  0  0  0  0  0  0  0  0  0  0  0
   33.2866   10.2823  -15.5180 F   0  0  0  0  0  0  0  0  0  0  0  0
   34.3626    8.7750  -16.7822 F   0  0  0  0  0  0  0  0  0  0  0  0
   33.2471   10.5289  -17.7276 F   0  0  0  0  0  0  0  0  0  0  0  0
  8  9  1  0  0  0
  9 10  1  0  0  0
 10 11  1  0  0  0
 11 12  1  0  0  0
 12 13  1  0  0  0
 13 14  1  0  0  0
 14 15  1  0  0  0
 15 16  2  0  0  0
 16 17  1  0  0  0
 17 18  2  0  0  0
 18 19  1  0  0  0
 19 20  2  0  0  0
 18 21  1  0  0  0
 21 22  3  0  0  0
 11  1  1  0  0  0
  1  2  2  0  0  0
  2  3  1  0  0  0
  3  4  1  0  0  0
  3  5  2  0  0  0
  5  6  1  0  0  0
  6  7  2  0  0  0
  7 23  1  0  0  0
 23 24  1  0  0  0
 24 25  2  0  0  0
 25 26  1  0  0  0
 26 27  2  0  0  0
 27 28  1  0  0  0
 28 29  2  0  0  0
 27 30  1  0  0  0
 30 31  1  0  0  0
 30 32  1  0  0  0
 30 33  1  0  0  0
 14  9  1  0  0  0
 20 15  1  0  0  0
  7  1  1  0  0  0
 29 24  1  0  0  0
M  END
> <minimizedAffinity>
-9.00211

> <CNNscore>
0.1789259464

> <CNNaffinity>
6.7244920731

> <CNN_VS>
1.2031861544

> <CNNaffinity_variance>
0.1488080025

$$$$
[H]c1c([H])c(Oc2c([H])c([H])c(C(F)(F)F)c([H])c2[H])c(N2C([H])([H])C([H])([H])N(c3c([H])c([H])c(C#N)c([H])c3[H])[C@@]([H])(C([H])([H])[H])C2([H])[H])c([H])c1F


 33 36  0  0  0  0  0  0  0  0999 V2000
   36.7361   13.8341  -13.4871 C   0  0  0  0  0  0  0  0  0  0  0  0
   35.4683   13.2380  -13.4382 C   0  0  0  0  0  0  0  0  0  0  0  0
   35.0156   12.3490  -14.3865 C   0  0  0  0  0  0  0  0  0  0  0  0
   33.7778   11.7876  -14.3200 F   0  0  0  0  0  0  0  0  0  0  0  0
   35.8452   12.0281  -15.4268 C   0  0  0  0  0  0  0  0  0  0  0  0
   37.0908   12.5792  -15.5179 C   0  0  0  0  0  0  0  0  0  0  0  0
   37.5520   13.4913  -14.5457 C   0  0  0  0  0  0  0  0  0  0  0  0
   34.7742   16.1204   -9.9425 C   0  0  0  0  0  0  0  0  0  0  0  0
   36.0128   15.6132  -10.5726 C   0  0  0  0  0  0  0  0  0  0  0  0
   36.0582   15.7155  -12.0869 C   0  0  0  0  0  0  0  0  0  0  0  0
   37.1081   14.7522  -12.4642 N   0  0  0  0  0  0  0  0  0  0  0  0
   38.3423   14.8077  -11.7681 C   0  0  0  0  0  0  0  0  0  0  0  0
   38.4416   15.8944  -10.7506 C   0  0  0  0  0  0  0  0  0  0  0  0
   37.2243   16.3343  -10.1663 N   0  0  0  0  0  0  0  0  0  0  0  0
   37.1020   17.4180   -9.2869 C   0  0  0  0  0  0  0  0  0  0  0  0
   36.4107   17.4025   -8.0968 C   0  0  0  0  0  0  0  0  0  0  0  0
   36.3366   18.5309   -7.3087 C   0  0  0  0  0  0  0  0  0  0  0  0
   36.9408   19.7223   -7.6575 C   0  0  0  0  0  0  0  0  0  0  0  0
   37.6387   19.7501   -8.8500 C   0  0  0  0  0  0  0  0  0  0  0  0
   37.7154   18.6325   -9.6360 C   0  0  0  0  0  0  0  0  0  0  0  0
   36.8741   20.9119   -6.8606 C   0  0  0  0  0  0  0  0  0  0  0  0
   36.8358   21.8624   -6.2181 N   0  0  0  0  0  0  0  0  0  0  0  0
   38.7803   14.0397  -14.6285 O   0  0  0  0  0  0  0  0  0  0  0  0
   39.9889   13.6583  -15.0434 C   0  0  0  0  0  0  0  0  0  0  0  0
   41.0495   13.8251  -14.1349 C   0  0  0  0  0  0  0  0  0  0  0  0
   42.3451   13.4793  -14.4354 C   0  0  0  0  0  0  0  0  0  0  0  0
   42.6437   12.9414  -15.6747 C   0  0  0  0  0  0  0  0  0  0  0  0
   41.6491   12.7601  -16.5802 C   0  0  0  0  0  0  0  0  0  0  0  0
   40.3417   13.1192  -16.2567 C   0  0  0  0  0  0  0  0  0  0  0  0
   44.0787   12.5894  -15.9460 C   0  0  0  0  0  0  0  0  0  0  0  0
   44.5658   13.5252  -16.8250 F   0  0  0  0  0  0  0  0  0  0  0  0
   44.1426   11.3415  -16.5415 F   0  0  0  0  0  0  0  0  0  0  0  0
   44.8342   12.6465  -14.8000 F   0  0  0  0  0  0  0  0  0  0  0  0
  8  9  1  0  0  0
  9 10  1  0  0  0
 10 11  1  0  0  0
 11 12  1  0  0  0
 12 13  1  0  0  0
 13 14  1  0  0  0
 14 15  1  0  0  0
 15 16  2  0  0  0
 16 17  1  0  0  0
 17 18  2  0  0  0
 18 19  1  0  0  0
 19 20  2  0  0  0
 18 21  1  0  0  0
 21 22  3  0  0  0
 11  1  1  0  0  0
  1  2  2  0  0  0
  2  3  1  0  0  0
  3  4  1  0  0  0
  3  5  2  0  0  0
  5  6  1  0  0  0
  6  7  2  0  0  0
  7 23  1  0  0  0
 23 24  1  0  0  0
 24 25  2  0  0  0
 25 26  1  0  0  0
 26 27  2  0  0  0
 27 28  1  0  0  0
 28 29  2  0  0  0
 27 30  1  0  0  0
 30 31  1  0  0  0
 30 32  1  0  0  0
 30 33  1  0  0  0
 14  9  1  0  0  0
 20 15  1  0  0  0
  7  1  1  0  0  0
 29 24  1  0  0  0
M  END
> <minimizedAffinity>
-9.08867

> <CNNscore>
0.1787821651

> <CNNaffinity>
6.1566033363

> <CNN_VS>
1.1006908417

> <CNNaffinity_variance>
0.1950075924

$$$$
[H]c1c([H])c(Oc2c([H])c([H])c(C(F)(F)F)c([H])c2[H])c(N2C([H])([H])C([H])([H])N(c3c([H])c([H])c(C#N)c([H])c3[H])[C@@]([H])(C([H])([H])[H])C2([H])[H])c([H])c1F


 33 36  0  0  0  0  0  0  0  0999 V2000
   40.7013   12.2751  -16.6674 C   0  0  0  0  0  0  0  0  0  0  0  0
   40.7637   11.7474  -17.9646 C   0  0  0  0  0  0  0  0  0  0  0  0
   39.6857   11.1707  -18.5970 C   0  0  0  0  0  0  0  0  0  0  0  0
   39.7728   10.6601  -19.8554 F   0  0  0  0  0  0  0  0  0  0  0  0
   38.4930   11.1125  -17.9282 C   0  0  0  0  0  0  0  0  0  0  0  0
   38.3798   11.6153  -16.6640 C   0  0  0  0  0  0  0  0  0  0  0  0
   39.4863   12.2044  -16.0173 C   0  0  0  0  0  0  0  0  0  0  0  0
   41.9647   14.6139  -12.8497 C   0  0  0  0  0  0  0  0  0  0  0  0
   42.3754   13.7764  -13.9979 C   0  0  0  0  0  0  0  0  0  0  0  0
   41.6496   14.0619  -15.3007 C   0  0  0  0  0  0  0  0  0  0  0  0
   41.8757   12.8403  -16.0939 N   0  0  0  0  0  0  0  0  0  0  0  0
   43.1993   12.3390  -16.1795 C   0  0  0  0  0  0  0  0  0  0  0  0
   44.2291   13.1607  -15.4793 C   0  0  0  0  0  0  0  0  0  0  0  0
   43.7845   13.9349  -14.3749 N   0  0  0  0  0  0  0  0  0  0  0  0
   44.5724   14.8548  -13.6709 C   0  0  0  0  0  0  0  0  0  0  0  0
   44.8644   16.1341  -14.0866 C   0  0  0  0  0  0  0  0  0  0  0  0
   45.6658   16.9580  -13.3257 C   0  0  0  0  0  0  0  0  0  0  0  0
   46.2128   16.5586  -12.1227 C   0  0  0  0  0  0  0  0  0  0  0  0
   45.9261   15.2764  -11.6941 C   0  0  0  0  0  0  0  0  0  0  0  0
   45.1309   14.4545  -12.4458 C   0  0  0  0  0  0  0  0  0  0  0  0
   47.0544   17.3919  -11.3152 C   0  0  0  0  0  0  0  0  0  0  0  0
   47.7320   18.0678  -10.6814 N   0  0  0  0  0  0  0  0  0  0  0  0
   39.3827   12.7031  -14.7696 O   0  0  0  0  0  0  0  0  0  0  0  0
   38.4061   13.1526  -13.9806 C   0  0  0  0  0  0  0  0  0  0  0  0
   38.3893   14.5352  -13.7228 C   0  0  0  0  0  0  0  0  0  0  0  0
   37.4427   15.1292  -12.9231 C   0  0  0  0  0  0  0  0  0  0  0  0
   36.4546   14.3579  -12.3376 C   0  0  0  0  0  0  0  0  0  0  0  0
   36.4318   13.0197  -12.5631 C   0  0  0  0  0  0  0  0  0  0  0  0
   37.4021   12.4360  -13.3760 C   0  0  0  0  0  0  0  0  0  0  0  0
   35.4525   15.0639  -11.4692 C   0  0  0  0  0  0  0  0  0  0  0  0
   35.6992   16.4102  -11.5791 F   0  0  0  0  0  0  0  0  0  0  0  0
   35.6350   14.6826  -10.1511 F   0  0  0  0  0  0  0  0  0  0  0  0
   34.1673   14.8295  -11.8942 F   0  0  0  0  0  0  0  0  0  0  0  0
  8  9  1  0  0  0
  9 10  1  0  0  0
 10 11  1  0  0  0
 11 12  1  0  0  0
 12 13  1  0  0  0
 13 14  1  0  0  0
 14 15  1  0  0  0
 15 16  2  0  0  0
 16 17  1  0  0  0
 17 18  2  0  0  0
 18 19  1  0  0  0
 19 20  2  0  0  0
 18 21  1  0  0  0
 21 22  3  0  0  0
 11  1  1  0  0  0
  1  2  2  0  0  0
  2  3  1  0  0  0
  3  4  1  0  0  0
  3  5  2  0  0  0
  5  6  1  0  0  0
  6  7  2  0  0  0
  7 23  1  0  0  0
 23 24  1  0  0  0
 24 25  2  0  0  0
 25 26  1  0  0  0
 26 27  2  0  0  0
 27 28  1  0  0  0
 28 29  2  0  0  0
 27 30  1  0  0  0
 30 31  1  0  0  0
 30 32  1  0  0  0
 30 33  1  0  0  0
 14  9  1  0  0  0
 20 15  1  0  0  0
  7  1  1  0  0  0
 29 24  1  0  0  0
M  END
> <minimizedAffinity>
-7.94739

> <CNNscore>
0.1494036168

> <CNNaffinity>
6.4204506874

> <CNN_VS>
0.9592385292

> <CNNaffinity_variance>
0.1463352442

$$$$
[H]c1c([H])c(Oc2c([H])c([H])c(C(F)(F)F)c([H])c2[H])c(N2C([H])([H])C([H])([H])N(c3c([H])c([H])c(C#N)c([H])c3[H])[C@@]([H])(C([H])([H])[H])C2([H])[H])c([H])c1F


 33 36  0  0  0  0  0  0  0  0999 V2000
   35.7402   13.5419  -13.5571 C   0  0  0  0  0  0  0  0  0  0  0  0
   34.5565   12.8309  -13.7993 C   0  0  0  0  0  0  0  0  0  0  0  0
   34.3848   11.9983  -14.8819 C   0  0  0  0  0  0  0  0  0  0  0  0
   33.2235   11.3227  -15.0985 F   0  0  0  0  0  0  0  0  0  0  0  0
   35.4217   11.8543  -15.7636 C   0  0  0  0  0  0  0  0  0  0  0  0
   36.5962   12.5228  -15.5703 C   0  0  0  0  0  0  0  0  0  0  0  0
   36.7694   13.3768  -14.4611 C   0  0  0  0  0  0  0  0  0  0  0  0
   38.9616   15.7902  -11.0653 C   0  0  0  0  0  0  0  0  0  0  0  0
   37.5368   15.6577  -11.4409 C   0  0  0  0  0  0  0  0  0  0  0  0
   37.0411   14.2325  -11.6101 C   0  0  0  0  0  0  0  0  0  0  0  0
   35.8162   14.3889  -12.4150 N   0  0  0  0  0  0  0  0  0  0  0  0
   34.8723   15.3649  -12.0060 C   0  0  0  0  0  0  0  0  0  0  0  0
   35.2247   16.0934  -10.7525 C   0  0  0  0  0  0  0  0  0  0  0  0
   36.6070   16.2043  -10.4463 N   0  0  0  0  0  0  0  0  0  0  0  0
   37.1256   16.7438   -9.2619 C   0  0  0  0  0  0  0  0  0  0  0  0
   37.3848   18.0777   -9.0421 C   0  0  0  0  0  0  0  0  0  0  0  0
   37.9125   18.5059   -7.8430 C   0  0  0  0  0  0  0  0  0  0  0  0
   38.2063   17.6402   -6.8085 C   0  0  0  0  0  0  0  0  0  0  0  0
   37.9497   16.2983   -7.0169 C   0  0  0  0  0  0  0  0  0  0  0  0
   37.4257   15.8679   -8.2057 C   0  0  0  0  0  0  0  0  0  0  0  0
   38.7615   18.0574   -5.5546 C   0  0  0  0  0  0  0  0  0  0  0  0
   39.1922   18.3981   -4.5466 N   0  0  0  0  0  0  0  0  0  0  0  0
   37.9257   14.0401  -14.2632 O   0  0  0  0  0  0  0  0  0  0  0  0
   39.2221   13.8211  -14.4862 C   0  0  0  0  0  0  0  0  0  0  0  0
   40.1276   14.4517  -13.6140 C   0  0  0  0  0  0  0  0  0  0  0  0
   41.4898   14.3160  -13.7339 C   0  0  0  0  0  0  0  0  0  0  0  0
   42.0167   13.5311  -14.7442 C   0  0  0  0  0  0  0  0  0  0  0  0
   41.1781   12.9017  -15.6058 C   0  0  0  0  0  0  0  0  0  0  0  0
   39.7993   13.0536  -15.4685 C   0  0  0  0  0  0  0  0  0  0  0  0
   43.5131   13.4269  -14.8272 C   0  0  0  0  0  0  0  0  0  0  0  0
   43.9516   12.9315  -13.6240 F   0  0  0  0  0  0  0  0  0  0  0  0
   44.0533   14.6875  -15.0147 F   0  0  0  0  0  0  0  0  0  0  0  0
   43.9009   12.5543  -15.8149 F   0  0  0  0  0  0  0  0  0  0  0  0
  8  9  1  0  0  0
  9 10  1  0  0  0
 10 11  1  0  0  0
 11 12  1  0  0  0
 12 13  1  0  0  0
 13 14  1  0  0  0
 14 15  1  0  0  0
 15 16  2  0  0  0
 16 17  1  0  0  0
 17 18  2  0  0  0
 18 19  1  0  0  0
 19 20  2  0  0  0
 18 21  1  0  0  0
 21 22  3  0  0  0
 11  1  1  0  0  0
  1  2  2  0  0  0
  2  3  1  0  0  0
  3  4  1  0  0  0
  3  5  2  0  0  0
  5  6  1  0  0  0
  6  7  2  0  0  0
  7 23  1  0  0  0
 23 24  1  0  0  0
 24 25  2  0  0  0
 25 26  1  0  0  0
 26 27  2  0  0  0
 27 28  1  0  0  0
 28 29  2  0  0  0
 27 30  1  0  0  0
 30 31  1  0  0  0
 30 32  1  0  0  0
 30 33  1  0  0  0
 14  9  1  0  0  0
 20 15  1  0  0  0
  7  1  1  0  0  0
 29 24  1  0  0  0
M  END
> <minimizedAffinity>
-8.19866

> <CNNscore>
0.1362252235

> <CNNaffinity>
6.0540494919

> <CNN_VS>
0.8247142434

> <CNNaffinity_variance>
0.3657178879

$$$$
[H]c1c([H])c(Oc2c([H])c([H])c(C(F)(F)F)c([H])c2[H])c(N2C([H])([H])C([H])([H])N(c3c([H])c([H])c(C#N)c([H])c3[H])[C@@]([H])(C([H])([H])[H])C2([H])[H])c([H])c1F


 33 36  0  0  0  0  0  0  0  0999 V2000
   37.8715   17.2768   -8.8188 C   0  0  0  0  0  0  0  0  0  0  0  0
   37.8270   18.6587   -9.0502 C   0  0  0  0  0  0  0  0  0  0  0  0
   37.9376   19.5953   -8.0476 C   0  0  0  0  0  0  0  0  0  0  0  0
   37.8859   20.9321   -8.2970 F   0  0  0  0  0  0  0  0  0  0  0  0
   38.1026   19.1565   -6.7617 C   0  0  0  0  0  0  0  0  0  0  0  0
   38.1553   17.8207   -6.4847 C   0  0  0  0  0  0  0  0  0  0  0  0
   38.0402   16.8626   -7.5136 C   0  0  0  0  0  0  0  0  0  0  0  0
   34.5700   15.7903  -11.7397 C   0  0  0  0  0  0  0  0  0  0  0  0
   36.0136   15.9529  -11.4605 C   0  0  0  0  0  0  0  0  0  0  0  0
   36.4251   15.7179  -10.0179 C   0  0  0  0  0  0  0  0  0  0  0  0
   37.7352   16.3867   -9.9218 N   0  0  0  0  0  0  0  0  0  0  0  0
   38.6960   16.1138  -10.9283 C   0  0  0  0  0  0  0  0  0  0  0  0
   38.2658   15.1207  -11.9552 C   0  0  0  0  0  0  0  0  0  0  0  0
   36.8701   15.0148  -12.1948 N   0  0  0  0  0  0  0  0  0  0  0  0
   36.2690   14.0627  -13.0285 C   0  0  0  0  0  0  0  0  0  0  0  0
   35.6351   12.9181  -12.6011 C   0  0  0  0  0  0  0  0  0  0  0  0
   35.0883   12.0340  -13.5062 C   0  0  0  0  0  0  0  0  0  0  0  0
   35.1408   12.2392  -14.8704 C   0  0  0  0  0  0  0  0  0  0  0  0
   35.7742   13.3855  -15.3120 C   0  0  0  0  0  0  0  0  0  0  0  0
   36.3186   14.2665  -14.4174 C   0  0  0  0  0  0  0  0  0  0  0  0
   34.5870   11.3336  -15.8336 C   0  0  0  0  0  0  0  0  0  0  0  0
   34.1581   10.6048  -16.6098 N   0  0  0  0  0  0  0  0  0  0  0  0
   38.0913   15.5423   -7.2483 O   0  0  0  0  0  0  0  0  0  0  0  0
   39.0327   14.6477   -6.9452 C   0  0  0  0  0  0  0  0  0  0  0  0
   39.1622   14.3035   -5.5877 C   0  0  0  0  0  0  0  0  0  0  0  0
   40.0944   13.3999   -5.1372 C   0  0  0  0  0  0  0  0  0  0  0  0
   40.9507   12.7890   -6.0359 C   0  0  0  0  0  0  0  0  0  0  0  0
   40.8573   13.0899   -7.3560 C   0  0  0  0  0  0  0  0  0  0  0  0
   39.9061   14.0106   -7.7927 C   0  0  0  0  0  0  0  0  0  0  0  0
   41.9518   11.8155   -5.4819 C   0  0  0  0  0  0  0  0  0  0  0  0
   41.3441   11.1591   -4.4400 F   0  0  0  0  0  0  0  0  0  0  0  0
   43.0474   12.5076   -4.9955 F   0  0  0  0  0  0  0  0  0  0  0  0
   42.3152   10.8810   -6.4211 F   0  0  0  0  0  0  0  0  0  0  0  0
  8  9  1  0  0  0
  9 10  1  0  0  0
 10 11  1  0  0  0
 11 12  1  0  0  0
 12 13  1  0  0  0
 13 14  1  0  0  0
 14 15  1  0  0  0
 15 16  2  0  0  0
 16 17  1  0  0  0
 17 18  2  0  0  0
 18 19  1  0  0  0
 19 20  2  0  0  0
 18 21  1  0  0  0
 21 22  3  0  0  0
 11  1  1  0  0  0
  1  2  2  0  0  0
  2  3  1  0  0  0
  3  4  1  0  0  0
  3  5  2  0  0  0
  5  6  1  0  0  0
  6  7  2  0  0  0
  7 23  1  0  0  0
 23 24  1  0  0  0
 24 25  2  0  0  0
 25 26  1  0  0  0
 26 27  2  0  0  0
 27 28  1  0  0  0
 28 29  2  0  0  0
 27 30  1  0  0  0
 30 31  1  0  0  0
 30 32  1  0  0  0
 30 33  1  0  0  0
 14  9  1  0  0  0
 20 15  1  0  0  0
  7  1  1  0  0  0
 29 24  1  0  0  0
M  END
> <minimizedAffinity>
-7.61095

> <CNNscore>
0.1344945282

> <CNNaffinity>
5.7699255943

> <CNN_VS>
0.7760234475

> <CNNaffinity_variance>
0.1802828610

$$$$
[H]c1c([H])c(C(F)(F)F)c([H])c([H])c1N1C([H])([H])C([H])([H])N(c2nc3c([H])c(F)c([H])c([H])c3c(=O)n2[H])C([H])([H])[C@@]1([H])C([H])([H])[H]


 30 33  0  0  0  0  0  0  0  0999 V2000
   38.4540   15.2902  -11.6028 C   0  0  0  0  0  0  0  0  0  0  0  0
   37.0241   15.0839  -11.8239 C   0  0  0  0  0  0  0  0  0  0  0  0
   36.5316   15.4437  -13.2496 C   0  0  0  0  0  0  0  0  0  0  0  0
   35.3932   14.5035  -13.3687 N   0  0  0  0  0  0  0  0  0  0  0  0
   34.3446   14.6612  -12.4136 C   0  0  0  0  0  0  0  0  0  0  0  0
   34.6695   15.4733  -11.2131 C   0  0  0  0  0  0  0  0  0  0  0  0
   36.0737   15.7674  -10.9919 N   0  0  0  0  0  0  0  0  0  0  0  0
   35.5092   13.5540  -14.3800 C   0  0  0  0  0  0  0  0  0  0  0  0
   36.7219   13.2695  -14.8976 N   0  0  0  0  0  0  0  0  0  0  0  0
   36.9543   12.3263  -15.8177 C   0  0  0  0  0  0  0  0  0  0  0  0
   38.2266   12.0817  -16.3026 C   0  0  0  0  0  0  0  0  0  0  0  0
   38.4817   11.0953  -17.2549 C   0  0  0  0  0  0  0  0  0  0  0  0
   39.7331   10.8646  -17.7280 F   0  0  0  0  0  0  0  0  0  0  0  0
   37.4089   10.3682  -17.6988 C   0  0  0  0  0  0  0  0  0  0  0  0
   36.1283   10.6017  -17.2237 C   0  0  0  0  0  0  0  0  0  0  0  0
   35.8955   11.5861  -16.2744 C   0  0  0  0  0  0  0  0  0  0  0  0
   34.6395   11.8514  -15.7657 C   0  0  0  0  0  0  0  0  0  0  0  0
   33.6434   11.1914  -16.1658 O   0  0  0  0  0  0  0  0  0  0  0  0
   34.4776   12.8173  -14.8420 N   0  0  0  0  0  0  0  0  0  0  0  0
   33.5542   13.0576  -14.4192 H   0  0  0  0  0  0  0  0  0  0  0  0
   36.4210   16.7231  -10.0040 C   0  0  0  0  0  0  0  0  0  0  0  0
   35.7097   16.8916   -8.8464 C   0  0  0  0  0  0  0  0  0  0  0  0
   36.0603   17.8602   -7.9410 C   0  0  0  0  0  0  0  0  0  0  0  0
   37.1353   18.7131   -8.1338 C   0  0  0  0  0  0  0  0  0  0  0  0
   37.8535   18.5479   -9.2956 C   0  0  0  0  0  0  0  0  0  0  0  0
   37.4946   17.5658  -10.2083 C   0  0  0  0  0  0  0  0  0  0  0  0
   37.5036   19.7464   -7.1712 C   0  0  0  0  0  0  0  0  0  0  0  0
   36.5393   19.8351   -6.2104 F   0  0  0  0  0  0  0  0  0  0  0  0
   38.7022   19.4033   -6.5285 F   0  0  0  0  0  0  0  0  0  0  0  0
   37.7200   20.9800   -7.7622 F   0  0  0  0  0  0  0  0  0  0  0  0
  1  2  1  0  0  0
  2  3  1  0  0  0
  3  4  1  0  0  0
  4  5  1  0  0  0
  5  6  1  0  0  0
  6  7  1  0  0  0
  7 21  1  0  0  0
 21 22  2  0  0  0
 22 23  1  0  0  0
 23 24  2  0  0  0
 24 25  1  0  0  0
 25 26  2  0  0  0
 24 27  1  0  0  0
 27 28  1  0  0  0
 27 29  1  0  0  0
 27 30  1  0  0  0
  4  8  1  0  0  0
  8  9  2  0  0  0
  9 10  1  0  0  0
 10 11  2  0  0  0
 11 12  1  0  0  0
 12 13  1  0  0  0
 12 14  2  0  0  0
 14 15  1  0  0  0
 15 16  2  0  0  0
 16 17  1  0  0  0
 17 18  2  0  0  0
 17 19  1  0  0  0
  7  2  1  0  0  0
 26 21  1  0  0  0
 19  8  1  0  0  0
 16 10  1  0  0  0
 19 20  1  0  0  0
M  END
> <minimizedAffinity>
-9.12511

> <CNNscore>
0.2196470946

> <CNNaffinity>
6.2683014870

> <CNN_VS>
1.3768142462

> <CNNaffinity_variance>
0.4331703186

$$$$
[H]c1c([H])c(C(F)(F)F)c([H])c([H])c1N1C([H])([H])C([H])([H])N(c2nc3c([H])c(F)c([H])c([H])c3c(=O)n2[H])C([H])([H])[C@@]1([H])C([H])([H])[H]


 30 33  0  0  0  0  0  0  0  0999 V2000
   43.8911   13.4017  -12.0113 C   0  0  0  0  0  0  0  0  0  0  0  0
   42.6784   14.1630  -12.3041 C   0  0  0  0  0  0  0  0  0  0  0  0
   42.5108   14.5649  -13.7924 C   0  0  0  0  0  0  0  0  0  0  0  0
   41.0325   14.6045  -13.8787 N   0  0  0  0  0  0  0  0  0  0  0  0
   40.3772   15.5395  -13.0225 C   0  0  0  0  0  0  0  0  0  0  0  0
   41.1902   16.0852  -11.9055 C   0  0  0  0  0  0  0  0  0  0  0  0
   42.4418   15.4059  -11.6245 N   0  0  0  0  0  0  0  0  0  0  0  0
   40.4636   13.6914  -14.7621 C   0  0  0  0  0  0  0  0  0  0  0  0
   39.1565   13.3769  -14.6529 N   0  0  0  0  0  0  0  0  0  0  0  0
   38.4953   12.5703  -15.4910 C   0  0  0  0  0  0  0  0  0  0  0  0
   37.1502   12.2938  -15.3241 C   0  0  0  0  0  0  0  0  0  0  0  0
   36.4490   11.4619  -16.1965 C   0  0  0  0  0  0  0  0  0  0  0  0
   35.1296   11.1931  -16.0229 F   0  0  0  0  0  0  0  0  0  0  0  0
   37.1533   10.9204  -17.2392 C   0  0  0  0  0  0  0  0  0  0  0  0
   38.5011   11.1868  -17.4195 C   0  0  0  0  0  0  0  0  0  0  0  0
   39.1804   12.0192  -16.5419 C   0  0  0  0  0  0  0  0  0  0  0  0
   40.5206   12.3200  -16.6835 C   0  0  0  0  0  0  0  0  0  0  0  0
   41.1813   11.8281  -17.6370 O   0  0  0  0  0  0  0  0  0  0  0  0
   41.1236   13.1388  -15.8011 N   0  0  0  0  0  0  0  0  0  0  0  0
   42.1309   13.4049  -15.8613 H   0  0  0  0  0  0  0  0  0  0  0  0
   43.3610   16.0149  -10.7333 C   0  0  0  0  0  0  0  0  0  0  0  0
   43.2430   15.9369   -9.3716 C   0  0  0  0  0  0  0  0  0  0  0  0
   44.1340   16.5802   -8.5512 C   0  0  0  0  0  0  0  0  0  0  0  0
   45.1904   17.3346   -9.0363 C   0  0  0  0  0  0  0  0  0  0  0  0
   45.3135   17.4161  -10.4041 C   0  0  0  0  0  0  0  0  0  0  0  0
   44.4093   16.7627  -11.2299 C   0  0  0  0  0  0  0  0  0  0  0  0
   46.1344   18.0224   -8.1614 C   0  0  0  0  0  0  0  0  0  0  0  0
   45.4954   19.0405   -7.5163 F   0  0  0  0  0  0  0  0  0  0  0  0
   46.6131   17.1423   -7.1796 F   0  0  0  0  0  0  0  0  0  0  0  0
   47.2482   18.4937   -8.8359 F   0  0  0  0  0  0  0  0  0  0  0  0
  1  2  1  0  0  0
  2  3  1  0  0  0
  3  4  1  0  0  0
  4  5  1  0  0  0
  5  6  1  0  0  0
  6  7  1  0  0  0
  7 21  1  0  0  0
 21 22  2  0  0  0
 22 23  1  0  0  0
 23 24  2  0  0  0
 24 25  1  0  0  0
 25 26  2  0  0  0
 24 27  1  0  0  0
 27 28  1  0  0  0
 27 29  1  0  0  0
 27 30  1  0  0  0
  4  8  1  0  0  0
  8  9  2  0  0  0
  9 10  1  0  0  0
 10 11  2  0  0  0
 11 12  1  0  0  0
 12 13  1  0  0  0
 12 14  2  0  0  0
 14 15  1  0  0  0
 15 16  2  0  0  0
 16 17  1  0  0  0
 17 18  2  0  0  0
 17 19  1  0  0  0
  7  2  1  0  0  0
 26 21  1  0  0  0
 19  8  1  0  0  0
 16 10  1  0  0  0
 19 20  1  0  0  0
M  END
> <minimizedAffinity>
-7.91228

> <CNNscore>
0.2024625391

> <CNNaffinity>
6.0096006393

> <CNN_VS>
1.2167190313

> <CNNaffinity_variance>
0.6339422464

$$$$
[H]c1c([H])c(C(F)(F)F)c([H])c([H])c1N1C([H])([H])C([H])([H])N(c2nc3c([H])c(F)c([H])c([H])c3c(=O)n2[H])C([H])([H])[C@@]1([H])C([H])([H])[H]


 30 33  0  0  0  0  0  0  0  0999 V2000
   43.2132   13.2433  -13.8181 C   0  0  0  0  0  0  0  0  0  0  0  0
   41.9189   13.8900  -13.6112 C   0  0  0  0  0  0  0  0  0  0  0  0
   41.1968   14.3229  -14.9134 C   0  0  0  0  0  0  0  0  0  0  0  0
   39.7879   14.2185  -14.4681 N   0  0  0  0  0  0  0  0  0  0  0  0
   39.4102   15.0547  -13.3750 C   0  0  0  0  0  0  0  0  0  0  0  0
   40.5228   15.6406  -12.5843 C   0  0  0  0  0  0  0  0  0  0  0  0
   41.8424   15.0798  -12.8106 N   0  0  0  0  0  0  0  0  0  0  0  0
   39.0157   13.2836  -15.1517 C   0  0  0  0  0  0  0  0  0  0  0  0
   37.6958   13.1846  -14.8919 N   0  0  0  0  0  0  0  0  0  0  0  0
   36.8514   12.3740  -15.5401 C   0  0  0  0  0  0  0  0  0  0  0  0
   35.5050   12.3259  -15.2264 C   0  0  0  0  0  0  0  0  0  0  0  0
   34.6143   11.4914  -15.9013 C   0  0  0  0  0  0  0  0  0  0  0  0
   33.2950   11.4480  -15.5842 F   0  0  0  0  0  0  0  0  0  0  0  0
   35.1312   10.7095  -16.9002 C   0  0  0  0  0  0  0  0  0  0  0  0
   36.4776   10.7454  -17.2258 C   0  0  0  0  0  0  0  0  0  0  0  0
   37.3473   11.5841  -16.5441 C   0  0  0  0  0  0  0  0  0  0  0  0
   38.6946   11.6604  -16.8363 C   0  0  0  0  0  0  0  0  0  0  0  0
   39.1841   10.9460  -17.7516 O   0  0  0  0  0  0  0  0  0  0  0  0
   39.4877   12.4978  -16.1417 N   0  0  0  0  0  0  0  0  0  0  0  0
   40.5105   12.6008  -16.3220 H   0  0  0  0  0  0  0  0  0  0  0  0
   42.9677   15.7468  -12.2640 C   0  0  0  0  0  0  0  0  0  0  0  0
   43.6309   16.7499  -12.9185 C   0  0  0  0  0  0  0  0  0  0  0  0
   44.7416   17.3348  -12.3662 C   0  0  0  0  0  0  0  0  0  0  0  0
   45.2541   16.9576  -11.1352 C   0  0  0  0  0  0  0  0  0  0  0  0
   44.5913   15.9500  -10.4733 C   0  0  0  0  0  0  0  0  0  0  0  0
   43.4673   15.3617  -11.0365 C   0  0  0  0  0  0  0  0  0  0  0  0
   46.4393   17.5780  -10.5517 C   0  0  0  0  0  0  0  0  0  0  0  0
   47.4481   16.6616  -10.4928 F   0  0  0  0  0  0  0  0  0  0  0  0
   46.8815   18.6333  -11.3630 F   0  0  0  0  0  0  0  0  0  0  0  0
   46.2008   18.1238   -9.3015 F   0  0  0  0  0  0  0  0  0  0  0  0
  1  2  1  0  0  0
  2  3  1  0  0  0
  3  4  1  0  0  0
  4  5  1  0  0  0
  5  6  1  0  0  0
  6  7  1  0  0  0
  7 21  1  0  0  0
 21 22  2  0  0  0
 22 23  1  0  0  0
 23 24  2  0  0  0
 24 25  1  0  0  0
 25 26  2  0  0  0
 24 27  1  0  0  0
 27 28  1  0  0  0
 27 29  1  0  0  0
 27 30  1  0  0  0
  4  8  1  0  0  0
  8  9  2  0  0  0
  9 10  1  0  0  0
 10 11  2  0  0  0
 11 12  1  0  0  0
 12 13  1  0  0  0
 12 14  2  0  0  0
 14 15  1  0  0  0
 15 16  2  0  0  0
 16 17  1  0  0  0
 17 18  2  0  0  0
 17 19  1  0  0  0
  7  2  1  0  0  0
 26 21  1  0  0  0
 19  8  1  0  0  0
 16 10  1  0  0  0
 19 20  1  0  0  0
M  END
> <minimizedAffinity>
-8.12554

> <CNNscore>
0.1556391418

> <CNNaffinity>
6.1024069786

> <CNN_VS>
0.9497733712

> <CNNaffinity_variance>
0.4047858119

$$$$
[H]c1c([H])c(C(F)(F)F)c([H])c([H])c1N1C([H])([H])C([H])([H])N(c2nc3c([H])c(F)c([H])c([H])c3c(=O)n2[H])C([H])([H])[C@@]1([H])C([H])([H])[H]


 30 33  0  0  0  0  0  0  0  0999 V2000
   35.3834   16.1055  -11.1082 C   0  0  0  0  0  0  0  0  0  0  0  0
   36.7568   15.8290  -11.5245 C   0  0  0  0  0  0  0  0  0  0  0  0
   37.1557   14.3310  -11.4837 C   0  0  0  0  0  0  0  0  0  0  0  0
   38.1698   14.3099  -12.5632 N   0  0  0  0  0  0  0  0  0  0  0  0
   39.3107   15.1454  -12.3707 C   0  0  0  0  0  0  0  0  0  0  0  0
   39.1849   16.1947  -11.3269 C   0  0  0  0  0  0  0  0  0  0  0  0
   37.8466   16.4534  -10.8279 N   0  0  0  0  0  0  0  0  0  0  0  0
   37.8611   13.5017  -13.6537 C   0  0  0  0  0  0  0  0  0  0  0  0
   36.5856   13.1163  -13.8636 N   0  0  0  0  0  0  0  0  0  0  0  0
   36.1698   12.4030  -14.9165 C   0  0  0  0  0  0  0  0  0  0  0  0
   34.8427   12.0455  -15.0739 C   0  0  0  0  0  0  0  0  0  0  0  0
   34.3967   11.3100  -16.1716 C   0  0  0  0  0  0  0  0  0  0  0  0
   33.0929   10.9603  -16.3160 F   0  0  0  0  0  0  0  0  0  0  0  0
   35.3363   10.9491  -17.1008 C   0  0  0  0  0  0  0  0  0  0  0  0
   36.6695   11.2985  -16.9570 C   0  0  0  0  0  0  0  0  0  0  0  0
   37.0931   12.0327  -15.8589 C   0  0  0  0  0  0  0  0  0  0  0  0
   38.4083   12.4106  -15.6750 C   0  0  0  0  0  0  0  0  0  0  0  0
   39.2836   12.0845  -16.5207 O   0  0  0  0  0  0  0  0  0  0  0  0
   38.7574   13.1272  -14.5900 N   0  0  0  0  0  0  0  0  0  0  0  0
   39.7338   13.4445  -14.4020 H   0  0  0  0  0  0  0  0  0  0  0  0
   37.6952   17.2692   -9.6784 C   0  0  0  0  0  0  0  0  0  0  0  0
   37.3369   16.7733   -8.4536 C   0  0  0  0  0  0  0  0  0  0  0  0
   37.1607   17.6097   -7.3811 C   0  0  0  0  0  0  0  0  0  0  0  0
   37.3310   18.9824   -7.4647 C   0  0  0  0  0  0  0  0  0  0  0  0
   37.6911   19.4858   -8.6933 C   0  0  0  0  0  0  0  0  0  0  0  0
   37.8687   18.6349   -9.7754 C   0  0  0  0  0  0  0  0  0  0  0  0
   37.1381   19.8711   -6.3232 C   0  0  0  0  0  0  0  0  0  0  0  0
   37.2778   21.1661   -6.7285 F   0  0  0  0  0  0  0  0  0  0  0  0
   35.8379   19.7310   -5.8160 F   0  0  0  0  0  0  0  0  0  0  0  0
   37.9961   19.5920   -5.2728 F   0  0  0  0  0  0  0  0  0  0  0  0
  1  2  1  0  0  0
  2  3  1  0  0  0
  3  4  1  0  0  0
  4  5  1  0  0  0
  5  6  1  0  0  0
  6  7  1  0  0  0
  7 21  1  0  0  0
 21 22  2  0  0  0
 22 23  1  0  0  0
 23 24  2  0  0  0
 24 25  1  0  0  0
 25 26  2  0  0  0
 24 27  1  0  0  0
 27 28  1  0  0  0
 27 29  1  0  0  0
 27 30  1  0  0  0
  4  8  1  0  0  0
  8  9  2  0  0  0
  9 10  1  0  0  0
 10 11  2  0  0  0
 11 12  1  0  0  0
 12 13  1  0  0  0
 12 14  2  0  0  0
 14 15  1  0  0  0
 15 16  2  0  0  0
 16 17  1  0  0  0
 17 18  2  0  0  0
 17 19  1  0  0  0
  7  2  1  0  0  0
 26 21  1  0  0  0
 19  8  1  0  0  0
 16 10  1  0  0  0
 19 20  1  0  0  0
M  END
> <minimizedAffinity>
-8.67883

> <CNNscore>
0.1290493459

> <CNNaffinity>
5.8147258759

> <CNN_VS>
0.7503865957

> <CNNaffinity_variance>
0.3430680633

$$$$
[H]c1c([H])c(C(F)(F)F)c([H])c([H])c1N1C([H])([H])C([H])([H])N(c2nc3c([H])c(F)c([H])c([H])c3c(=O)n2[H])C([H])([H])[C@@]1([H])C([H])([H])[H]


 30 33  0  0  0  0  0  0  0  0999 V2000
   33.9397   15.1566  -11.9996 C   0  0  0  0  0  0  0  0  0  0  0  0
   35.3735   14.9344  -12.1752 C   0  0  0  0  0  0  0  0  0  0  0  0
   35.7930   13.4432  -12.2455 C   0  0  0  0  0  0  0  0  0  0  0  0
   36.9947   13.5587  -13.1039 N   0  0  0  0  0  0  0  0  0  0  0  0
   38.0576   14.3625  -12.5931 C   0  0  0  0  0  0  0  0  0  0  0  0
   37.7099   15.2709  -11.4705 C   0  0  0  0  0  0  0  0  0  0  0  0
   36.2952   15.4649  -11.2099 N   0  0  0  0  0  0  0  0  0  0  0  0
   36.9191   12.8955  -14.3254 C   0  0  0  0  0  0  0  0  0  0  0  0
   38.0383   12.6970  -15.0517 N   0  0  0  0  0  0  0  0  0  0  0  0
   38.0890   12.0111  -16.1994 C   0  0  0  0  0  0  0  0  0  0  0  0
   39.2740   11.8400  -16.8922 C   0  0  0  0  0  0  0  0  0  0  0  0
   39.3401   11.1195  -18.0845 C   0  0  0  0  0  0  0  0  0  0  0  0
   40.5069   10.9598  -18.7598 F   0  0  0  0  0  0  0  0  0  0  0  0
   38.1699   10.5809  -18.5504 C   0  0  0  0  0  0  0  0  0  0  0  0
   36.9746   10.7441  -17.8687 C   0  0  0  0  0  0  0  0  0  0  0  0
   36.9300   11.4624  -16.6827 C   0  0  0  0  0  0  0  0  0  0  0  0
   35.7655   11.6466  -15.9640 C   0  0  0  0  0  0  0  0  0  0  0  0
   34.6816   11.1580  -16.3813 O   0  0  0  0  0  0  0  0  0  0  0  0
   35.7869   12.3503  -14.8164 N   0  0  0  0  0  0  0  0  0  0  0  0
   34.9398   12.5169  -14.2300 H   0  0  0  0  0  0  0  0  0  0  0  0
   35.9078   16.1283  -10.0184 C   0  0  0  0  0  0  0  0  0  0  0  0
   34.8135   15.7612   -9.2821 C   0  0  0  0  0  0  0  0  0  0  0  0
   34.4546   16.4624   -8.1595 C   0  0  0  0  0  0  0  0  0  0  0  0
   35.1614   17.5646   -7.7058 C   0  0  0  0  0  0  0  0  0  0  0  0
   36.2620   17.9377   -8.4422 C   0  0  0  0  0  0  0  0  0  0  0  0
   36.6212   17.2243   -9.5772 C   0  0  0  0  0  0  0  0  0  0  0  0
   34.7746   18.3124   -6.5137 C   0  0  0  0  0  0  0  0  0  0  0  0
   34.5139   19.6070   -6.8555 F   0  0  0  0  0  0  0  0  0  0  0  0
   33.5965   17.7795   -5.9699 F   0  0  0  0  0  0  0  0  0  0  0  0
   35.7262   18.2538   -5.5093 F   0  0  0  0  0  0  0  0  0  0  0  0
  1  2  1  0  0  0
  2  3  1  0  0  0
  3  4  1  0  0  0
  4  5  1  0  0  0
  5  6  1  0  0  0
  6  7  1  0  0  0
  7 21  1  0  0  0
 21 22  2  0  0  0
 22 23  1  0  0  0
 23 24  2  0  0  0
 24 25  1  0  0  0
 25 26  2  0  0  0
 24 27  1  0  0  0
 27 28  1  0  0  0
 27 29  1  0  0  0
 27 30  1  0  0  0
  4  8  1  0  0  0
  8  9  2  0  0  0
  9 10  1  0  0  0
 10 11  2  0  0  0
 11 12  1  0  0  0
 12 13  1  0  0  0
 12 14  2  0  0  0
 14 15  1  0  0  0
 15 16  2  0  0  0
 16 17  1  0  0  0
 17 18  2  0  0  0
 17 19  1  0  0  0
  7  2  1  0  0  0
 26 21  1  0  0  0
 19  8  1  0  0  0
 16 10  1  0  0  0
 19 20  1  0  0  0
M  END
> <minimizedAffinity>
-9.05328

> <CNNscore>
0.1203268841

> <CNNaffinity>
5.9021902084

> <CNN_VS>
0.7101921439

> <CNNaffinity_variance>
0.3055818379

$$$$
[H]c1c([H])c(C(F)(F)F)c([H])c([H])c1N1C([H])([H])C([H])([H])N(c2nc3c([H])c(F)c([H])c([H])c3c(=O)n2[H])C([H])([H])[C@@]1([H])C([H])([H])[H]


 30 33  0  0  0  0  0  0  0  0999 V2000
   43.9350   13.6596  -12.1881 C   0  0  0  0  0  0  0  0  0  0  0  0
   42.6971   14.4357  -12.2269 C   0  0  0  0  0  0  0  0  0  0  0  0
   42.2337   14.8433  -13.6495 C   0  0  0  0  0  0  0  0  0  0  0  0
   40.7696   14.9002  -13.4318 N   0  0  0  0  0  0  0  0  0  0  0  0
   40.3143   15.8407  -12.4597 C   0  0  0  0  0  0  0  0  0  0  0  0
   41.3448   16.3741  -11.5323 C   0  0  0  0  0  0  0  0  0  0  0  0
   42.6192   15.6796  -11.5132 N   0  0  0  0  0  0  0  0  0  0  0  0
   40.0213   13.9961  -14.1804 C   0  0  0  0  0  0  0  0  0  0  0  0
   40.4488   13.6219  -15.4038 N   0  0  0  0  0  0  0  0  0  0  0  0
   39.8467   12.7081  -16.1737 C   0  0  0  0  0  0  0  0  0  0  0  0
   40.3426   12.3663  -17.4190 C   0  0  0  0  0  0  0  0  0  0  0  0
   39.7283   11.4090  -18.2260 C   0  0  0  0  0  0  0  0  0  0  0  0
   40.2199   11.0824  -19.4485 F   0  0  0  0  0  0  0  0  0  0  0  0
   38.5986   10.8123  -17.7317 C   0  0  0  0  0  0  0  0  0  0  0  0
   38.0888   11.1444  -16.4868 C   0  0  0  0  0  0  0  0  0  0  0  0
   38.7158   12.0977  -15.6979 C   0  0  0  0  0  0  0  0  0  0  0  0
   38.2504   12.4574  -14.4487 C   0  0  0  0  0  0  0  0  0  0  0  0
   37.2117   11.9179  -13.9819 O   0  0  0  0  0  0  0  0  0  0  0  0
   38.9058   13.3868  -13.7280 N   0  0  0  0  0  0  0  0  0  0  0  0
   38.6034   13.6937  -12.7774 H   0  0  0  0  0  0  0  0  0  0  0  0
   43.7083   16.2756  -10.8287 C   0  0  0  0  0  0  0  0  0  0  0  0
   44.7206   16.9373  -11.4704 C   0  0  0  0  0  0  0  0  0  0  0  0
   45.7756   17.4595  -10.7667 C   0  0  0  0  0  0  0  0  0  0  0  0
   45.8835   17.3548   -9.3891 C   0  0  0  0  0  0  0  0  0  0  0  0
   44.8688   16.6907   -8.7394 C   0  0  0  0  0  0  0  0  0  0  0  0
   43.8031   16.1645   -9.4563 C   0  0  0  0  0  0  0  0  0  0  0  0
   47.0096   17.9069   -8.6429 C   0  0  0  0  0  0  0  0  0  0  0  0
   47.7591   16.8874   -8.1333 F   0  0  0  0  0  0  0  0  0  0  0  0
   47.8394   18.6474   -9.4976 F   0  0  0  0  0  0  0  0  0  0  0  0
   46.6158   18.7741   -7.6377 F   0  0  0  0  0  0  0  0  0  0  0  0
  1  2  1  0  0  0
  2  3  1  0  0  0
  3  4  1  0  0  0
  4  5  1  0  0  0
  5  6  1  0  0  0
  6  7  1  0  0  0
  7 21  1  0  0  0
 21 22  2  0  0  0
 22 23  1  0  0  0
 23 24  2  0  0  0
 24 25  1  0  0  0
 25 26  2  0  0  0
 24 27  1  0  0  0
 27 28  1  0  0  0
 27 29  1  0  0  0
 27 30  1  0  0  0
  4  8  1  0  0  0
  8  9  2  0  0  0
  9 10  1  0  0  0
 10 11  2  0  0  0
 11 12  1  0  0  0
 12 13  1  0  0  0
 12 14  2  0  0  0
 14 15  1  0  0  0
 15 16  2  0  0  0
 16 17  1  0  0  0
 17 18  2  0  0  0
 17 19  1  0  0  0
  7  2  1  0  0  0
 26 21  1  0  0  0
 19  8  1  0  0  0
 16 10  1  0  0  0
 19 20  1  0  0  0
M  END
> <minimizedAffinity>
-7.68542

> <CNNscore>
0.1163095608

> <CNNaffinity>
5.2681708336

> <CNN_VS>
0.6127386093

> <CNNaffinity_variance>
0.1612474620

$$$$
[H]c1c([H])c(C(F)(F)F)c([H])c([H])c1N1C([H])([H])C([H])([H])N(c2nc3c([H])c(F)c([H])c([H])c3c(=O)n2[H])C([H])([H])[C@@]1([H])C([H])([H])[H]


 30 33  0  0  0  0  0  0  0  0999 V2000
   38.2820   14.9121   -9.4910 C   0  0  0  0  0  0  0  0  0  0  0  0
   37.0186   15.0174  -10.2180 C   0  0  0  0  0  0  0  0  0  0  0  0
   37.1472   15.5686  -11.6617 C   0  0  0  0  0  0  0  0  0  0  0  0
   35.9925   14.8906  -12.2951 N   0  0  0  0  0  0  0  0  0  0  0  0
   34.7090   15.1915  -11.7484 C   0  0  0  0  0  0  0  0  0  0  0  0
   34.7025   15.8346  -10.4094 C   0  0  0  0  0  0  0  0  0  0  0  0
   35.9568   15.8204   -9.6790 N   0  0  0  0  0  0  0  0  0  0  0  0
   36.3113   14.0104  -13.3253 C   0  0  0  0  0  0  0  0  0  0  0  0
   35.3379   13.2864  -13.9148 N   0  0  0  0  0  0  0  0  0  0  0  0
   35.5231   12.4687  -14.9575 C   0  0  0  0  0  0  0  0  0  0  0  0
   34.4773   11.7582  -15.5189 C   0  0  0  0  0  0  0  0  0  0  0  0
   34.6572   10.9101  -16.6113 C   0  0  0  0  0  0  0  0  0  0  0  0
   33.6256   10.2138  -17.1535 F   0  0  0  0  0  0  0  0  0  0  0  0
   35.9273   10.8052  -17.1137 C   0  0  0  0  0  0  0  0  0  0  0  0
   36.9856   11.5094  -16.5621 C   0  0  0  0  0  0  0  0  0  0  0  0
   36.7856   12.3500  -15.4768 C   0  0  0  0  0  0  0  0  0  0  0  0
   37.8062   13.0773  -14.8971 C   0  0  0  0  0  0  0  0  0  0  0  0
   38.9796   12.9896  -15.3478 O   0  0  0  0  0  0  0  0  0  0  0  0
   37.5485   13.8805  -13.8477 N   0  0  0  0  0  0  0  0  0  0  0  0
   38.2783   14.4565  -13.3735 H   0  0  0  0  0  0  0  0  0  0  0  0
   36.0721   16.6140   -8.5099 C   0  0  0  0  0  0  0  0  0  0  0  0
   35.6882   16.1766   -7.2706 C   0  0  0  0  0  0  0  0  0  0  0  0
   35.7792   16.9983   -6.1763 C   0  0  0  0  0  0  0  0  0  0  0  0
   36.2564   18.2971   -6.2513 C   0  0  0  0  0  0  0  0  0  0  0  0
   36.6434   18.7415   -7.4945 C   0  0  0  0  0  0  0  0  0  0  0  0
   36.5498   17.9057   -8.5986 C   0  0  0  0  0  0  0  0  0  0  0  0
   36.3476   19.1714   -5.0863 C   0  0  0  0  0  0  0  0  0  0  0  0
   37.3098   20.1141   -5.3013 F   0  0  0  0  0  0  0  0  0  0  0  0
   35.1348   19.8496   -4.8948 F   0  0  0  0  0  0  0  0  0  0  0  0
   36.5944   18.4796   -3.9123 F   0  0  0  0  0  0  0  0  0  0  0  0
  1  2  1  0  0  0
  2  3  1  0  0  0
  3  4  1  0  0  0
  4  5  1  0  0  0
  5  6  1  0  0  0
  6  7  1  0  0  0
  7 21  1  0  0  0
 21 22  2  0  0  0
 22 23  1  0  0  0
 23 24  2  0  0  0
 24 25  1  0  0  0
 25 26  2  0  0  0
 24 27  1  0  0  0
 27 28  1  0  0  0
 27 29  1  0  0  0
 27 30  1  0  0  0
  4  8  1  0  0  0
  8  9  2  0  0  0
  9 10  1  0  0  0
 10 11  2  0  0  0
 11 12  1  0  0  0
 12 13  1  0  0  0
 12 14  2  0  0  0
 14 15  1  0  0  0
 15 16  2  0  0  0
 16 17  1  0  0  0
 17 18  2  0  0  0
 17 19  1  0  0  0
  7  2  1  0  0  0
 26 21  1  0  0  0
 19  8  1  0  0  0
 16 10  1  0  0  0
 19 20  1  0  0  0
M  END
> <minimizedAffinity>
-7.80792

> <CNNscore>
0.1094078496

> <CNNaffinity>
5.6809492111

> <CNN_VS>
0.6215404272

> <CNNaffinity_variance>
0.4413879514

$$$$
[H]c1c([H])c(C(F)(F)F)c([H])c([H])c1N1C([H])([H])C([H])([H])N(c2nc3c([H])c(F)c([H])c([H])c3c(=O)n2[H])C([H])([H])[C@@]1([H])C([H])([H])[H]


 30 33  0  0  0  0  0  0  0  0999 V2000
   35.8549   13.2721  -15.1713 C   0  0  0  0  0  0  0  0  0  0  0  0
   36.9197   13.8959  -14.3883 C   0  0  0  0  0  0  0  0  0  0  0  0
   37.9961   12.9119  -13.8612 C   0  0  0  0  0  0  0  0  0  0  0  0
   39.1666   13.8186  -13.8149 N   0  0  0  0  0  0  0  0  0  0  0  0
   39.0502   14.9526  -12.9563 C   0  0  0  0  0  0  0  0  0  0  0  0
   37.6763   15.2953  -12.5074 C   0  0  0  0  0  0  0  0  0  0  0  0
   36.5854   14.6424  -13.2077 N   0  0  0  0  0  0  0  0  0  0  0  0
   40.2239   13.4681  -14.6497 C   0  0  0  0  0  0  0  0  0  0  0  0
   41.4947   13.6468  -14.2343 N   0  0  0  0  0  0  0  0  0  0  0  0
   42.5799   13.2784  -14.9248 C   0  0  0  0  0  0  0  0  0  0  0  0
   43.8574   13.4866  -14.4366 C   0  0  0  0  0  0  0  0  0  0  0  0
   44.9952   13.0987  -15.1436 C   0  0  0  0  0  0  0  0  0  0  0  0
   46.2454   13.3103  -14.6584 F   0  0  0  0  0  0  0  0  0  0  0  0
   44.7968   12.4960  -16.3577 C   0  0  0  0  0  0  0  0  0  0  0  0
   43.5237   12.2813  -16.8609 C   0  0  0  0  0  0  0  0  0  0  0  0
   42.4041   12.6724  -16.1412 C   0  0  0  0  0  0  0  0  0  0  0  0
   41.1159   12.4741  -16.5970 C   0  0  0  0  0  0  0  0  0  0  0  0
   40.9183   11.9223  -17.7124 O   0  0  0  0  0  0  0  0  0  0  0  0
   40.0688   12.8718  -15.8500 N   0  0  0  0  0  0  0  0  0  0  0  0
   39.0749   12.7433  -16.1412 H   0  0  0  0  0  0  0  0  0  0  0  0
   35.2753   14.7495  -12.6764 C   0  0  0  0  0  0  0  0  0  0  0  0
   34.1822   14.1725  -13.2651 C   0  0  0  0  0  0  0  0  0  0  0  0
   32.9282   14.3414  -12.7361 C   0  0  0  0  0  0  0  0  0  0  0  0
   32.6904   15.0905  -11.5947 C   0  0  0  0  0  0  0  0  0  0  0  0
   33.7857   15.6725  -10.9993 C   0  0  0  0  0  0  0  0  0  0  0  0
   35.0526   15.4978  -11.5385 C   0  0  0  0  0  0  0  0  0  0  0  0
   31.3544   15.2731  -11.0364 C   0  0  0  0  0  0  0  0  0  0  0  0
   31.0321   14.1919  -10.2696 F   0  0  0  0  0  0  0  0  0  0  0  0
   31.3296   16.3992  -10.2005 F   0  0  0  0  0  0  0  0  0  0  0  0
   30.3905   15.4893  -12.0068 F   0  0  0  0  0  0  0  0  0  0  0  0
  1  2  1  0  0  0
  2  3  1  0  0  0
  3  4  1  0  0  0
  4  5  1  0  0  0
  5  6  1  0  0  0
  6  7  1  0  0  0
  7 21  1  0  0  0
 21 22  2  0  0  0
 22 23  1  0  0  0
 23 24  2  0  0  0
 24 25  1  0  0  0
 25 26  2  0  0  0
 24 27  1  0  0  0
 27 28  1  0  0  0
 27 29  1  0  0  0
 27 30  1  0  0  0
  4  8  1  0  0  0
  8  9  2  0  0  0
  9 10  1  0  0  0
 10 11  2  0  0  0
 11 12  1  0  0  0
 12 13  1  0  0  0
 12 14  2  0  0  0
 14 15  1  0  0  0
 15 16  2  0  0  0
 16 17  1  0  0  0
 17 18  2  0  0  0
 17 19  1  0  0  0
  7  2  1  0  0  0
 26 21  1  0  0  0
 19  8  1  0  0  0
 16 10  1  0  0  0
 19 20  1  0  0  0
M  END
> <minimizedAffinity>
-9.06840

> <CNNscore>
0.1049669683

> <CNNaffinity>
6.0673017502

> <CNN_VS>
0.6368662715

> <CNNaffinity_variance>
0.4813906252

$$$$
[H]c1c([H])c(C(F)(F)F)c([H])c([H])c1N1C([H])([H])C([H])([H])N(c2nc3c([H])c(F)c([H])c([H])c3c(=O)n2[H])C([H])([H])[C@@]1([H])C([H])([H])[H]


 30 33  0  0  0  0  0  0  0  0999 V2000
   33.8633   13.7746  -13.0106 C   0  0  0  0  0  0  0  0  0  0  0  0
   35.1438   14.3639  -12.6245 C   0  0  0  0  0  0  0  0  0  0  0  0
   36.2516   13.3349  -12.2802 C   0  0  0  0  0  0  0  0  0  0  0  0
   37.4504   14.1165  -12.6625 N   0  0  0  0  0  0  0  0  0  0  0  0
   37.6553   15.3397  -11.9563 C   0  0  0  0  0  0  0  0  0  0  0  0
   36.4860   15.8664  -11.2069 C   0  0  0  0  0  0  0  0  0  0  0  0
   35.2011   15.2596  -11.5032 N   0  0  0  0  0  0  0  0  0  0  0  0
   38.2095   13.5743  -13.6958 C   0  0  0  0  0  0  0  0  0  0  0  0
   37.6182   12.7977  -14.6267 N   0  0  0  0  0  0  0  0  0  0  0  0
   38.2378   12.2879  -15.6975 C   0  0  0  0  0  0  0  0  0  0  0  0
   37.5689   11.5020  -16.6186 C   0  0  0  0  0  0  0  0  0  0  0  0
   38.2024   10.9729  -17.7428 C   0  0  0  0  0  0  0  0  0  0  0  0
   37.5389   10.1994  -18.6398 F   0  0  0  0  0  0  0  0  0  0  0  0
   39.5314   11.2646  -17.9018 C   0  0  0  0  0  0  0  0  0  0  0  0
   40.2157   12.0494  -16.9875 C   0  0  0  0  0  0  0  0  0  0  0  0
   39.5670   12.5685  -15.8766 C   0  0  0  0  0  0  0  0  0  0  0  0
   40.2037   13.3608  -14.9420 C   0  0  0  0  0  0  0  0  0  0  0  0
   41.4261   13.6361  -15.0747 O   0  0  0  0  0  0  0  0  0  0  0  0
   39.5186   13.8392  -13.8863 N   0  0  0  0  0  0  0  0  0  0  0  0
   39.9459   14.4460  -13.1526 H   0  0  0  0  0  0  0  0  0  0  0  0
   34.0991   15.5553  -10.6619 C   0  0  0  0  0  0  0  0  0  0  0  0
   32.8145   15.6592  -11.1240 C   0  0  0  0  0  0  0  0  0  0  0  0
   31.7878   15.9904  -10.2772 C   0  0  0  0  0  0  0  0  0  0  0  0
   31.9790   16.2356   -8.9268 C   0  0  0  0  0  0  0  0  0  0  0  0
   33.2681   16.1325   -8.4573 C   0  0  0  0  0  0  0  0  0  0  0  0
   34.3034   15.7964   -9.3185 C   0  0  0  0  0  0  0  0  0  0  0  0
   30.8857   16.5929   -8.0285 C   0  0  0  0  0  0  0  0  0  0  0  0
   31.2636   16.3584   -6.7389 F   0  0  0  0  0  0  0  0  0  0  0  0
   30.5990   17.9617   -8.1365 F   0  0  0  0  0  0  0  0  0  0  0  0
   29.7081   15.9259   -8.3220 F   0  0  0  0  0  0  0  0  0  0  0  0
  1  2  1  0  0  0
  2  3  1  0  0  0
  3  4  1  0  0  0
  4  5  1  0  0  0
  5  6  1  0  0  0
  6  7  1  0  0  0
  7 21  1  0  0  0
 21 22  2  0  0  0
 22 23  1  0  0  0
 23 24  2  0  0  0
 24 25  1  0  0  0
 25 26  2  0  0  0
 24 27  1  0  0  0
 27 28  1  0  0  0
 27 29  1  0  0  0
 27 30  1  0  0  0
  4  8  1  0  0  0
  8  9  2  0  0  0
  9 10  1  0  0  0
 10 11  2  0  0  0
 11 12  1  0  0  0
 12 13  1  0  0  0
 12 14  2  0  0  0
 14 15  1  0  0  0
 15 16  2  0  0  0
 16 17  1  0  0  0
 17 18  2  0  0  0
 17 19  1  0  0  0
  7  2  1  0  0  0
 26 21  1  0  0  0
 19  8  1  0  0  0
 16 10  1  0  0  0
 19 20  1  0  0  0
M  END
> <minimizedAffinity>
-9.53245

> <CNNscore>
0.0983828753

> <CNNaffinity>
5.9238128662

> <CNN_VS>
0.5828017592

> <CNNaffinity_variance>
0.3925504088

$$$$
[H]c1c([H])c(C(F)(F)F)c([H])c([H])c1N1C([H])([H])C([H])([H])N(c2nc3c([H])c(C#N)c([H])c([H])c3n2[H])C([H])([H])[C@@]1([H])C([H])([H])[H]


 29 32  0  0  0  0  0  0  0  0999 V2000
   35.9316   16.5959  -10.4183 C   0  0  0  0  0  0  0  0  0  0  0  0
   35.3950   15.2430  -10.9205 C   0  0  0  0  0  0  0  0  0  0  0  0
   36.1002   14.9643  -12.2319 C   0  0  0  0  0  0  0  0  0  0  0  0
   35.3271   14.0090  -12.9975 N   0  0  0  0  0  0  0  0  0  0  0  0
   33.9361   13.7422  -12.7689 C   0  0  0  0  0  0  0  0  0  0  0  0
   33.3351   15.0622  -12.2924 C   0  0  0  0  0  0  0  0  0  0  0  0
   33.9682   15.3824  -11.0306 N   0  0  0  0  0  0  0  0  0  0  0  0
   36.0450   13.3235  -14.0324 C   0  0  0  0  0  0  0  0  0  0  0  0
   37.3490   13.4903  -14.3896 N   0  0  0  0  0  0  0  0  0  0  0  0
   37.5856   12.7030  -15.4694 C   0  0  0  0  0  0  0  0  0  0  0  0
   38.6274   12.3871  -16.3138 C   0  0  0  0  0  0  0  0  0  0  0  0
   38.5685   11.5116  -17.3559 C   0  0  0  0  0  0  0  0  0  0  0  0
   37.3651   10.8826  -17.6093 C   0  0  0  0  0  0  0  0  0  0  0  0
   36.2601   11.1533  -16.8006 C   0  0  0  0  0  0  0  0  0  0  0  0
   36.3858   12.0527  -15.7498 C   0  0  0  0  0  0  0  0  0  0  0  0
   35.4660   12.4506  -14.8506 N   0  0  0  0  0  0  0  0  0  0  0  0
   34.4412   12.1345  -14.8161 H   0  0  0  0  0  0  0  0  0  0  0  0
   39.6901   11.2021  -18.1911 C   0  0  0  0  0  0  0  0  0  0  0  0
   40.5977   10.9461  -18.8703 N   0  0  0  0  0  0  0  0  0  0  0  0
   33.2160   15.8018   -9.8939 C   0  0  0  0  0  0  0  0  0  0  0  0
   31.8843   16.1137   -9.9848 C   0  0  0  0  0  0  0  0  0  0  0  0
   31.1241   16.5148   -8.8936 C   0  0  0  0  0  0  0  0  0  0  0  0
   31.6754   16.6339   -7.6545 C   0  0  0  0  0  0  0  0  0  0  0  0
   33.0292   16.3220   -7.5087 C   0  0  0  0  0  0  0  0  0  0  0  0
   33.8162   15.9031   -8.5993 C   0  0  0  0  0  0  0  0  0  0  0  0
   30.8649   17.0634   -6.4942 C   0  0  0  0  0  0  0  0  0  0  0  0
   29.5585   17.2690   -6.9043 F   0  0  0  0  0  0  0  0  0  0  0  0
   30.9805   16.1191   -5.5058 F   0  0  0  0  0  0  0  0  0  0  0  0
   31.3711   18.2327   -6.0124 F   0  0  0  0  0  0  0  0  0  0  0  0
  1  2  1  0  0  0
  2  3  1  0  0  0
  3  4  1  0  0  0
  4  5  1  0  0  0
  5  6  1  0  0  0
  6  7  1  0  0  0
  7 20  1  0  0  0
 20 21  2  0  0  0
 21 22  1  0  0  0
 22 23  2  0  0  0
 23 24  1  0  0  0
 24 25  2  0  0  0
 23 26  1  0  0  0
 26 27  1  0  0  0
 26 28  1  0  0  0
 26 29  1  0  0  0
  4  8  1  0  0  0
  8  9  2  0  0  0
  9 10  1  0  0  0
 10 11  2  0  0  0
 11 12  1  0  0  0
 12 13  2  0  0  0
 13 14  1  0  0  0
 14 15  2  0  0  0
 15 16  1  0  0  0
 12 18  1  0  0  0
 18 19  3  0  0  0
  7  2  1  0  0  0
 25 20  1  0  0  0
 16  8  1  0  0  0
 15 10  1  0  0  0
 16 17  1  0  0  0
M  END
> <minimizedAffinity>
-8.33741

> <CNNscore>
0.2893689871

> <CNNaffinity>
6.0577449799

> <CNN_VS>
1.7529234886

> <CNNaffinity_variance>
1.0728871822

$$$$
[H]c1c([H])c(C(F)(F)F)c([H])c([H])c1N1C([H])([H])C([H])([H])N(c2nc3c([H])c(C#N)c([H])c([H])c3n2[H])C([H])([H])[C@@]1([H])C([H])([H])[H]


 29 32  0  0  0  0  0  0  0  0999 V2000
   44.3723   13.5377  -15.8564 C   0  0  0  0  0  0  0  0  0  0  0  0
   43.2079   13.1918  -14.9103 C   0  0  0  0  0  0  0  0  0  0  0  0
   41.9720   13.0770  -15.7788 C   0  0  0  0  0  0  0  0  0  0  0  0
   40.7922   13.2484  -14.9572 N   0  0  0  0  0  0  0  0  0  0  0  0
   40.8029   13.8738  -13.6662 C   0  0  0  0  0  0  0  0  0  0  0  0
   41.8962   14.9375  -13.7313 C   0  0  0  0  0  0  0  0  0  0  0  0
   43.1499   14.2415  -13.9295 N   0  0  0  0  0  0  0  0  0  0  0  0
   39.5716   12.7484  -15.5199 C   0  0  0  0  0  0  0  0  0  0  0  0
   38.3035   12.9478  -15.0636 N   0  0  0  0  0  0  0  0  0  0  0  0
   37.4641   12.2239  -15.8467 C   0  0  0  0  0  0  0  0  0  0  0  0
   36.1156   11.9644  -15.9580 C   0  0  0  0  0  0  0  0  0  0  0  0
   35.5346   11.1658  -16.8964 C   0  0  0  0  0  0  0  0  0  0  0  0
   36.3538   10.5463  -17.8202 C   0  0  0  0  0  0  0  0  0  0  0  0
   37.7329   10.7555  -17.7708 C   0  0  0  0  0  0  0  0  0  0  0  0
   38.2639   11.5856  -16.7921 C   0  0  0  0  0  0  0  0  0  0  0  0
   39.5460   11.9307  -16.5673 N   0  0  0  0  0  0  0  0  0  0  0  0
   40.3971   11.5874  -17.1231 H   0  0  0  0  0  0  0  0  0  0  0  0
   34.1217   10.9468  -16.9812 C   0  0  0  0  0  0  0  0  0  0  0  0
   32.9762   10.7650  -17.0537 N   0  0  0  0  0  0  0  0  0  0  0  0
   44.3126   14.5481  -13.1628 C   0  0  0  0  0  0  0  0  0  0  0  0
   44.8443   15.8112  -13.1321 C   0  0  0  0  0  0  0  0  0  0  0  0
   45.9690   16.1416  -12.3867 C   0  0  0  0  0  0  0  0  0  0  0  0
   46.6228   15.2073  -11.6431 C   0  0  0  0  0  0  0  0  0  0  0  0
   46.1164   13.9054  -11.6371 C   0  0  0  0  0  0  0  0  0  0  0  0
   44.9714   13.5508  -12.3768 C   0  0  0  0  0  0  0  0  0  0  0  0
   47.8216   15.5605  -10.8520 C   0  0  0  0  0  0  0  0  0  0  0  0
   48.5686   14.4170  -10.6251 F   0  0  0  0  0  0  0  0  0  0  0  0
   48.5153   16.5372  -11.5205 F   0  0  0  0  0  0  0  0  0  0  0  0
   47.4233   16.0784   -9.6567 F   0  0  0  0  0  0  0  0  0  0  0  0
  1  2  1  0  0  0
  2  3  1  0  0  0
  3  4  1  0  0  0
  4  5  1  0  0  0
  5  6  1  0  0  0
  6  7  1  0  0  0
  7 20  1  0  0  0
 20 21  2  0  0  0
 21 22  1  0  0  0
 22 23  2  0  0  0
 23 24  1  0  0  0
 24 25  2  0  0  0
 23 26  1  0  0  0
 26 27  1  0  0  0
 26 28  1  0  0  0
 26 29  1  0  0  0
  4  8  1  0  0  0
  8  9  2  0  0  0
  9 10  1  0  0  0
 10 11  2  0  0  0
 11 12  1  0  0  0
 12 13  2  0  0  0
 13 14  1  0  0  0
 14 15  2  0  0  0
 15 16  1  0  0  0
 12 18  1  0  0  0
 18 19  3  0  0  0
  7  2  1  0  0  0
 25 20  1  0  0  0
 16  8  1  0  0  0
 15 10  1  0  0  0
 16 17  1  0  0  0
M  END
> <minimizedAffinity>
-6.79369

> <CNNscore>
0.2048469037

> <CNNaffinity>
6.0832223892

> <CNN_VS>
1.2461292744

> <CNNaffinity_variance>
0.3922605515

$$$$
[H]c1c([H])c(C(F)(F)F)c([H])c([H])c1N1C([H])([H])C([H])([H])N(c2nc3c([H])c(C#N)c([H])c([H])c3n2[H])C([H])([H])[C@@]1([H])C([H])([H])[H]


 29 32  0  0  0  0  0  0  0  0999 V2000
   37.5573   15.4759   -8.3661 C   0  0  0  0  0  0  0  0  0  0  0  0
   36.6229   14.7425   -9.3456 C   0  0  0  0  0  0  0  0  0  0  0  0
   37.4112   14.5510  -10.6250 C   0  0  0  0  0  0  0  0  0  0  0  0
   36.4941   14.3359  -11.7246 N   0  0  0  0  0  0  0  0  0  0  0  0
   35.1078   14.7036  -11.6909 C   0  0  0  0  0  0  0  0  0  0  0  0
   35.0328   15.9530  -10.8168 C   0  0  0  0  0  0  0  0  0  0  0  0
   35.4504   15.5626   -9.4869 N   0  0  0  0  0  0  0  0  0  0  0  0
   37.0615   13.7202  -12.8887 C   0  0  0  0  0  0  0  0  0  0  0  0
   38.3183   13.8863  -13.3876 N   0  0  0  0  0  0  0  0  0  0  0  0
   38.3994   13.1834  -14.5456 C   0  0  0  0  0  0  0  0  0  0  0  0
   39.3227   12.9135  -15.5320 C   0  0  0  0  0  0  0  0  0  0  0  0
   39.1124   12.1261  -16.6237 C   0  0  0  0  0  0  0  0  0  0  0  0
   37.8680   11.5463  -16.7770 C   0  0  0  0  0  0  0  0  0  0  0  0
   36.8764   11.7754  -15.8218 C   0  0  0  0  0  0  0  0  0  0  0  0
   37.1549   12.5844  -14.7278 C   0  0  0  0  0  0  0  0  0  0  0  0
   36.3618   12.9289  -13.6956 N   0  0  0  0  0  0  0  0  0  0  0  0
   35.3390   12.6338  -13.5615 H   0  0  0  0  0  0  0  0  0  0  0  0
   40.1161   11.8601  -17.6102 C   0  0  0  0  0  0  0  0  0  0  0  0
   40.9345   11.6448  -18.4067 N   0  0  0  0  0  0  0  0  0  0  0  0
   34.7183   15.9433   -8.3238 C   0  0  0  0  0  0  0  0  0  0  0  0
   33.9828   15.0369   -7.6052 C   0  0  0  0  0  0  0  0  0  0  0  0
   33.2686   15.3764   -6.4632 C   0  0  0  0  0  0  0  0  0  0  0  0
   33.2506   16.6548   -5.9956 C   0  0  0  0  0  0  0  0  0  0  0  0
   33.9895   17.6154   -6.6905 C   0  0  0  0  0  0  0  0  0  0  0  0
   34.7294   17.2911   -7.8444 C   0  0  0  0  0  0  0  0  0  0  0  0
   32.4876   17.0149   -4.7808 C   0  0  0  0  0  0  0  0  0  0  0  0
   32.6875   18.3560   -4.5002 F   0  0  0  0  0  0  0  0  0  0  0  0
   31.1688   16.6939   -4.9807 F   0  0  0  0  0  0  0  0  0  0  0  0
   32.9431   16.2674   -3.7371 F   0  0  0  0  0  0  0  0  0  0  0  0
  1  2  1  0  0  0
  2  3  1  0  0  0
  3  4  1  0  0  0
  4  5  1  0  0  0
  5  6  1  0  0  0
  6  7  1  0  0  0
  7 20  1  0  0  0
 20 21  2  0  0  0
 21 22  1  0  0  0
 22 23  2  0  0  0
 23 24  1  0  0  0
 24 25  2  0  0  0
 23 26  1  0  0  0
 26 27  1  0  0  0
 26 28  1  0  0  0
 26 29  1  0  0  0
  4  8  1  0  0  0
  8  9  2  0  0  0
  9 10  1  0  0  0
 10 11  2  0  0  0
 11 12  1  0  0  0
 12 13  2  0  0  0
 13 14  1  0  0  0
 14 15  2  0  0  0
 15 16  1  0  0  0
 12 18  1  0  0  0
 18 19  3  0  0  0
  7  2  1  0  0  0
 25 20  1  0  0  0
 16  8  1  0  0  0
 15 10  1  0  0  0
 16 17  1  0  0  0
M  END
> <minimizedAffinity>
-7.79127

> <CNNscore>
0.1752529591

> <CNNaffinity>
5.7142100334

> <CNN_VS>
1.0014321804

> <CNNaffinity_variance>
0.8164890409

$$$$
[H]c1c([H])c(C(F)(F)F)c([H])c([H])c1N1C([H])([H])C([H])([H])N(c2nc3c([H])c(C#N)c([H])c([H])c3n2[H])C([H])([H])[C@@]1([H])C([H])([H])[H]


 29 32  0  0  0  0  0  0  0  0999 V2000
   43.7113   14.2930   -9.2375 C   0  0  0  0  0  0  0  0  0  0  0  0
   42.5920   15.3348   -9.0575 C   0  0  0  0  0  0  0  0  0  0  0  0
   41.3863   14.5802   -8.5361 C   0  0  0  0  0  0  0  0  0  0  0  0
   40.1884   15.3475   -8.8053 N   0  0  0  0  0  0  0  0  0  0  0  0
   40.1118   16.3881   -9.7900 C   0  0  0  0  0  0  0  0  0  0  0  0
   41.0648   15.9708  -10.9072 C   0  0  0  0  0  0  0  0  0  0  0  0
   42.3968   15.9538  -10.3405 N   0  0  0  0  0  0  0  0  0  0  0  0
   39.0435   15.0002   -8.0147 C   0  0  0  0  0  0  0  0  0  0  0  0
   37.7436   14.9374   -8.4176 N   0  0  0  0  0  0  0  0  0  0  0  0
   36.9865   14.6540   -7.3275 C   0  0  0  0  0  0  0  0  0  0  0  0
   35.6609   14.4550   -7.0094 C   0  0  0  0  0  0  0  0  0  0  0  0
   35.1762   14.1607   -5.7706 C   0  0  0  0  0  0  0  0  0  0  0  0
   36.0764   14.0577   -4.7279 C   0  0  0  0  0  0  0  0  0  0  0  0
   37.4377   14.2504   -4.9687 C   0  0  0  0  0  0  0  0  0  0  0  0
   37.8697   14.5432   -6.2558 C   0  0  0  0  0  0  0  0  0  0  0  0
   39.1191   14.7560   -6.7104 N   0  0  0  0  0  0  0  0  0  0  0  0
   40.0140   14.7508   -6.1185 H   0  0  0  0  0  0  0  0  0  0  0  0
   33.7874   13.9414   -5.4980 C   0  0  0  0  0  0  0  0  0  0  0  0
   32.6615   13.7640   -5.2713 N   0  0  0  0  0  0  0  0  0  0  0  0
   43.5067   16.5557  -11.0035 C   0  0  0  0  0  0  0  0  0  0  0  0
   43.5741   16.6358  -12.3702 C   0  0  0  0  0  0  0  0  0  0  0  0
   44.6369   17.2253  -13.0429 C   0  0  0  0  0  0  0  0  0  0  0  0
   45.6944   17.7533  -12.3675 C   0  0  0  0  0  0  0  0  0  0  0  0
   45.6704   17.7011  -10.9717 C   0  0  0  0  0  0  0  0  0  0  0  0
   44.5981   17.1177  -10.2690 C   0  0  0  0  0  0  0  0  0  0  0  0
   46.8263   18.3784  -13.0856 C   0  0  0  0  0  0  0  0  0  0  0  0
   46.7433   18.0581  -14.4301 F   0  0  0  0  0  0  0  0  0  0  0  0
   46.8033   19.7293  -12.8478 F   0  0  0  0  0  0  0  0  0  0  0  0
   47.9926   17.8879  -12.5807 F   0  0  0  0  0  0  0  0  0  0  0  0
  1  2  1  0  0  0
  2  3  1  0  0  0
  3  4  1  0  0  0
  4  5  1  0  0  0
  5  6  1  0  0  0
  6  7  1  0  0  0
  7 20  1  0  0  0
 20 21  2  0  0  0
 21 22  1  0  0  0
 22 23  2  0  0  0
 23 24  1  0  0  0
 24 25  2  0  0  0
 23 26  1  0  0  0
 26 27  1  0  0  0
 26 28  1  0  0  0
 26 29  1  0  0  0
  4  8  1  0  0  0
  8  9  2  0  0  0
  9 10  1  0  0  0
 10 11  2  0  0  0
 11 12  1  0  0  0
 12 13  2  0  0  0
 13 14  1  0  0  0
 14 15  2  0  0  0
 15 16  1  0  0  0
 12 18  1  0  0  0
 18 19  3  0  0  0
  7  2  1  0  0  0
 25 20  1  0  0  0
 16  8  1  0  0  0
 15 10  1  0  0  0
 16 17  1  0  0  0
M  END
> <minimizedAffinity>
-5.67237

> <CNNscore>
0.1680368483

> <CNNaffinity>
4.7804541588

> <CNN_VS>
0.8032924533

> <CNNaffinity_variance>
0.1724945307

$$$$
[H]c1c([H])c(C(F)(F)F)c([H])c([H])c1N1C([H])([H])C([H])([H])N(c2nc3c([H])c(C#N)c([H])c([H])c3n2[H])C([H])([H])[C@@]1([H])C([H])([H])[H]


 29 32  0  0  0  0  0  0  0  0999 V2000
   38.4432   14.2168  -13.8976 C   0  0  0  0  0  0  0  0  0  0  0  0
   39.5438   13.2471  -14.3652 C   0  0  0  0  0  0  0  0  0  0  0  0
   40.8531   14.0005  -14.2509 C   0  0  0  0  0  0  0  0  0  0  0  0
   41.8405   13.3768  -15.1068 N   0  0  0  0  0  0  0  0  0  0  0  0
   41.5134   12.5101  -16.2023 C   0  0  0  0  0  0  0  0  0  0  0  0
   40.1845   13.0225  -16.7521 C   0  0  0  0  0  0  0  0  0  0  0  0
   39.2008   12.8510  -15.7041 N   0  0  0  0  0  0  0  0  0  0  0  0
   43.2066   13.6826  -14.7961 C   0  0  0  0  0  0  0  0  0  0  0  0
   43.6721   14.6648  -13.9748 N   0  0  0  0  0  0  0  0  0  0  0  0
   45.0276   14.6493  -14.0393 C   0  0  0  0  0  0  0  0  0  0  0  0
   46.0989   15.3281  -13.5010 C   0  0  0  0  0  0  0  0  0  0  0  0
   47.4123   15.0704  -13.7552 C   0  0  0  0  0  0  0  0  0  0  0  0
   47.7160   14.0487  -14.6339 C   0  0  0  0  0  0  0  0  0  0  0  0
   46.6852   13.3163  -15.2249 C   0  0  0  0  0  0  0  0  0  0  0  0
   45.3657   13.6248  -14.9207 C   0  0  0  0  0  0  0  0  0  0  0  0
   44.2302   13.0513  -15.3621 N   0  0  0  0  0  0  0  0  0  0  0  0
   44.1649   12.2422  -16.0637 H   0  0  0  0  0  0  0  0  0  0  0  0
   48.4901   15.7941  -13.1504 C   0  0  0  0  0  0  0  0  0  0  0  0
   49.3663   16.3767  -12.6570 N   0  0  0  0  0  0  0  0  0  0  0  0
   37.9201   12.2772  -15.9579 C   0  0  0  0  0  0  0  0  0  0  0  0
   36.8383   12.5454  -15.1599 C   0  0  0  0  0  0  0  0  0  0  0  0
   35.5772   12.0096  -15.3885 C   0  0  0  0  0  0  0  0  0  0  0  0
   35.3477   11.1633  -16.4298 C   0  0  0  0  0  0  0  0  0  0  0  0
   36.4178   10.8628  -17.2760 C   0  0  0  0  0  0  0  0  0  0  0  0
   37.7021   11.4031  -17.0691 C   0  0  0  0  0  0  0  0  0  0  0  0
   34.0048   10.5920  -16.6702 C   0  0  0  0  0  0  0  0  0  0  0  0
   33.5098   11.0838  -17.8661 F   0  0  0  0  0  0  0  0  0  0  0  0
   34.1001    9.2236  -16.6449 F   0  0  0  0  0  0  0  0  0  0  0  0
   33.1778   10.9693  -15.6556 F   0  0  0  0  0  0  0  0  0  0  0  0
  1  2  1  0  0  0
  2  3  1  0  0  0
  3  4  1  0  0  0
  4  5  1  0  0  0
  5  6  1  0  0  0
  6  7  1  0  0  0
  7 20  1  0  0  0
 20 21  2  0  0  0
 21 22  1  0  0  0
 22 23  2  0  0  0
 23 24  1  0  0  0
 24 25  2  0  0  0
 23 26  1  0  0  0
 26 27  1  0  0  0
 26 28  1  0  0  0
 26 29  1  0  0  0
  4  8  1  0  0  0
  8  9  2  0  0  0
  9 10  1  0  0  0
 10 11  2  0  0  0
 11 12  1  0  0  0
 12 13  2  0  0  0
 13 14  1  0  0  0
 14 15  2  0  0  0
 15 16  1  0  0  0
 12 18  1  0  0  0
 18 19  3  0  0  0
  7  2  1  0  0  0
 25 20  1  0  0  0
 16  8  1  0  0  0
 15 10  1  0  0  0
 16 17  1  0  0  0
M  END
> <minimizedAffinity>
-8.29984

> <CNNscore>
0.1659151614

> <CNNaffinity>
6.1515922546

> <CNN_VS>
1.0206423998

> <CNNaffinity_variance>
0.0973028019

$$$$
[H]c1c([H])c(C(F)(F)F)c([H])c([H])c1N1C([H])([H])C([H])([H])N(c2nc3c([H])c(C#N)c([H])c([H])c3n2[H])C([H])([H])[C@@]1([H])C([H])([H])[H]


 29 32  0  0  0  0  0  0  0  0999 V2000
   37.9395   16.3256   -8.8860 C   0  0  0  0  0  0  0  0  0  0  0  0
   37.4083   15.1177   -9.6792 C   0  0  0  0  0  0  0  0  0  0  0  0
   38.1069   15.1489  -11.0231 C   0  0  0  0  0  0  0  0  0  0  0  0
   37.3350   14.3861  -11.9816 N   0  0  0  0  0  0  0  0  0  0  0  0
   35.9473   14.0639  -11.8128 C   0  0  0  0  0  0  0  0  0  0  0  0
   35.3409   15.2369  -11.0466 C   0  0  0  0  0  0  0  0  0  0  0  0
   35.9800   15.2676   -9.7481 N   0  0  0  0  0  0  0  0  0  0  0  0
   38.0506   13.9586  -13.1484 C   0  0  0  0  0  0  0  0  0  0  0  0
   37.5672   13.2486  -14.2058 N   0  0  0  0  0  0  0  0  0  0  0  0
   38.6062   12.9908  -15.0399 C   0  0  0  0  0  0  0  0  0  0  0  0
   38.8399   12.3517  -16.2380 C   0  0  0  0  0  0  0  0  0  0  0  0
   40.0442   12.2600  -16.8682 C   0  0  0  0  0  0  0  0  0  0  0  0
   41.1402   12.8449  -16.2643 C   0  0  0  0  0  0  0  0  0  0  0  0
   40.9859   13.5077  -15.0457 C   0  0  0  0  0  0  0  0  0  0  0  0
   39.7301   13.5709  -14.4559 C   0  0  0  0  0  0  0  0  0  0  0  0
   39.3555   14.1579  -13.3034 N   0  0  0  0  0  0  0  0  0  0  0  0
   40.0020   14.6755  -12.6213 H   0  0  0  0  0  0  0  0  0  0  0  0
   40.2284   11.6011  -18.1265 C   0  0  0  0  0  0  0  0  0  0  0  0
   40.3742   11.0701  -19.1499 N   0  0  0  0  0  0  0  0  0  0  0  0
   35.2324   15.4126   -8.5424 C   0  0  0  0  0  0  0  0  0  0  0  0
   34.4182   16.4935   -8.3237 C   0  0  0  0  0  0  0  0  0  0  0  0
   33.6706   16.6563   -7.1643 C   0  0  0  0  0  0  0  0  0  0  0  0
   33.7180   15.7396   -6.1589 C   0  0  0  0  0  0  0  0  0  0  0  0
   34.5297   14.6166   -6.3362 C   0  0  0  0  0  0  0  0  0  0  0  0
   35.2878   14.4260   -7.5080 C   0  0  0  0  0  0  0  0  0  0  0  0
   32.9232   15.9159   -4.9241 C   0  0  0  0  0  0  0  0  0  0  0  0
   33.1743   14.8574   -4.0677 F   0  0  0  0  0  0  0  0  0  0  0  0
   33.2263   17.1378   -4.3789 F   0  0  0  0  0  0  0  0  0  0  0  0
   31.6004   15.9233   -5.2495 F   0  0  0  0  0  0  0  0  0  0  0  0
  1  2  1  0  0  0
  2  3  1  0  0  0
  3  4  1  0  0  0
  4  5  1  0  0  0
  5  6  1  0  0  0
  6  7  1  0  0  0
  7 20  1  0  0  0
 20 21  2  0  0  0
 21 22  1  0  0  0
 22 23  2  0  0  0
 23 24  1  0  0  0
 24 25  2  0  0  0
 23 26  1  0  0  0
 26 27  1  0  0  0
 26 28  1  0  0  0
 26 29  1  0  0  0
  4  8  1  0  0  0
  8  9  2  0  0  0
  9 10  1  0  0  0
 10 11  2  0  0  0
 11 12  1  0  0  0
 12 13  2  0  0  0
 13 14  1  0  0  0
 14 15  2  0  0  0
 15 16  1  0  0  0
 12 18  1  0  0  0
 18 19  3  0  0  0
  7  2  1  0  0  0
 25 20  1  0  0  0
 16  8  1  0  0  0
 15 10  1  0  0  0
 16 17  1  0  0  0
M  END
> <minimizedAffinity>
-8.19876

> <CNNscore>
0.1531353444

> <CNNaffinity>
5.7217230797

> <CNN_VS>
0.8761980534

> <CNNaffinity_variance>
0.7750535607

$$$$
[H]c1c([H])c(C(F)(F)F)c([H])c([H])c1N1C([H])([H])C([H])([H])N(c2nc3c([H])c(C#N)c([H])c([H])c3n2[H])C([H])([H])[C@@]1([H])C([H])([H])[H]


 29 32  0  0  0  0  0  0  0  0999 V2000
   33.8133   13.7722  -14.4990 C   0  0  0  0  0  0  0  0  0  0  0  0
   34.6871   13.7430  -13.2317 C   0  0  0  0  0  0  0  0  0  0  0  0
   34.0903   14.7575  -12.2781 C   0  0  0  0  0  0  0  0  0  0  0  0
   35.0917   15.1504  -11.3090 N   0  0  0  0  0  0  0  0  0  0  0  0
   36.5021   14.9729  -11.5025 C   0  0  0  0  0  0  0  0  0  0  0  0
   36.7357   15.1248  -13.0035 C   0  0  0  0  0  0  0  0  0  0  0  0
   36.0298   14.0399  -13.6516 N   0  0  0  0  0  0  0  0  0  0  0  0
   34.5857   15.7493  -10.1083 C   0  0  0  0  0  0  0  0  0  0  0  0
   35.2908   16.4123   -9.1496 N   0  0  0  0  0  0  0  0  0  0  0  0
   34.4291   16.7348   -8.1519 C   0  0  0  0  0  0  0  0  0  0  0  0
   34.4483   17.3753   -6.9322 C   0  0  0  0  0  0  0  0  0  0  0  0
   33.3730   17.5665   -6.1178 C   0  0  0  0  0  0  0  0  0  0  0  0
   32.1498   17.0744   -6.5299 C   0  0  0  0  0  0  0  0  0  0  0  0
   32.0490   16.4088   -7.7526 C   0  0  0  0  0  0  0  0  0  0  0  0
   33.1819   16.2504   -8.5402 C   0  0  0  0  0  0  0  0  0  0  0  0
   33.3113   15.6575   -9.7422 N   0  0  0  0  0  0  0  0  0  0  0  0
   32.5272   15.1769  -10.2948 H   0  0  0  0  0  0  0  0  0  0  0  0
   33.4439   18.2601   -4.8667 C   0  0  0  0  0  0  0  0  0  0  0  0
   33.4974   18.8194   -3.8494 N   0  0  0  0  0  0  0  0  0  0  0  0
   36.6371   13.2454  -14.6684 C   0  0  0  0  0  0  0  0  0  0  0  0
   37.9974   13.1963  -14.8297 C   0  0  0  0  0  0  0  0  0  0  0  0
   38.6173   12.4238  -15.8038 C   0  0  0  0  0  0  0  0  0  0  0  0
   37.8916   11.6702  -16.6748 C   0  0  0  0  0  0  0  0  0  0  0  0
   36.5005   11.6822  -16.5479 C   0  0  0  0  0  0  0  0  0  0  0  0
   35.8518   12.4497  -15.5609 C   0  0  0  0  0  0  0  0  0  0  0  0
   38.5532   10.8502  -17.7129 C   0  0  0  0  0  0  0  0  0  0  0  0
   37.5880   10.1823  -18.4472 F   0  0  0  0  0  0  0  0  0  0  0  0
   39.3463   11.6680  -18.4774 F   0  0  0  0  0  0  0  0  0  0  0  0
   39.3621    9.9385  -17.1044 F   0  0  0  0  0  0  0  0  0  0  0  0
  1  2  1  0  0  0
  2  3  1  0  0  0
  3  4  1  0  0  0
  4  5  1  0  0  0
  5  6  1  0  0  0
  6  7  1  0  0  0
  7 20  1  0  0  0
 20 21  2  0  0  0
 21 22  1  0  0  0
 22 23  2  0  0  0
 23 24  1  0  0  0
 24 25  2  0  0  0
 23 26  1  0  0  0
 26 27  1  0  0  0
 26 28  1  0  0  0
 26 29  1  0  0  0
  4  8  1  0  0  0
  8  9  2  0  0  0
  9 10  1  0  0  0
 10 11  2  0  0  0
 11 12  1  0  0  0
 12 13  2  0  0  0
 13 14  1  0  0  0
 14 15  2  0  0  0
 15 16  1  0  0  0
 12 18  1  0  0  0
 18 19  3  0  0  0
  7  2  1  0  0  0
 25 20  1  0  0  0
 16  8  1  0  0  0
 15 10  1  0  0  0
 16 17  1  0  0  0
M  END
> <minimizedAffinity>
-8.45665

> <CNNscore>
0.1296764910

> <CNNaffinity>
5.4838991165

> <CNN_VS>
0.7111327648

> <CNNaffinity_variance>
0.3119476438

$$$$
[H]c1c([H])c(C(F)(F)F)c([H])c([H])c1N1C([H])([H])C([H])([H])N(c2nc3c([H])c(C#N)c([H])c([H])c3n2[H])C([H])([H])[C@@]1([H])C([H])([H])[H]


 29 32  0  0  0  0  0  0  0  0999 V2000
   34.8793   16.1653  -10.0919 C   0  0  0  0  0  0  0  0  0  0  0  0
   36.1552   16.4265  -10.9131 C   0  0  0  0  0  0  0  0  0  0  0  0
   36.3965   15.1775  -11.7358 C   0  0  0  0  0  0  0  0  0  0  0  0
   37.7865   15.1306  -12.1382 N   0  0  0  0  0  0  0  0  0  0  0  0
   38.8303   15.8709  -11.4896 C   0  0  0  0  0  0  0  0  0  0  0  0
   38.4232   15.9591  -10.0208 C   0  0  0  0  0  0  0  0  0  0  0  0
   37.1971   16.7269   -9.9688 N   0  0  0  0  0  0  0  0  0  0  0  0
   38.0771   14.2754  -13.2519 C   0  0  0  0  0  0  0  0  0  0  0  0
   39.1937   14.2779  -14.0323 N   0  0  0  0  0  0  0  0  0  0  0  0
   39.0107   13.3635  -15.0183 C   0  0  0  0  0  0  0  0  0  0  0  0
   39.6906   12.8628  -16.1070 C   0  0  0  0  0  0  0  0  0  0  0  0
   39.2374   11.8934  -16.9501 C   0  0  0  0  0  0  0  0  0  0  0  0
   37.9852   11.3601  -16.7142 C   0  0  0  0  0  0  0  0  0  0  0  0
   37.2314   11.8185  -15.6325 C   0  0  0  0  0  0  0  0  0  0  0  0
   37.7518   12.8060  -14.8062 C   0  0  0  0  0  0  0  0  0  0  0  0
   37.2096   13.3819  -13.7164 N   0  0  0  0  0  0  0  0  0  0  0  0
   36.2394   13.1711  -13.3097 H   0  0  0  0  0  0  0  0  0  0  0  0
   39.9957   11.3923  -18.0570 C   0  0  0  0  0  0  0  0  0  0  0  0
   40.6090   10.9805  -18.9541 N   0  0  0  0  0  0  0  0  0  0  0  0
   37.0083   17.7846   -9.0312 C   0  0  0  0  0  0  0  0  0  0  0  0
   36.1454   17.6653   -7.9728 C   0  0  0  0  0  0  0  0  0  0  0  0
   35.9489   18.6741   -7.0383 C   0  0  0  0  0  0  0  0  0  0  0  0
   36.6062   19.8625   -7.1333 C   0  0  0  0  0  0  0  0  0  0  0  0
   37.5015   20.0313   -8.1923 C   0  0  0  0  0  0  0  0  0  0  0  0
   37.7240   19.0180   -9.1450 C   0  0  0  0  0  0  0  0  0  0  0  0
   36.3939   20.9363   -6.1387 C   0  0  0  0  0  0  0  0  0  0  0  0
   36.8777   20.5192   -4.9102 F   0  0  0  0  0  0  0  0  0  0  0  0
   36.9935   22.0822   -6.5966 F   0  0  0  0  0  0  0  0  0  0  0  0
   35.0579   21.1807   -6.0331 F   0  0  0  0  0  0  0  0  0  0  0  0
  1  2  1  0  0  0
  2  3  1  0  0  0
  3  4  1  0  0  0
  4  5  1  0  0  0
  5  6  1  0  0  0
  6  7  1  0  0  0
  7 20  1  0  0  0
 20 21  2  0  0  0
 21 22  1  0  0  0
 22 23  2  0  0  0
 23 24  1  0  0  0
 24 25  2  0  0  0
 23 26  1  0  0  0
 26 27  1  0  0  0
 26 28  1  0  0  0
 26 29  1  0  0  0
  4  8  1  0  0  0
  8  9  2  0  0  0
  9 10  1  0  0  0
 10 11  2  0  0  0
 11 12  1  0  0  0
 12 13  2  0  0  0
 13 14  1  0  0  0
 14 15  2  0  0  0
 15 16  1  0  0  0
 12 18  1  0  0  0
 18 19  3  0  0  0
  7  2  1  0  0  0
 25 20  1  0  0  0
 16  8  1  0  0  0
 15 10  1  0  0  0
 16 17  1  0  0  0
M  END
> <minimizedAffinity>
-8.04380

> <CNNscore>
0.1181519926

> <CNNaffinity>
5.8759970665

> <CNN_VS>
0.6942607760

> <CNNaffinity_variance>
0.6731067300

$$$$
[H]c1c([H])c(C(F)(F)F)c([H])c([H])c1N1C([H])([H])C([H])([H])N(c2nc3c([H])c(C#N)c([H])c([H])c3n2[H])C([H])([H])[C@@]1([H])C([H])([H])[H]


 29 32  0  0  0  0  0  0  0  0999 V2000
   33.6704   13.9272  -14.2538 C   0  0  0  0  0  0  0  0  0  0  0  0
   34.6799   13.8190  -13.0964 C   0  0  0  0  0  0  0  0  0  0  0  0
   34.3072   14.8999  -12.1026 C   0  0  0  0  0  0  0  0  0  0  0  0
   35.4509   15.1952  -11.2653 N   0  0  0  0  0  0  0  0  0  0  0  0
   36.8029   14.8690  -11.6174 C   0  0  0  0  0  0  0  0  0  0  0  0
   36.8723   14.9808  -13.1384 C   0  0  0  0  0  0  0  0  0  0  0  0
   35.9871   13.9694  -13.6760 N   0  0  0  0  0  0  0  0  0  0  0  0
   35.1543   15.8556  -10.0275 C   0  0  0  0  0  0  0  0  0  0  0  0
   34.0156   15.7585   -9.2860 N   0  0  0  0  0  0  0  0  0  0  0  0
   34.1289   16.6165   -8.2406 C   0  0  0  0  0  0  0  0  0  0  0  0
   33.3946   17.0212   -7.1473 C   0  0  0  0  0  0  0  0  0  0  0  0
   33.7895   17.9370   -6.2193 C   0  0  0  0  0  0  0  0  0  0  0  0
   35.0277   18.5291   -6.3763 C   0  0  0  0  0  0  0  0  0  0  0  0
   35.8302   18.1753   -7.4621 C   0  0  0  0  0  0  0  0  0  0  0  0
   35.3725   17.2307   -8.3715 C   0  0  0  0  0  0  0  0  0  0  0  0
   35.9755   16.7403   -9.4711 N   0  0  0  0  0  0  0  0  0  0  0  0
   36.9393   17.0302   -9.8429 H   0  0  0  0  0  0  0  0  0  0  0  0
   32.9944   18.3065   -5.0868 C   0  0  0  0  0  0  0  0  0  0  0  0
   32.3534   18.6043   -4.1644 N   0  0  0  0  0  0  0  0  0  0  0  0
   36.3853   13.1057  -14.7386 C   0  0  0  0  0  0  0  0  0  0  0  0
   37.6950   12.9975  -15.1284 C   0  0  0  0  0  0  0  0  0  0  0  0
   38.1135   12.1573  -16.1523 C   0  0  0  0  0  0  0  0  0  0  0  0
   37.2261   11.3917  -16.8448 C   0  0  0  0  0  0  0  0  0  0  0  0
   35.8790   11.4624  -16.4816 C   0  0  0  0  0  0  0  0  0  0  0  0
   35.4341   12.2993  -15.4396 C   0  0  0  0  0  0  0  0  0  0  0  0
   37.6733   10.4995  -17.9364 C   0  0  0  0  0  0  0  0  0  0  0  0
   39.0570   10.5034  -17.9877 F   0  0  0  0  0  0  0  0  0  0  0  0
   37.1423    9.2519  -17.7275 F   0  0  0  0  0  0  0  0  0  0  0  0
   37.1812   10.9677  -19.1172 F   0  0  0  0  0  0  0  0  0  0  0  0
  1  2  1  0  0  0
  2  3  1  0  0  0
  3  4  1  0  0  0
  4  5  1  0  0  0
  5  6  1  0  0  0
  6  7  1  0  0  0
  7 20  1  0  0  0
 20 21  2  0  0  0
 21 22  1  0  0  0
 22 23  2  0  0  0
 23 24  1  0  0  0
 24 25  2  0  0  0
 23 26  1  0  0  0
 26 27  1  0  0  0
 26 28  1  0  0  0
 26 29  1  0  0  0
  4  8  1  0  0  0
  8  9  2  0  0  0
  9 10  1  0  0  0
 10 11  2  0  0  0
 11 12  1  0  0  0
 12 13  2  0  0  0
 13 14  1  0  0  0
 14 15  2  0  0  0
 15 16  1  0  0  0
 12 18  1  0  0  0
 18 19  3  0  0  0
  7  2  1  0  0  0
 25 20  1  0  0  0
 16  8  1  0  0  0
 15 10  1  0  0  0
 16 17  1  0  0  0
M  END
> <minimizedAffinity>
-8.19135

> <CNNscore>
0.0973906666

> <CNNaffinity>
5.5581655502

> <CNN_VS>
0.5413134694

> <CNNaffinity_variance>
0.1686447114

$$$$
[H]c1c([H])c(N2C([H])([H])C([H])([H])N(c3nc4c([H])c(C(=O)N([H])[H])c([H])c([H])c4n3[H])C([H])([H])[C@]2([H])C([H])([H])[H])c([H])c([H])c1F


 29 32  0  0  0  0  0  0  0  0999 V2000
   39.9191   12.5526  -15.7437 C   0  0  0  0  0  0  0  0  0  0  0  0
   38.7810   12.8400  -15.0976 N   0  0  0  0  0  0  0  0  0  0  0  0
   37.7642   12.2507  -15.7451 C   0  0  0  0  0  0  0  0  0  0  0  0
   36.4074   12.1887  -15.5606 C   0  0  0  0  0  0  0  0  0  0  0  0
   35.5581   11.4915  -16.3978 C   0  0  0  0  0  0  0  0  0  0  0  0
   36.1390   10.8377  -17.4613 C   0  0  0  0  0  0  0  0  0  0  0  0
   37.4969   10.8671  -17.6934 C   0  0  0  0  0  0  0  0  0  0  0  0
   38.3077   11.5800  -16.8255 C   0  0  0  0  0  0  0  0  0  0  0  0
   39.6189   11.7731  -16.8109 N   0  0  0  0  0  0  0  0  0  0  0  0
   40.3377   11.4146  -17.4758 H   0  0  0  0  0  0  0  0  0  0  0  0
   44.8188   12.6208  -16.3013 C   0  0  0  0  0  0  0  0  0  0  0  0
   43.5988   13.4331  -15.8411 C   0  0  0  0  0  0  0  0  0  0  0  0
   42.3477   12.6504  -16.1341 C   0  0  0  0  0  0  0  0  0  0  0  0
   41.2130   13.0047  -15.3534 N   0  0  0  0  0  0  0  0  0  0  0  0
   41.3240   13.8089  -14.1765 C   0  0  0  0  0  0  0  0  0  0  0  0
   42.6694   13.5203  -13.5277 C   0  0  0  0  0  0  0  0  0  0  0  0
   43.7228   13.8084  -14.4607 N   0  0  0  0  0  0  0  0  0  0  0  0
   44.8789   14.4785  -14.0193 C   0  0  0  0  0  0  0  0  0  0  0  0
   45.2209   15.6950  -14.5643 C   0  0  0  0  0  0  0  0  0  0  0  0
   46.3543   16.3434  -14.1492 C   0  0  0  0  0  0  0  0  0  0  0  0
   47.1411   15.7665  -13.1864 C   0  0  0  0  0  0  0  0  0  0  0  0
   48.2650   16.3879  -12.7598 F   0  0  0  0  0  0  0  0  0  0  0  0
   46.7935   14.5326  -12.6337 C   0  0  0  0  0  0  0  0  0  0  0  0
   45.6602   13.8824  -13.0481 C   0  0  0  0  0  0  0  0  0  0  0  0
   34.1253   11.4650  -16.1456 C   0  0  0  0  0  0  0  0  0  0  0  0
   33.6416   11.8440  -14.8641 N   0  0  0  0  0  0  0  0  0  0  0  0
   33.3097   11.1178  -17.0270 O   0  0  0  0  0  0  0  0  0  0  0  0
   33.5644   11.0819  -14.1501 H   0  0  0  0  0  0  0  0  0  0  0  0
   33.3750   12.8020  -14.6213 H   0  0  0  0  0  0  0  0  0  0  0  0
 11 12  1  0  0  0
 12 13  1  0  0  0
 13 14  1  0  0  0
 14 15  1  0  0  0
 15 16  1  0  0  0
 16 17  1  0  0  0
 17 18  1  0  0  0
 18 19  2  0  0  0
 19 20  1  0  0  0
 20 21  2  0  0  0
 21 22  1  0  0  0
 21 23  1  0  0  0
 23 24  2  0  0  0
 14  1  1  0  0  0
  1  2  2  0  0  0
  2  3  1  0  0  0
  3  4  2  0  0  0
  4  5  1  0  0  0
  5  6  2  0  0  0
  6  7  1  0  0  0
  7  8  2  0  0  0
  8  9  1  0  0  0
  5 25  1  0  0  0
 25 26  1  0  0  0
 25 27  2  0  0  0
 17 12  1  0  0  0
 24 18  1  0  0  0
  9  1  1  0  0  0
  8  3  1  0  0  0
  9 10  1  0  0  0
 26 28  1  0  0  0
 26 29  1  0  0  0
M  END
> <minimizedAffinity>
-8.61487

> <CNNscore>
0.6211161017

> <CNNaffinity>
6.6513390541

> <CNN_VS>
4.1312537193

> <CNNaffinity_variance>
0.2085349113

$$$$
[H]c1c([H])c(N2C([H])([H])C([H])([H])N(c3nc4c([H])c(C(=O)N([H])[H])c([H])c([H])c4n3[H])C([H])([H])[C@]2([H])C([H])([H])[H])c([H])c([H])c1F


 29 32  0  0  0  0  0  0  0  0999 V2000
   39.0368   15.4039   -6.0651 C   0  0  0  0  0  0  0  0  0  0  0  0
   38.1001   16.2171   -5.5585 N   0  0  0  0  0  0  0  0  0  0  0  0
   36.9680   15.5146   -5.4000 C   0  0  0  0  0  0  0  0  0  0  0  0
   35.7101   15.8007   -4.9367 C   0  0  0  0  0  0  0  0  0  0  0  0
   34.6929   14.8679   -4.8754 C   0  0  0  0  0  0  0  0  0  0  0  0
   34.9941   13.5966   -5.3101 C   0  0  0  0  0  0  0  0  0  0  0  0
   36.2415   13.2551   -5.7852 C   0  0  0  0  0  0  0  0  0  0  0  0
   37.2291   14.2255   -5.8272 C   0  0  0  0  0  0  0  0  0  0  0  0
   38.4913   14.1741   -6.2285 N   0  0  0  0  0  0  0  0  0  0  0  0
   39.0209   13.3612   -6.6106 H   0  0  0  0  0  0  0  0  0  0  0  0
   42.8457   18.5023   -5.6019 C   0  0  0  0  0  0  0  0  0  0  0  0
   42.4425   17.0407   -5.8492 C   0  0  0  0  0  0  0  0  0  0  0  0
   40.9500   16.9118   -5.7103 C   0  0  0  0  0  0  0  0  0  0  0  0
   40.3729   15.7931   -6.3722 N   0  0  0  0  0  0  0  0  0  0  0  0
   41.0936   15.0343   -7.3463 C   0  0  0  0  0  0  0  0  0  0  0  0
   42.0491   15.9721   -8.0688 C   0  0  0  0  0  0  0  0  0  0  0  0
   42.9362   16.5791   -7.1161 N   0  0  0  0  0  0  0  0  0  0  0  0
   44.3037   16.7073   -7.4226 C   0  0  0  0  0  0  0  0  0  0  0  0
   45.2513   16.1564   -6.5904 C   0  0  0  0  0  0  0  0  0  0  0  0
   46.5843   16.2927   -6.8762 C   0  0  0  0  0  0  0  0  0  0  0  0
   46.9612   16.9828   -7.9989 C   0  0  0  0  0  0  0  0  0  0  0  0
   48.2717   17.1303   -8.3024 F   0  0  0  0  0  0  0  0  0  0  0  0
   45.9997   17.5413   -8.8428 C   0  0  0  0  0  0  0  0  0  0  0  0
   44.6656   17.4062   -8.5582 C   0  0  0  0  0  0  0  0  0  0  0  0
   33.3784   15.2365   -4.3719 C   0  0  0  0  0  0  0  0  0  0  0  0
   32.2213   14.7618   -5.0468 N   0  0  0  0  0  0  0  0  0  0  0  0
   33.2414   15.9596   -3.3614 O   0  0  0  0  0  0  0  0  0  0  0  0
   31.8552   15.3609   -5.8236 H   0  0  0  0  0  0  0  0  0  0  0  0
   31.7484   13.8854   -4.8096 H   0  0  0  0  0  0  0  0  0  0  0  0
 11 12  1  0  0  0
 12 13  1  0  0  0
 13 14  1  0  0  0
 14 15  1  0  0  0
 15 16  1  0  0  0
 16 17  1  0  0  0
 17 18  1  0  0  0
 18 19  2  0  0  0
 19 20  1  0  0  0
 20 21  2  0  0  0
 21 22  1  0  0  0
 21 23  1  0  0  0
 23 24  2  0  0  0
 14  1  1  0  0  0
  1  2  2  0  0  0
  2  3  1  0  0  0
  3  4  2  0  0  0
  4  5  1  0  0  0
  5  6  2  0  0  0
  6  7  1  0  0  0
  7  8  2  0  0  0
  8  9  1  0  0  0
  5 25  1  0  0  0
 25 26  1  0  0  0
 25 27  2  0  0  0
 17 12  1  0  0  0
 24 18  1  0  0  0
  9  1  1  0  0  0
  8  3  1  0  0  0
  9 10  1  0  0  0
 26 28  1  0  0  0
 26 29  1  0  0  0
M  END
> <minimizedAffinity>
-4.28862

> <CNNscore>
0.5734950304

> <CNNaffinity>
5.0649003983

> <CNN_VS>
2.9046952724

> <CNNaffinity_variance>
0.4956719279

$$$$
[H]c1c([H])c(N2C([H])([H])C([H])([H])N(c3nc4c([H])c(C(=O)N([H])[H])c([H])c([H])c4n3[H])C([H])([H])[C@]2([H])C([H])([H])[H])c([H])c([H])c1F


 29 32  0  0  0  0  0  0  0  0999 V2000
   40.1949   13.0545  -15.1294 C   0  0  0  0  0  0  0  0  0  0  0  0
   39.2053   13.6029  -14.4115 N   0  0  0  0  0  0  0  0  0  0  0  0
   38.0362   13.1260  -14.8654 C   0  0  0  0  0  0  0  0  0  0  0  0
   36.7202   13.3174  -14.5333 C   0  0  0  0  0  0  0  0  0  0  0  0
   35.6746   12.6848  -15.1775 C   0  0  0  0  0  0  0  0  0  0  0  0
   36.0088   11.8256  -16.2002 C   0  0  0  0  0  0  0  0  0  0  0  0
   37.3148   11.5967  -16.5749 C   0  0  0  0  0  0  0  0  0  0  0  0
   38.3290   12.2547  -15.8986 C   0  0  0  0  0  0  0  0  0  0  0  0
   39.6457   12.2219  -16.0469 N   0  0  0  0  0  0  0  0  0  0  0  0
   40.2109   11.6733  -16.7302 H   0  0  0  0  0  0  0  0  0  0  0  0
   44.9085   12.5831  -16.5011 C   0  0  0  0  0  0  0  0  0  0  0  0
   43.8932   13.4983  -15.8001 C   0  0  0  0  0  0  0  0  0  0  0  0
   42.5212   12.8925  -15.9182 C   0  0  0  0  0  0  0  0  0  0  0  0
   41.5820   13.3208  -14.9399 N   0  0  0  0  0  0  0  0  0  0  0  0
   41.9834   14.0185  -13.7583 C   0  0  0  0  0  0  0  0  0  0  0  0
   43.3672   13.5263  -13.3616 C   0  0  0  0  0  0  0  0  0  0  0  0
   44.2850   13.7549  -14.4426 N   0  0  0  0  0  0  0  0  0  0  0  0
   45.5735   14.2496  -14.1682 C   0  0  0  0  0  0  0  0  0  0  0  0
   46.5040   13.4448  -13.5516 C   0  0  0  0  0  0  0  0  0  0  0  0
   47.7546   13.9275  -13.2678 C   0  0  0  0  0  0  0  0  0  0  0  0
   48.0663   15.2189  -13.6053 C   0  0  0  0  0  0  0  0  0  0  0  0
   49.2949   15.7179  -13.3358 F   0  0  0  0  0  0  0  0  0  0  0  0
   47.1221   16.0348  -14.2310 C   0  0  0  0  0  0  0  0  0  0  0  0
   45.8704   15.5536  -14.5153 C   0  0  0  0  0  0  0  0  0  0  0  0
   34.2981   12.9316  -14.7754 C   0  0  0  0  0  0  0  0  0  0  0  0
   33.9000   14.2562  -14.4486 N   0  0  0  0  0  0  0  0  0  0  0  0
   33.4575   12.0086  -14.7103 O   0  0  0  0  0  0  0  0  0  0  0  0
   34.0180   14.5460  -13.4493 H   0  0  0  0  0  0  0  0  0  0  0  0
   33.5152   14.9152  -15.1308 H   0  0  0  0  0  0  0  0  0  0  0  0
 11 12  1  0  0  0
 12 13  1  0  0  0
 13 14  1  0  0  0
 14 15  1  0  0  0
 15 16  1  0  0  0
 16 17  1  0  0  0
 17 18  1  0  0  0
 18 19  2  0  0  0
 19 20  1  0  0  0
 20 21  2  0  0  0
 21 22  1  0  0  0
 21 23  1  0  0  0
 23 24  2  0  0  0
 14  1  1  0  0  0
  1  2  2  0  0  0
  2  3  1  0  0  0
  3  4  2  0  0  0
  4  5  1  0  0  0
  5  6  2  0  0  0
  6  7  1  0  0  0
  7  8  2  0  0  0
  8  9  1  0  0  0
  5 25  1  0  0  0
 25 26  1  0  0  0
 25 27  2  0  0  0
 17 12  1  0  0  0
 24 18  1  0  0  0
  9  1  1  0  0  0
  8  3  1  0  0  0
  9 10  1  0  0  0
 26 28  1  0  0  0
 26 29  1  0  0  0
M  END
> <minimizedAffinity>
-8.08182

> <CNNscore>
0.3156138062

> <CNNaffinity>
6.1456117630

> <CNN_VS>
1.9396399260

> <CNNaffinity_variance>
0.0784323364

$$$$
[H]c1c([H])c(N2C([H])([H])C([H])([H])N(c3nc4c([H])c(C(=O)N([H])[H])c([H])c([H])c4n3[H])C([H])([H])[C@]2([H])C([H])([H])[H])c([H])c([H])c1F


 29 32  0  0  0  0  0  0  0  0999 V2000
   33.4267   10.6927  -17.4740 C   0  0  0  0  0  0  0  0  0  0  0  0
   32.9280    9.4507  -17.4082 N   0  0  0  0  0  0  0  0  0  0  0  0
   32.2153    9.2193  -18.5212 C   0  0  0  0  0  0  0  0  0  0  0  0
   31.4930    8.1588  -19.0031 C   0  0  0  0  0  0  0  0  0  0  0  0
   30.8331    8.1780  -20.2167 C   0  0  0  0  0  0  0  0  0  0  0  0
   30.9275    9.3380  -20.9524 C   0  0  0  0  0  0  0  0  0  0  0  0
   31.6399   10.4334  -20.5154 C   0  0  0  0  0  0  0  0  0  0  0  0
   32.2850   10.3659  -19.2913 C   0  0  0  0  0  0  0  0  0  0  0  0
   33.0252   11.2525  -18.6411 N   0  0  0  0  0  0  0  0  0  0  0  0
   33.2837   12.2210  -18.9280 H   0  0  0  0  0  0  0  0  0  0  0  0
   37.8312   11.5933  -15.4465 C   0  0  0  0  0  0  0  0  0  0  0  0
   36.4153   12.1480  -15.6645 C   0  0  0  0  0  0  0  0  0  0  0  0
   35.6546   11.2143  -16.5661 C   0  0  0  0  0  0  0  0  0  0  0  0
   34.2381   11.2981  -16.4710 N   0  0  0  0  0  0  0  0  0  0  0  0
   33.5898   11.9769  -15.3926 C   0  0  0  0  0  0  0  0  0  0  0  0
   34.4571   11.8353  -14.1508 C   0  0  0  0  0  0  0  0  0  0  0  0
   35.7582   12.3857  -14.4100 N   0  0  0  0  0  0  0  0  0  0  0  0
   36.3860   13.1779  -13.4308 C   0  0  0  0  0  0  0  0  0  0  0  0
   35.8420   13.2756  -12.1705 C   0  0  0  0  0  0  0  0  0  0  0  0
   36.4410   14.0586  -11.2188 C   0  0  0  0  0  0  0  0  0  0  0  0
   37.5862   14.7412  -11.5371 C   0  0  0  0  0  0  0  0  0  0  0  0
   38.1961   15.5203  -10.6140 F   0  0  0  0  0  0  0  0  0  0  0  0
   38.1376   14.6414  -12.8156 C   0  0  0  0  0  0  0  0  0  0  0  0
   37.5396   13.8589  -13.7691 C   0  0  0  0  0  0  0  0  0  0  0  0
   30.0832    7.0168  -20.6712 C   0  0  0  0  0  0  0  0  0  0  0  0
   29.2806    6.3039  -19.7399 N   0  0  0  0  0  0  0  0  0  0  0  0
   30.1270    6.6308  -21.8594 O   0  0  0  0  0  0  0  0  0  0  0  0
   29.7504    5.5279  -19.2166 H   0  0  0  0  0  0  0  0  0  0  0  0
   28.2937    6.5137  -19.5674 H   0  0  0  0  0  0  0  0  0  0  0  0
 11 12  1  0  0  0
 12 13  1  0  0  0
 13 14  1  0  0  0
 14 15  1  0  0  0
 15 16  1  0  0  0
 16 17  1  0  0  0
 17 18  1  0  0  0
 18 19  2  0  0  0
 19 20  1  0  0  0
 20 21  2  0  0  0
 21 22  1  0  0  0
 21 23  1  0  0  0
 23 24  2  0  0  0
 14  1  1  0  0  0
  1  2  2  0  0  0
  2  3  1  0  0  0
  3  4  2  0  0  0
  4  5  1  0  0  0
  5  6  2  0  0  0
  6  7  1  0  0  0
  7  8  2  0  0  0
  8  9  1  0  0  0
  5 25  1  0  0  0
 25 26  1  0  0  0
 25 27  2  0  0  0
 17 12  1  0  0  0
 24 18  1  0  0  0
  9  1  1  0  0  0
  8  3  1  0  0  0
  9 10  1  0  0  0
 26 28  1  0  0  0
 26 29  1  0  0  0
M  END
> <minimizedAffinity>
0.84025

> <CNNscore>
0.2879408896

> <CNNaffinity>
6.2992143631

> <CNN_VS>
1.8138014078

> <CNNaffinity_variance>
0.1960840523

$$$$
[H]c1c([H])c(N2C([H])([H])C([H])([H])N(c3nc4c([H])c(C(=O)N([H])[H])c([H])c([H])c4n3[H])C([H])([H])[C@]2([H])C([H])([H])[H])c([H])c([H])c1F


 29 32  0  0  0  0  0  0  0  0999 V2000
   38.4711   14.2412  -13.5753 C   0  0  0  0  0  0  0  0  0  0  0  0
   39.4827   14.2106  -14.4534 N   0  0  0  0  0  0  0  0  0  0  0  0
   39.2035   13.2931  -15.3917 C   0  0  0  0  0  0  0  0  0  0  0  0
   39.8438   12.8309  -16.5121 C   0  0  0  0  0  0  0  0  0  0  0  0
   39.3241   11.8490  -17.3333 C   0  0  0  0  0  0  0  0  0  0  0  0
   38.0989   11.3313  -16.9774 C   0  0  0  0  0  0  0  0  0  0  0  0
   37.4124   11.7593  -15.8620 C   0  0  0  0  0  0  0  0  0  0  0  0
   37.9747   12.7466  -15.0695 C   0  0  0  0  0  0  0  0  0  0  0  0
   37.5422   13.3335  -13.9626 N   0  0  0  0  0  0  0  0  0  0  0  0
   36.6556   13.1659  -13.4400 H   0  0  0  0  0  0  0  0  0  0  0  0
   40.6091   16.4755   -9.7336 C   0  0  0  0  0  0  0  0  0  0  0  0
   39.4848   16.5774  -10.7755 C   0  0  0  0  0  0  0  0  0  0  0  0
   39.6042   15.4305  -11.7419 C   0  0  0  0  0  0  0  0  0  0  0  0
   38.4089   15.0932  -12.4347 N   0  0  0  0  0  0  0  0  0  0  0  0
   37.1306   15.5846  -12.0240 C   0  0  0  0  0  0  0  0  0  0  0  0
   37.1468   15.7482  -10.5116 C   0  0  0  0  0  0  0  0  0  0  0  0
   38.1999   16.6511  -10.1388 N   0  0  0  0  0  0  0  0  0  0  0  0
   37.9633   17.6260   -9.1518 C   0  0  0  0  0  0  0  0  0  0  0  0
   37.9514   18.9601   -9.4896 C   0  0  0  0  0  0  0  0  0  0  0  0
   37.7376   19.9135   -8.5291 C   0  0  0  0  0  0  0  0  0  0  0  0
   37.5359   19.5227   -7.2309 C   0  0  0  0  0  0  0  0  0  0  0  0
   37.3223   20.4459   -6.2648 F   0  0  0  0  0  0  0  0  0  0  0  0
   37.5480   18.1694   -6.8889 C   0  0  0  0  0  0  0  0  0  0  0  0
   37.7620   17.2141   -7.8484 C   0  0  0  0  0  0  0  0  0  0  0  0
   40.0552   11.4028  -18.5096 C   0  0  0  0  0  0  0  0  0  0  0  0
   39.3345   10.8548  -19.6050 N   0  0  0  0  0  0  0  0  0  0  0  0
   41.3002   11.4895  -18.5809 O   0  0  0  0  0  0  0  0  0  0  0  0
   39.1654    9.8216  -19.5825 H   0  0  0  0  0  0  0  0  0  0  0  0
   38.9863   11.4136  -20.3888 H   0  0  0  0  0  0  0  0  0  0  0  0
 11 12  1  0  0  0
 12 13  1  0  0  0
 13 14  1  0  0  0
 14 15  1  0  0  0
 15 16  1  0  0  0
 16 17  1  0  0  0
 17 18  1  0  0  0
 18 19  2  0  0  0
 19 20  1  0  0  0
 20 21  2  0  0  0
 21 22  1  0  0  0
 21 23  1  0  0  0
 23 24  2  0  0  0
 14  1  1  0  0  0
  1  2  2  0  0  0
  2  3  1  0  0  0
  3  4  2  0  0  0
  4  5  1  0  0  0
  5  6  2  0  0  0
  6  7  1  0  0  0
  7  8  2  0  0  0
  8  9  1  0  0  0
  5 25  1  0  0  0
 25 26  1  0  0  0
 25 27  2  0  0  0
 17 12  1  0  0  0
 24 18  1  0  0  0
  9  1  1  0  0  0
  8  3  1  0  0  0
  9 10  1  0  0  0
 26 28  1  0  0  0
 26 29  1  0  0  0
M  END
> <minimizedAffinity>
-8.30261

> <CNNscore>
0.2703163624

> <CNNaffinity>
5.8941011429

> <CNN_VS>
1.5932719707

> <CNNaffinity_variance>
0.2020336688

$$$$
[H]c1c([H])c(N2C([H])([H])C([H])([H])N(c3nc4c([H])c(C(=O)N([H])[H])c([H])c([H])c4n3[H])C([H])([H])[C@]2([H])C([H])([H])[H])c([H])c([H])c1F


 29 32  0  0  0  0  0  0  0  0999 V2000
   37.7667   13.9103  -13.1884 C   0  0  0  0  0  0  0  0  0  0  0  0
   38.9592   14.0238  -13.7887 N   0  0  0  0  0  0  0  0  0  0  0  0
   38.9678   13.2299  -14.8703 C   0  0  0  0  0  0  0  0  0  0  0  0
   39.8842   12.9370  -15.8467 C   0  0  0  0  0  0  0  0  0  0  0  0
   39.6355   12.0572  -16.8824 C   0  0  0  0  0  0  0  0  0  0  0  0
   38.3936   11.4630  -16.9029 C   0  0  0  0  0  0  0  0  0  0  0  0
   37.4357   11.7214  -15.9468 C   0  0  0  0  0  0  0  0  0  0  0  0
   37.7323   12.6115  -14.9275 C   0  0  0  0  0  0  0  0  0  0  0  0
   37.0131   13.0356  -13.8981 N   0  0  0  0  0  0  0  0  0  0  0  0
   36.0387   12.7760  -13.6330 H   0  0  0  0  0  0  0  0  0  0  0  0
   34.3153   15.8527  -10.2495 C   0  0  0  0  0  0  0  0  0  0  0  0
   35.7053   15.1999  -10.2880 C   0  0  0  0  0  0  0  0  0  0  0  0
   36.0031   14.7592  -11.6953 C   0  0  0  0  0  0  0  0  0  0  0  0
   37.3826   14.6031  -12.0037 N   0  0  0  0  0  0  0  0  0  0  0  0
   38.4117   15.1218  -11.1575 C   0  0  0  0  0  0  0  0  0  0  0  0
   37.8897   16.3872  -10.4937 C   0  0  0  0  0  0  0  0  0  0  0  0
   36.7016   16.0811   -9.7468 N   0  0  0  0  0  0  0  0  0  0  0  0
   36.5217   16.6382   -8.4671 C   0  0  0  0  0  0  0  0  0  0  0  0
   36.4302   18.0030   -8.3161 C   0  0  0  0  0  0  0  0  0  0  0  0
   36.2713   18.5507   -7.0702 C   0  0  0  0  0  0  0  0  0  0  0  0
   36.2044   17.7240   -5.9790 C   0  0  0  0  0  0  0  0  0  0  0  0
   36.0473   18.2414   -4.7385 F   0  0  0  0  0  0  0  0  0  0  0  0
   36.2971   16.3396   -6.1328 C   0  0  0  0  0  0  0  0  0  0  0  0
   36.4564   15.7900   -7.3784 C   0  0  0  0  0  0  0  0  0  0  0  0
   40.6523   11.7901  -17.8885 C   0  0  0  0  0  0  0  0  0  0  0  0
   42.0097   12.0944  -17.5976 N   0  0  0  0  0  0  0  0  0  0  0  0
   40.3621   11.2999  -19.0012 O   0  0  0  0  0  0  0  0  0  0  0  0
   42.3329   13.0613  -17.8367 H   0  0  0  0  0  0  0  0  0  0  0  0
   42.6611   11.4260  -17.1772 H   0  0  0  0  0  0  0  0  0  0  0  0
 11 12  1  0  0  0
 12 13  1  0  0  0
 13 14  1  0  0  0
 14 15  1  0  0  0
 15 16  1  0  0  0
 16 17  1  0  0  0
 17 18  1  0  0  0
 18 19  2  0  0  0
 19 20  1  0  0  0
 20 21  2  0  0  0
 21 22  1  0  0  0
 21 23  1  0  0  0
 23 24  2  0  0  0
 14  1  1  0  0  0
  1  2  2  0  0  0
  2  3  1  0  0  0
  3  4  2  0  0  0
  4  5  1  0  0  0
  5  6  2  0  0  0
  6  7  1  0  0  0
  7  8  2  0  0  0
  8  9  1  0  0  0
  5 25  1  0  0  0
 25 26  1  0  0  0
 25 27  2  0  0  0
 17 12  1  0  0  0
 24 18  1  0  0  0
  9  1  1  0  0  0
  8  3  1  0  0  0
  9 10  1  0  0  0
 26 28  1  0  0  0
 26 29  1  0  0  0
M  END
> <minimizedAffinity>
-7.94437

> <CNNscore>
0.2648265362

> <CNNaffinity>
5.8447027206

> <CNN_VS>
1.5478323698

> <CNNaffinity_variance>
0.3445474505

$$$$
[H]c1c([H])c(N2C([H])([H])C([H])([H])N(c3nc4c([H])c(C(=O)N([H])[H])c([H])c([H])c4n3[H])C([H])([H])[C@]2([H])C([H])([H])[H])c([H])c([H])c1F


 29 32  0  0  0  0  0  0  0  0999 V2000
   36.9854   13.5633  -13.8435 C   0  0  0  0  0  0  0  0  0  0  0  0
   38.2057   13.6472  -14.3905 N   0  0  0  0  0  0  0  0  0  0  0  0
   38.2462   12.8441  -15.4646 C   0  0  0  0  0  0  0  0  0  0  0  0
   39.1990   12.5241  -16.3966 C   0  0  0  0  0  0  0  0  0  0  0  0
   38.9786   11.6408  -17.4357 C   0  0  0  0  0  0  0  0  0  0  0  0
   37.7268   11.0720  -17.5074 C   0  0  0  0  0  0  0  0  0  0  0  0
   36.7327   11.3581  -16.5973 C   0  0  0  0  0  0  0  0  0  0  0  0
   37.0018   12.2506  -15.5725 C   0  0  0  0  0  0  0  0  0  0  0  0
   36.2463   12.6981  -14.5797 N   0  0  0  0  0  0  0  0  0  0  0  0
   35.2557   12.4608  -14.3567 H   0  0  0  0  0  0  0  0  0  0  0  0
   36.9555   17.6181  -11.0365 C   0  0  0  0  0  0  0  0  0  0  0  0
   36.1460   16.3847  -11.4646 C   0  0  0  0  0  0  0  0  0  0  0  0
   36.9025   15.6472  -12.5356 C   0  0  0  0  0  0  0  0  0  0  0  0
   36.5632   14.2739  -12.6827 N   0  0  0  0  0  0  0  0  0  0  0  0
   35.8035   13.5712  -11.6961 C   0  0  0  0  0  0  0  0  0  0  0  0
   36.1316   14.1615  -10.3329 C   0  0  0  0  0  0  0  0  0  0  0  0
   35.8225   15.5642  -10.3314 N   0  0  0  0  0  0  0  0  0  0  0  0
   35.1826   16.1342   -9.2151 C   0  0  0  0  0  0  0  0  0  0  0  0
   33.8171   16.0335   -9.0774 C   0  0  0  0  0  0  0  0  0  0  0  0
   33.1881   16.6010   -8.0005 C   0  0  0  0  0  0  0  0  0  0  0  0
   33.9343   17.2683   -7.0643 C   0  0  0  0  0  0  0  0  0  0  0  0
   33.3358   17.8365   -5.9919 F   0  0  0  0  0  0  0  0  0  0  0  0
   35.3195   17.3699   -7.2044 C   0  0  0  0  0  0  0  0  0  0  0  0
   35.9505   16.8031   -8.2813 C   0  0  0  0  0  0  0  0  0  0  0  0
   40.0336   11.3443  -18.3929 C   0  0  0  0  0  0  0  0  0  0  0  0
   39.6884   10.7730  -19.6476 N   0  0  0  0  0  0  0  0  0  0  0  0
   41.2350   11.5793  -18.1398 O   0  0  0  0  0  0  0  0  0  0  0  0
   39.6508    9.7274  -19.6900 H   0  0  0  0  0  0  0  0  0  0  0  0
   39.4821   11.3271  -20.4833 H   0  0  0  0  0  0  0  0  0  0  0  0
 11 12  1  0  0  0
 12 13  1  0  0  0
 13 14  1  0  0  0
 14 15  1  0  0  0
 15 16  1  0  0  0
 16 17  1  0  0  0
 17 18  1  0  0  0
 18 19  2  0  0  0
 19 20  1  0  0  0
 20 21  2  0  0  0
 21 22  1  0  0  0
 21 23  1  0  0  0
 23 24  2  0  0  0
 14  1  1  0  0  0
  1  2  2  0  0  0
  2  3  1  0  0  0
  3  4  2  0  0  0
  4  5  1  0  0  0
  5  6  2  0  0  0
  6  7  1  0  0  0
  7  8  2  0  0  0
  8  9  1  0  0  0
  5 25  1  0  0  0
 25 26  1  0  0  0
 25 27  2  0  0  0
 17 12  1  0  0  0
 24 18  1  0  0  0
  9  1  1  0  0  0
  8  3  1  0  0  0
  9 10  1  0  0  0
 26 28  1  0  0  0
 26 29  1  0  0  0
M  END
> <minimizedAffinity>
-7.10515

> <CNNscore>
0.2642087042

> <CNNaffinity>
5.9581155777

> <CNN_VS>
1.5741859674

> <CNNaffinity_variance>
0.6244378686

$$$$
[H]c1c([H])c(N2C([H])([H])C([H])([H])N(c3nc4c([H])c(C(=O)N([H])[H])c([H])c([H])c4n3[H])C([H])([H])[C@]2([H])C([H])([H])[H])c([H])c([H])c1F


 29 32  0  0  0  0  0  0  0  0999 V2000
   38.0464   14.6037  -13.0786 C   0  0  0  0  0  0  0  0  0  0  0  0
   39.1408   14.5600  -13.8505 N   0  0  0  0  0  0  0  0  0  0  0  0
   38.9628   13.6159  -14.7872 C   0  0  0  0  0  0  0  0  0  0  0  0
   39.7147   13.1309  -15.8255 C   0  0  0  0  0  0  0  0  0  0  0  0
   39.2862   12.1232  -16.6678 C   0  0  0  0  0  0  0  0  0  0  0  0
   38.0351   11.6034  -16.4219 C   0  0  0  0  0  0  0  0  0  0  0  0
   37.2379   12.0537  -15.3923 C   0  0  0  0  0  0  0  0  0  0  0  0
   37.7117   13.0663  -14.5743 C   0  0  0  0  0  0  0  0  0  0  0  0
   37.1670   13.6776  -13.5320 N   0  0  0  0  0  0  0  0  0  0  0  0
   36.2339   13.5153  -13.0960 H   0  0  0  0  0  0  0  0  0  0  0  0
   39.5166   16.4641   -8.7543 C   0  0  0  0  0  0  0  0  0  0  0  0
   38.7512   16.7642  -10.0520 C   0  0  0  0  0  0  0  0  0  0  0  0
   38.8798   15.5886  -10.9820 C   0  0  0  0  0  0  0  0  0  0  0  0
   37.8650   15.4844  -11.9729 N   0  0  0  0  0  0  0  0  0  0  0  0
   36.6542   16.2411  -11.9001 C   0  0  0  0  0  0  0  0  0  0  0  0
   36.3067   16.4435  -10.4329 C   0  0  0  0  0  0  0  0  0  0  0  0
   37.3884   17.1206   -9.7735 N   0  0  0  0  0  0  0  0  0  0  0  0
   37.1083   18.1527   -8.8588 C   0  0  0  0  0  0  0  0  0  0  0  0
   37.7430   19.3683   -8.9756 C   0  0  0  0  0  0  0  0  0  0  0  0
   37.4855   20.3706   -8.0776 C   0  0  0  0  0  0  0  0  0  0  0  0
   36.5898   20.1480   -7.0642 C   0  0  0  0  0  0  0  0  0  0  0  0
   36.3188   21.1227   -6.1656 F   0  0  0  0  0  0  0  0  0  0  0  0
   35.9462   18.9148   -6.9464 C   0  0  0  0  0  0  0  0  0  0  0  0
   36.2028   17.9108   -7.8436 C   0  0  0  0  0  0  0  0  0  0  0  0
   40.1339   11.6536  -17.7532 C   0  0  0  0  0  0  0  0  0  0  0  0
   41.5107   12.0061  -17.7574 N   0  0  0  0  0  0  0  0  0  0  0  0
   39.6821   10.9485  -18.6813 O   0  0  0  0  0  0  0  0  0  0  0  0
   41.7615   12.9031  -18.2361 H   0  0  0  0  0  0  0  0  0  0  0  0
   42.2416   11.4350  -17.3245 H   0  0  0  0  0  0  0  0  0  0  0  0
 11 12  1  0  0  0
 12 13  1  0  0  0
 13 14  1  0  0  0
 14 15  1  0  0  0
 15 16  1  0  0  0
 16 17  1  0  0  0
 17 18  1  0  0  0
 18 19  2  0  0  0
 19 20  1  0  0  0
 20 21  2  0  0  0
 21 22  1  0  0  0
 21 23  1  0  0  0
 23 24  2  0  0  0
 14  1  1  0  0  0
  1  2  2  0  0  0
  2  3  1  0  0  0
  3  4  2  0  0  0
  4  5  1  0  0  0
  5  6  2  0  0  0
  6  7  1  0  0  0
  7  8  2  0  0  0
  8  9  1  0  0  0
  5 25  1  0  0  0
 25 26  1  0  0  0
 25 27  2  0  0  0
 17 12  1  0  0  0
 24 18  1  0  0  0
  9  1  1  0  0  0
  8  3  1  0  0  0
  9 10  1  0  0  0
 26 28  1  0  0  0
 26 29  1  0  0  0
M  END
> <minimizedAffinity>
-8.23354

> <CNNscore>
0.2164375186

> <CNNaffinity>
5.7934861183

> <CNN_VS>
1.2539277077

> <CNNaffinity_variance>
0.2107744217

$$$$
[H]c1c([H])c(N2C([H])([H])C([H])([H])N(c3nc4c([H])c(C(=O)N([H])[H])c([H])c([H])c4n3[H])C([H])([H])[C@]2([H])C([H])([H])[H])c([H])c([H])c1F


 29 32  0  0  0  0  0  0  0  0999 V2000
   42.2148   13.1214  -15.2036 C   0  0  0  0  0  0  0  0  0  0  0  0
   43.2624   12.6152  -15.8680 N   0  0  0  0  0  0  0  0  0  0  0  0
   44.3860   13.1306  -15.3463 C   0  0  0  0  0  0  0  0  0  0  0  0
   45.7247   12.9900  -15.6051 C   0  0  0  0  0  0  0  0  0  0  0  0
   46.7087   13.6548  -14.8992 C   0  0  0  0  0  0  0  0  0  0  0  0
   46.2864   14.4929  -13.8917 C   0  0  0  0  0  0  0  0  0  0  0  0
   44.9539   14.6712  -13.5897 C   0  0  0  0  0  0  0  0  0  0  0  0
   44.0040   13.9823  -14.3260 C   0  0  0  0  0  0  0  0  0  0  0  0
   42.6808   13.9658  -14.2515 N   0  0  0  0  0  0  0  0  0  0  0  0
   42.0584   14.4886  -13.5984 H   0  0  0  0  0  0  0  0  0  0  0  0
   38.7072   11.2919  -18.1485 C   0  0  0  0  0  0  0  0  0  0  0  0
   39.1201   11.5257  -16.6874 C   0  0  0  0  0  0  0  0  0  0  0  0
   40.5145   12.0898  -16.6544 C   0  0  0  0  0  0  0  0  0  0  0  0
   40.8511   12.8085  -15.4743 N   0  0  0  0  0  0  0  0  0  0  0  0
   39.8587   13.2334  -14.5368 C   0  0  0  0  0  0  0  0  0  0  0  0
   38.5765   13.5272  -15.3010 C   0  0  0  0  0  0  0  0  0  0  0  0
   38.1593   12.3484  -16.0077 N   0  0  0  0  0  0  0  0  0  0  0  0
   36.7986   11.9896  -16.0195 C   0  0  0  0  0  0  0  0  0  0  0  0
   35.9187   12.5943  -15.1511 C   0  0  0  0  0  0  0  0  0  0  0  0
   34.5961   12.2364  -15.1480 C   0  0  0  0  0  0  0  0  0  0  0  0
   34.1615   11.2712  -16.0187 C   0  0  0  0  0  0  0  0  0  0  0  0
   32.8599   10.9013  -16.0345 F   0  0  0  0  0  0  0  0  0  0  0  0
   35.0544   10.6583  -16.8994 C   0  0  0  0  0  0  0  0  0  0  0  0
   36.3780   11.0147  -16.9037 C   0  0  0  0  0  0  0  0  0  0  0  0
   48.1137   13.4607  -15.2241 C   0  0  0  0  0  0  0  0  0  0  0  0
   48.9781   14.5883  -15.2570 N   0  0  0  0  0  0  0  0  0  0  0  0
   48.5793   12.3279  -15.4747 O   0  0  0  0  0  0  0  0  0  0  0  0
   49.0568   15.0896  -16.1730 H   0  0  0  0  0  0  0  0  0  0  0  0
   49.5086   14.9175  -14.4458 H   0  0  0  0  0  0  0  0  0  0  0  0
 11 12  1  0  0  0
 12 13  1  0  0  0
 13 14  1  0  0  0
 14 15  1  0  0  0
 15 16  1  0  0  0
 16 17  1  0  0  0
 17 18  1  0  0  0
 18 19  2  0  0  0
 19 20  1  0  0  0
 20 21  2  0  0  0
 21 22  1  0  0  0
 21 23  1  0  0  0
 23 24  2  0  0  0
 14  1  1  0  0  0
  1  2  2  0  0  0
  2  3  1  0  0  0
  3  4  2  0  0  0
  4  5  1  0  0  0
  5  6  2  0  0  0
  6  7  1  0  0  0
  7  8  2  0  0  0
  8  9  1  0  0  0
  5 25  1  0  0  0
 25 26  1  0  0  0
 25 27  2  0  0  0
 17 12  1  0  0  0
 24 18  1  0  0  0
  9  1  1  0  0  0
  8  3  1  0  0  0
  9 10  1  0  0  0
 26 28  1  0  0  0
 26 29  1  0  0  0
M  END
> <minimizedAffinity>
-7.98752

> <CNNscore>
0.2117811441

> <CNNaffinity>
6.2916707993

> <CNN_VS>
1.3324571848

> <CNNaffinity_variance>
0.1112678796

$$$$
[H]c1c([H])c(N2C([H])([H])C([H])([H])N(c3nc4c([H])c(F)c([H])c([H])c4n3[H])C([H])([H])[C@]2([H])C([H])([H])[H])c([H])c([H])c1C#N


 26 29  0  0  0  0  0  0  0  0999 V2000
   44.1811   11.9446  -16.3713 C   0  0  0  0  0  0  0  0  0  0  0  0
   43.3541   13.2025  -16.1018 C   0  0  0  0  0  0  0  0  0  0  0  0
   41.9836   13.0689  -16.6935 C   0  0  0  0  0  0  0  0  0  0  0  0
   40.8989   13.3102  -15.8048 N   0  0  0  0  0  0  0  0  0  0  0  0
   41.1360   14.1660  -14.6629 C   0  0  0  0  0  0  0  0  0  0  0  0
   42.2262   13.4521  -13.8485 C   0  0  0  0  0  0  0  0  0  0  0  0
   43.4072   13.4316  -14.6955 N   0  0  0  0  0  0  0  0  0  0  0  0
   39.6118   12.7496  -15.9956 C   0  0  0  0  0  0  0  0  0  0  0  0
   38.5118   12.9545  -15.2345 N   0  0  0  0  0  0  0  0  0  0  0  0
   37.4780   12.2535  -15.7277 C   0  0  0  0  0  0  0  0  0  0  0  0
   36.1436   12.1121  -15.3322 C   0  0  0  0  0  0  0  0  0  0  0  0
   35.3318   11.2953  -16.0803 C   0  0  0  0  0  0  0  0  0  0  0  0
   34.0283   11.1402  -15.7170 F   0  0  0  0  0  0  0  0  0  0  0  0
   35.7746   10.6163  -17.1936 C   0  0  0  0  0  0  0  0  0  0  0  0
   37.0847   10.7538  -17.5837 C   0  0  0  0  0  0  0  0  0  0  0  0
   37.9188   11.5737  -16.8413 C   0  0  0  0  0  0  0  0  0  0  0  0
   39.2315   11.9075  -16.9673 N   0  0  0  0  0  0  0  0  0  0  0  0
   39.8207   11.5141  -17.7585 H   0  0  0  0  0  0  0  0  0  0  0  0
   44.6557   13.6621  -14.0633 C   0  0  0  0  0  0  0  0  0  0  0  0
   44.9713   12.9512  -12.9362 C   0  0  0  0  0  0  0  0  0  0  0  0
   46.1871   13.1619  -12.2847 C   0  0  0  0  0  0  0  0  0  0  0  0
   47.0962   14.0810  -12.7508 C   0  0  0  0  0  0  0  0  0  0  0  0
   46.7516   14.7779  -13.8822 C   0  0  0  0  0  0  0  0  0  0  0  0
   45.5556   14.5856  -14.5414 C   0  0  0  0  0  0  0  0  0  0  0  0
   48.3553   14.2993  -12.0771 C   0  0  0  0  0  0  0  0  0  0  0  0
   49.3664   14.4672  -11.5469 N   0  0  0  0  0  0  0  0  0  0  0  0
  1  2  1  0  0  0
  2  3  1  0  0  0
  3  4  1  0  0  0
  4  5  1  0  0  0
  5  6  1  0  0  0
  6  7  1  0  0  0
  7 19  1  0  0  0
 19 20  2  0  0  0
 20 21  1  0  0  0
 21 22  2  0  0  0
 22 23  1  0  0  0
 23 24  2  0  0  0
 22 25  1  0  0  0
 25 26  3  0  0  0
  4  8  1  0  0  0
  8  9  2  0  0  0
  9 10  1  0  0  0
 10 11  2  0  0  0
 11 12  1  0  0  0
 12 13  1  0  0  0
 12 14  2  0  0  0
 14 15  1  0  0  0
 15 16  2  0  0  0
 16 17  1  0  0  0
  7  2  1  0  0  0
 24 19  1  0  0  0
 17  8  1  0  0  0
 16 10  1  0  0  0
 17 18  1  0  0  0
M  END
> <minimizedAffinity>
-6.92488

> <CNNscore>
0.2889041901

> <CNNaffinity>
6.2371416092

> <CNN_VS>
1.8019363880

> <CNNaffinity_variance>
0.1084904075

$$$$
[H]c1c([H])c(N2C([H])([H])C([H])([H])N(c3nc4c([H])c(F)c([H])c([H])c4n3[H])C([H])([H])[C@]2([H])C([H])([H])[H])c([H])c([H])c1C#N


 26 29  0  0  0  0  0  0  0  0999 V2000
   42.5938   16.8749  -12.6864 C   0  0  0  0  0  0  0  0  0  0  0  0
   43.2248   15.4826  -12.7319 C   0  0  0  0  0  0  0  0  0  0  0  0
   42.2399   14.4740  -13.2403 C   0  0  0  0  0  0  0  0  0  0  0  0
   42.6794   13.6746  -14.3323 N   0  0  0  0  0  0  0  0  0  0  0  0
   44.1026   13.4714  -14.4936 C   0  0  0  0  0  0  0  0  0  0  0  0
   44.6844   14.8771  -14.7105 C   0  0  0  0  0  0  0  0  0  0  0  0
   44.4330   15.6068  -13.4789 N   0  0  0  0  0  0  0  0  0  0  0  0
   41.7851   13.0782  -15.2552 C   0  0  0  0  0  0  0  0  0  0  0  0
   40.4752   12.8008  -15.0589 N   0  0  0  0  0  0  0  0  0  0  0  0
   39.9573   12.2371  -16.1623 C   0  0  0  0  0  0  0  0  0  0  0  0
   38.6796   11.7685  -16.4865 C   0  0  0  0  0  0  0  0  0  0  0  0
   38.4857   11.2359  -17.7373 C   0  0  0  0  0  0  0  0  0  0  0  0
   37.2513   10.7725  -18.0785 F   0  0  0  0  0  0  0  0  0  0  0  0
   39.4891   11.1454  -18.6762 C   0  0  0  0  0  0  0  0  0  0  0  0
   40.7446   11.6051  -18.3598 C   0  0  0  0  0  0  0  0  0  0  0  0
   40.9593   12.1458  -17.1026 C   0  0  0  0  0  0  0  0  0  0  0  0
   42.0608   12.6729  -16.5033 N   0  0  0  0  0  0  0  0  0  0  0  0
   42.9888   12.7252  -17.0171 H   0  0  0  0  0  0  0  0  0  0  0  0
   45.4617   16.4692  -13.0212 C   0  0  0  0  0  0  0  0  0  0  0  0
   45.8917   16.3616  -11.7254 C   0  0  0  0  0  0  0  0  0  0  0  0
   46.8948   17.2021  -11.2413 C   0  0  0  0  0  0  0  0  0  0  0  0
   47.4761   18.1545  -12.0433 C   0  0  0  0  0  0  0  0  0  0  0  0
   47.0242   18.2383  -13.3369 C   0  0  0  0  0  0  0  0  0  0  0  0
   46.0341   17.4179  -13.8357 C   0  0  0  0  0  0  0  0  0  0  0  0
   48.5150   19.0247  -11.5429 C   0  0  0  0  0  0  0  0  0  0  0  0
   49.3368   19.7276  -11.1401 N   0  0  0  0  0  0  0  0  0  0  0  0
  1  2  1  0  0  0
  2  3  1  0  0  0
  3  4  1  0  0  0
  4  5  1  0  0  0
  5  6  1  0  0  0
  6  7  1  0  0  0
  7 19  1  0  0  0
 19 20  2  0  0  0
 20 21  1  0  0  0
 21 22  2  0  0  0
 22 23  1  0  0  0
 23 24  2  0  0  0
 22 25  1  0  0  0
 25 26  3  0  0  0
  4  8  1  0  0  0
  8  9  2  0  0  0
  9 10  1  0  0  0
 10 11  2  0  0  0
 11 12  1  0  0  0
 12 13  1  0  0  0
 12 14  2  0  0  0
 14 15  1  0  0  0
 15 16  2  0  0  0
 16 17  1  0  0  0
  7  2  1  0  0  0
 24 19  1  0  0  0
 17  8  1  0  0  0
 16 10  1  0  0  0
 17 18  1  0  0  0
M  END
> <minimizedAffinity>
-6.64557

> <CNNscore>
0.2792088091

> <CNNaffinity>
5.3805799484

> <CNN_VS>
1.5023052692

> <CNNaffinity_variance>
0.0625139922

$$$$
[H]c1c([H])c(N2C([H])([H])C([H])([H])N(c3nc4c([H])c(F)c([H])c([H])c4n3[H])C([H])([H])[C@]2([H])C([H])([H])[H])c([H])c([H])c1C#N


 26 29  0  0  0  0  0  0  0  0999 V2000
   35.0260   12.0902  -13.8687 C   0  0  0  0  0  0  0  0  0  0  0  0
   35.5395   13.5221  -13.7106 C   0  0  0  0  0  0  0  0  0  0  0  0
   34.8939   14.1864  -12.5326 C   0  0  0  0  0  0  0  0  0  0  0  0
   35.7822   14.7690  -11.5860 N   0  0  0  0  0  0  0  0  0  0  0  0
   37.0897   15.1810  -12.0481 C   0  0  0  0  0  0  0  0  0  0  0  0
   37.7597   13.8926  -12.5507 C   0  0  0  0  0  0  0  0  0  0  0  0
   36.9629   13.4436  -13.6803 N   0  0  0  0  0  0  0  0  0  0  0  0
   35.4368   14.9577  -10.2250 C   0  0  0  0  0  0  0  0  0  0  0  0
   36.0613   14.4339   -9.1447 N   0  0  0  0  0  0  0  0  0  0  0  0
   35.4464   14.8376   -8.0212 C   0  0  0  0  0  0  0  0  0  0  0  0
   35.6794   14.5935   -6.6636 C   0  0  0  0  0  0  0  0  0  0  0  0
   34.8381   15.1782   -5.7491 C   0  0  0  0  0  0  0  0  0  0  0  0
   35.0428   14.9569   -4.4209 F   0  0  0  0  0  0  0  0  0  0  0  0
   33.7844   15.9873   -6.1117 C   0  0  0  0  0  0  0  0  0  0  0  0
   33.5538   16.2283   -7.4445 C   0  0  0  0  0  0  0  0  0  0  0  0
   34.3921   15.6470   -8.3818 C   0  0  0  0  0  0  0  0  0  0  0  0
   34.4248   15.6921   -9.7409 N   0  0  0  0  0  0  0  0  0  0  0  0
   33.7088   16.2569  -10.2851 H   0  0  0  0  0  0  0  0  0  0  0  0
   37.6657   12.9147  -14.7929 C   0  0  0  0  0  0  0  0  0  0  0  0
   39.0088   13.1568  -14.9069 C   0  0  0  0  0  0  0  0  0  0  0  0
   39.7270   12.6595  -15.9950 C   0  0  0  0  0  0  0  0  0  0  0  0
   39.1134   11.9182  -16.9759 C   0  0  0  0  0  0  0  0  0  0  0  0
   37.7668   11.6922  -16.8340 C   0  0  0  0  0  0  0  0  0  0  0  0
   37.0379   12.1744  -15.7671 C   0  0  0  0  0  0  0  0  0  0  0  0
   39.8564   11.4025  -18.1024 C   0  0  0  0  0  0  0  0  0  0  0  0
   40.4598   10.9922  -18.9964 N   0  0  0  0  0  0  0  0  0  0  0  0
  1  2  1  0  0  0
  2  3  1  0  0  0
  3  4  1  0  0  0
  4  5  1  0  0  0
  5  6  1  0  0  0
  6  7  1  0  0  0
  7 19  1  0  0  0
 19 20  2  0  0  0
 20 21  1  0  0  0
 21 22  2  0  0  0
 22 23  1  0  0  0
 23 24  2  0  0  0
 22 25  1  0  0  0
 25 26  3  0  0  0
  4  8  1  0  0  0
  8  9  2  0  0  0
  9 10  1  0  0  0
 10 11  2  0  0  0
 11 12  1  0  0  0
 12 13  1  0  0  0
 12 14  2  0  0  0
 14 15  1  0  0  0
 15 16  2  0  0  0
 16 17  1  0  0  0
  7  2  1  0  0  0
 24 19  1  0  0  0
 17  8  1  0  0  0
 16 10  1  0  0  0
 17 18  1  0  0  0
M  END
> <minimizedAffinity>
-7.96741

> <CNNscore>
0.2760830820

> <CNNaffinity>
5.9037809372

> <CNN_VS>
1.6299340725

> <CNNaffinity_variance>
0.5545357466

$$$$
[H]c1c([H])c(N2C([H])([H])C([H])([H])N(c3nc4c([H])c(F)c([H])c([H])c4n3[H])C([H])([H])[C@]2([H])C([H])([H])[H])c([H])c([H])c1C#N


 26 29  0  0  0  0  0  0  0  0999 V2000
   34.5063   12.3381  -13.6149 C   0  0  0  0  0  0  0  0  0  0  0  0
   34.8667   13.8235  -13.6669 C   0  0  0  0  0  0  0  0  0  0  0  0
   34.0989   14.5886  -12.6319 C   0  0  0  0  0  0  0  0  0  0  0  0
   34.8755   15.4002  -11.7586 N   0  0  0  0  0  0  0  0  0  0  0  0
   36.1576   15.8725  -12.2337 C   0  0  0  0  0  0  0  0  0  0  0  0
   36.9769   14.6005  -12.5028 C   0  0  0  0  0  0  0  0  0  0  0  0
   36.2874   13.9018  -13.5746 N   0  0  0  0  0  0  0  0  0  0  0  0
   34.4439   15.7577  -10.4574 C   0  0  0  0  0  0  0  0  0  0  0  0
   35.1808   16.3452   -9.4861 N   0  0  0  0  0  0  0  0  0  0  0  0
   34.4277   16.5293   -8.3896 C   0  0  0  0  0  0  0  0  0  0  0  0
   34.6904   17.0814   -7.1313 C   0  0  0  0  0  0  0  0  0  0  0  0
   33.6676   17.1165   -6.2156 C   0  0  0  0  0  0  0  0  0  0  0  0
   33.8967   17.6488   -4.9831 F   0  0  0  0  0  0  0  0  0  0  0  0
   32.4058   16.6344   -6.4839 C   0  0  0  0  0  0  0  0  0  0  0  0
   32.1457   16.0918   -7.7191 C   0  0  0  0  0  0  0  0  0  0  0  0
   33.1653   16.0478   -8.6559 C   0  0  0  0  0  0  0  0  0  0  0  0
   33.2216   15.5850   -9.9338 N   0  0  0  0  0  0  0  0  0  0  0  0
   32.3682   15.1534  -10.3956 H   0  0  0  0  0  0  0  0  0  0  0  0
   37.0952   13.2859  -14.5644 C   0  0  0  0  0  0  0  0  0  0  0  0
   38.4547   13.4383  -14.5022 C   0  0  0  0  0  0  0  0  0  0  0  0
   39.2766   12.8539  -15.4666 C   0  0  0  0  0  0  0  0  0  0  0  0
   38.7508   12.1144  -16.4985 C   0  0  0  0  0  0  0  0  0  0  0  0
   37.3851   11.9795  -16.5341 C   0  0  0  0  0  0  0  0  0  0  0  0
   36.5545   12.5486  -15.5917 C   0  0  0  0  0  0  0  0  0  0  0  0
   39.6011   11.5086  -17.4970 C   0  0  0  0  0  0  0  0  0  0  0  0
   40.2814   11.0351  -18.2999 N   0  0  0  0  0  0  0  0  0  0  0  0
  1  2  1  0  0  0
  2  3  1  0  0  0
  3  4  1  0  0  0
  4  5  1  0  0  0
  5  6  1  0  0  0
  6  7  1  0  0  0
  7 19  1  0  0  0
 19 20  2  0  0  0
 20 21  1  0  0  0
 21 22  2  0  0  0
 22 23  1  0  0  0
 23 24  2  0  0  0
 22 25  1  0  0  0
 25 26  3  0  0  0
  4  8  1  0  0  0
  8  9  2  0  0  0
  9 10  1  0  0  0
 10 11  2  0  0  0
 11 12  1  0  0  0
 12 13  1  0  0  0
 12 14  2  0  0  0
 14 15  1  0  0  0
 15 16  2  0  0  0
 16 17  1  0  0  0
  7  2  1  0  0  0
 24 19  1  0  0  0
 17  8  1  0  0  0
 16 10  1  0  0  0
 17 18  1  0  0  0
M  END
> <minimizedAffinity>
-7.93010

> <CNNscore>
0.2454637289

> <CNNaffinity>
5.8994188309

> <CNN_VS>
1.4480932951

> <CNNaffinity_variance>
0.6431995630

$$$$
[H]c1c([H])c(N2C([H])([H])C([H])([H])N(c3nc4c([H])c(F)c([H])c([H])c4n3[H])C([H])([H])[C@]2([H])C([H])([H])[H])c([H])c([H])c1C#N


 26 29  0  0  0  0  0  0  0  0999 V2000
   38.2507   13.0255  -13.4177 C   0  0  0  0  0  0  0  0  0  0  0  0
   38.8574   13.5649  -14.7138 C   0  0  0  0  0  0  0  0  0  0  0  0
   40.2579   14.0446  -14.4804 C   0  0  0  0  0  0  0  0  0  0  0  0
   41.2490   13.5099  -15.3501 N   0  0  0  0  0  0  0  0  0  0  0  0
   40.8282   13.0498  -16.6554 C   0  0  0  0  0  0  0  0  0  0  0  0
   39.8262   11.9186  -16.3760 C   0  0  0  0  0  0  0  0  0  0  0  0
   38.7038   12.5401  -15.6932 N   0  0  0  0  0  0  0  0  0  0  0  0
   42.6154   13.4131  -14.9883 C   0  0  0  0  0  0  0  0  0  0  0  0
   43.6632   13.1815  -15.8129 N   0  0  0  0  0  0  0  0  0  0  0  0
   44.8047   13.1591  -15.1058 C   0  0  0  0  0  0  0  0  0  0  0  0
   46.1441   12.9636  -15.4591 C   0  0  0  0  0  0  0  0  0  0  0  0
   47.0872   13.0047  -14.4617 C   0  0  0  0  0  0  0  0  0  0  0  0
   48.3985   12.8175  -14.7786 F   0  0  0  0  0  0  0  0  0  0  0  0
   46.7701   13.2284  -13.1404 C   0  0  0  0  0  0  0  0  0  0  0  0
   45.4553   13.4207  -12.7914 C   0  0  0  0  0  0  0  0  0  0  0  0
   44.4897   13.3827  -13.7839 C   0  0  0  0  0  0  0  0  0  0  0  0
   43.1379   13.5327  -13.7592 N   0  0  0  0  0  0  0  0  0  0  0  0
   42.6265   13.7186  -12.8472 H   0  0  0  0  0  0  0  0  0  0  0  0
   37.4065   12.0888  -16.0468 C   0  0  0  0  0  0  0  0  0  0  0  0
   37.2763   11.1436  -17.0291 C   0  0  0  0  0  0  0  0  0  0  0  0
   36.0135   10.6864  -17.4075 C   0  0  0  0  0  0  0  0  0  0  0  0
   34.8727   11.1667  -16.8107 C   0  0  0  0  0  0  0  0  0  0  0  0
   35.0352   12.1132  -15.8297 C   0  0  0  0  0  0  0  0  0  0  0  0
   36.2736   12.5791  -15.4406 C   0  0  0  0  0  0  0  0  0  0  0  0
   33.5649   10.6934  -17.2016 C   0  0  0  0  0  0  0  0  0  0  0  0
   32.5249   10.3106  -17.5233 N   0  0  0  0  0  0  0  0  0  0  0  0
  1  2  1  0  0  0
  2  3  1  0  0  0
  3  4  1  0  0  0
  4  5  1  0  0  0
  5  6  1  0  0  0
  6  7  1  0  0  0
  7 19  1  0  0  0
 19 20  2  0  0  0
 20 21  1  0  0  0
 21 22  2  0  0  0
 22 23  1  0  0  0
 23 24  2  0  0  0
 22 25  1  0  0  0
 25 26  3  0  0  0
  4  8  1  0  0  0
  8  9  2  0  0  0
  9 10  1  0  0  0
 10 11  2  0  0  0
 11 12  1  0  0  0
 12 13  1  0  0  0
 12 14  2  0  0  0
 14 15  1  0  0  0
 15 16  2  0  0  0
 16 17  1  0  0  0
  7  2  1  0  0  0
 24 19  1  0  0  0
 17  8  1  0  0  0
 16 10  1  0  0  0
 17 18  1  0  0  0
M  END
> <minimizedAffinity>
-8.00885

> <CNNscore>
0.2326517254

> <CNNaffinity>
6.2381849289

> <CNN_VS>
1.4513244629

> <CNNaffinity_variance>
0.1006516963

$$$$
[H]c1c([H])c(N2C([H])([H])C([H])([H])N(c3nc4c([H])c(F)c([H])c([H])c4n3[H])C([H])([H])[C@]2([H])C([H])([H])[H])c([H])c([H])c1C#N


 26 29  0  0  0  0  0  0  0  0999 V2000
   34.9020   12.3354  -13.9650 C   0  0  0  0  0  0  0  0  0  0  0  0
   35.4497   13.7515  -13.7816 C   0  0  0  0  0  0  0  0  0  0  0  0
   34.7576   14.4411  -12.6452 C   0  0  0  0  0  0  0  0  0  0  0  0
   35.6071   15.0006  -11.6502 N   0  0  0  0  0  0  0  0  0  0  0  0
   36.9514   15.3698  -12.0365 C   0  0  0  0  0  0  0  0  0  0  0  0
   37.6091   14.0589  -12.4953 C   0  0  0  0  0  0  0  0  0  0  0  0
   36.8658   13.6292  -13.6680 N   0  0  0  0  0  0  0  0  0  0  0  0
   35.1892   15.2064  -10.3122 C   0  0  0  0  0  0  0  0  0  0  0  0
   34.2000   16.0243   -9.8831 N   0  0  0  0  0  0  0  0  0  0  0  0
   34.0962   15.9531   -8.5461 C   0  0  0  0  0  0  0  0  0  0  0  0
   33.2567   16.5784   -7.6180 C   0  0  0  0  0  0  0  0  0  0  0  0
   33.4214   16.2716   -6.2896 C   0  0  0  0  0  0  0  0  0  0  0  0
   32.6171   16.8664   -5.3653 F   0  0  0  0  0  0  0  0  0  0  0  0
   34.3707   15.3816   -5.8389 C   0  0  0  0  0  0  0  0  0  0  0  0
   35.1962   14.7664   -6.7488 C   0  0  0  0  0  0  0  0  0  0  0  0
   35.0449   15.0634   -8.0934 C   0  0  0  0  0  0  0  0  0  0  0  0
   35.6908   14.6310   -9.2098 N   0  0  0  0  0  0  0  0  0  0  0  0
   36.4827   13.9265   -9.1432 H   0  0  0  0  0  0  0  0  0  0  0  0
   37.6154   13.0736  -14.7362 C   0  0  0  0  0  0  0  0  0  0  0  0
   38.9453   13.3812  -14.8455 C   0  0  0  0  0  0  0  0  0  0  0  0
   39.7081   12.8593  -15.8909 C   0  0  0  0  0  0  0  0  0  0  0  0
   39.1524   12.0281  -16.8335 C   0  0  0  0  0  0  0  0  0  0  0  0
   37.8175   11.7381  -16.6974 C   0  0  0  0  0  0  0  0  0  0  0  0
   37.0452   12.2431  -15.6724 C   0  0  0  0  0  0  0  0  0  0  0  0
   39.9416   11.4870  -17.9158 C   0  0  0  0  0  0  0  0  0  0  0  0
   40.5624   11.0536  -18.7867 N   0  0  0  0  0  0  0  0  0  0  0  0
  1  2  1  0  0  0
  2  3  1  0  0  0
  3  4  1  0  0  0
  4  5  1  0  0  0
  5  6  1  0  0  0
  6  7  1  0  0  0
  7 19  1  0  0  0
 19 20  2  0  0  0
 20 21  1  0  0  0
 21 22  2  0  0  0
 22 23  1  0  0  0
 23 24  2  0  0  0
 22 25  1  0  0  0
 25 26  3  0  0  0
  4  8  1  0  0  0
  8  9  2  0  0  0
  9 10  1  0  0  0
 10 11  2  0  0  0
 11 12  1  0  0  0
 12 13  1  0  0  0
 12 14  2  0  0  0
 14 15  1  0  0  0
 15 16  2  0  0  0
 16 17  1  0  0  0
  7  2  1  0  0  0
 24 19  1  0  0  0
 17  8  1  0  0  0
 16 10  1  0  0  0
 17 18  1  0  0  0
M  END
> <minimizedAffinity>
-8.03122

> <CNNscore>
0.2211844325

> <CNNaffinity>
5.8395948410

> <CNN_VS>
1.2916275263

> <CNNaffinity_variance>
0.6317288876

$$$$
[H]c1c([H])c(N2C([H])([H])C([H])([H])N(c3nc4c([H])c(F)c([H])c([H])c4n3[H])C([H])([H])[C@]2([H])C([H])([H])[H])c([H])c([H])c1C#N


 26 29  0  0  0  0  0  0  0  0999 V2000
   45.2303   15.3629  -14.6023 C   0  0  0  0  0  0  0  0  0  0  0  0
   45.0003   14.3962  -13.4398 C   0  0  0  0  0  0  0  0  0  0  0  0
   45.6428   14.9139  -12.1888 C   0  0  0  0  0  0  0  0  0  0  0  0
   44.7976   14.9981  -11.0472 N   0  0  0  0  0  0  0  0  0  0  0  0
   43.6527   14.1160  -10.9853 C   0  0  0  0  0  0  0  0  0  0  0  0
   42.7931   14.4916  -12.2024 C   0  0  0  0  0  0  0  0  0  0  0  0
   43.5943   14.1685  -13.3712 N   0  0  0  0  0  0  0  0  0  0  0  0
   45.0338   15.9030   -9.9830 C   0  0  0  0  0  0  0  0  0  0  0  0
   44.1974   16.1957   -8.9602 N   0  0  0  0  0  0  0  0  0  0  0  0
   44.7689   17.0986   -8.1468 C   0  0  0  0  0  0  0  0  0  0  0  0
   44.3471   17.7275   -6.9706 C   0  0  0  0  0  0  0  0  0  0  0  0
   45.2011   18.6235   -6.3758 C   0  0  0  0  0  0  0  0  0  0  0  0
   44.8149   19.2498   -5.2297 F   0  0  0  0  0  0  0  0  0  0  0  0
   46.4441   18.9248   -6.8862 C   0  0  0  0  0  0  0  0  0  0  0  0
   46.8603   18.3082   -8.0413 C   0  0  0  0  0  0  0  0  0  0  0  0
   46.0123   17.4012   -8.6556 C   0  0  0  0  0  0  0  0  0  0  0  0
   46.1317   16.6456   -9.7804 N   0  0  0  0  0  0  0  0  0  0  0  0
   47.0105   16.6882  -10.3752 H   0  0  0  0  0  0  0  0  0  0  0  0
   42.9166   13.5931  -14.4762 C   0  0  0  0  0  0  0  0  0  0  0  0
   43.6392   12.9056  -15.4146 C   0  0  0  0  0  0  0  0  0  0  0  0
   43.0038   12.3366  -16.5189 C   0  0  0  0  0  0  0  0  0  0  0  0
   41.6457   12.4481  -16.6962 C   0  0  0  0  0  0  0  0  0  0  0  0
   40.9486   13.1429  -15.7391 C   0  0  0  0  0  0  0  0  0  0  0  0
   41.5565   13.7132  -14.6404 C   0  0  0  0  0  0  0  0  0  0  0  0
   40.9871   11.8589  -17.8390 C   0  0  0  0  0  0  0  0  0  0  0  0
   40.4511   11.3936  -18.7488 N   0  0  0  0  0  0  0  0  0  0  0  0
  1  2  1  0  0  0
  2  3  1  0  0  0
  3  4  1  0  0  0
  4  5  1  0  0  0
  5  6  1  0  0  0
  6  7  1  0  0  0
  7 19  1  0  0  0
 19 20  2  0  0  0
 20 21  1  0  0  0
 21 22  2  0  0  0
 22 23  1  0  0  0
 23 24  2  0  0  0
 22 25  1  0  0  0
 25 26  3  0  0  0
  4  8  1  0  0  0
  8  9  2  0  0  0
  9 10  1  0  0  0
 10 11  2  0  0  0
 11 12  1  0  0  0
 12 13  1  0  0  0
 12 14  2  0  0  0
 14 15  1  0  0  0
 15 16  2  0  0  0
 16 17  1  0  0  0
  7  2  1  0  0  0
 24 19  1  0  0  0
 17  8  1  0  0  0
 16 10  1  0  0  0
 17 18  1  0  0  0
M  END
> <minimizedAffinity>
-5.55081

> <CNNscore>
0.2029930204

> <CNNaffinity>
5.1957287788

> <CNN_VS>
1.0546966791

> <CNNaffinity_variance>
0.1953609884

$$$$
[H]c1c([H])c(N2C([H])([H])C([H])([H])N(c3nc4c([H])c(F)c([H])c([H])c4n3[H])C([H])([H])[C@]2([H])C([H])([H])[H])c([H])c([H])c1C#N


 26 29  0  0  0  0  0  0  0  0999 V2000
   35.0990   12.3588  -13.3082 C   0  0  0  0  0  0  0  0  0  0  0  0
   35.4859   13.8379  -13.3447 C   0  0  0  0  0  0  0  0  0  0  0  0
   34.8179   14.5850  -12.2304 C   0  0  0  0  0  0  0  0  0  0  0  0
   35.6776   15.3542  -11.3975 N   0  0  0  0  0  0  0  0  0  0  0  0
   36.9285   15.8166  -11.9580 C   0  0  0  0  0  0  0  0  0  0  0  0
   37.6968   14.5381  -12.3281 C   0  0  0  0  0  0  0  0  0  0  0  0
   36.9109   13.8862  -13.3623 N   0  0  0  0  0  0  0  0  0  0  0  0
   35.3568   15.6794  -10.0564 C   0  0  0  0  0  0  0  0  0  0  0  0
   35.6544   16.8255   -9.4012 N   0  0  0  0  0  0  0  0  0  0  0  0
   35.1861   16.7678   -8.1439 C   0  0  0  0  0  0  0  0  0  0  0  0
   35.2204   17.6628   -7.0692 C   0  0  0  0  0  0  0  0  0  0  0  0
   34.6291   17.2790   -5.8907 C   0  0  0  0  0  0  0  0  0  0  0  0
   34.6483   18.1316   -4.8287 F   0  0  0  0  0  0  0  0  0  0  0  0
   34.0098   16.0601   -5.7261 C   0  0  0  0  0  0  0  0  0  0  0  0
   33.9750   15.1797   -6.7803 C   0  0  0  0  0  0  0  0  0  0  0  0
   34.5662   15.5494   -7.9773 C   0  0  0  0  0  0  0  0  0  0  0  0
   34.6953   14.9162   -9.1743 N   0  0  0  0  0  0  0  0  0  0  0  0
   34.2985   13.9422   -9.3215 H   0  0  0  0  0  0  0  0  0  0  0  0
   37.6254   13.2860  -14.4304 C   0  0  0  0  0  0  0  0  0  0  0  0
   36.9318   12.6011  -15.3922 C   0  0  0  0  0  0  0  0  0  0  0  0
   37.6061   11.9904  -16.4502 C   0  0  0  0  0  0  0  0  0  0  0  0
   38.9743   12.0576  -16.5578 C   0  0  0  0  0  0  0  0  0  0  0  0
   39.6418   12.7509  -15.5788 C   0  0  0  0  0  0  0  0  0  0  0  0
   38.9953   13.3617  -14.5246 C   0  0  0  0  0  0  0  0  0  0  0  0
   39.6731   11.4260  -17.6531 C   0  0  0  0  0  0  0  0  0  0  0  0
   40.2266   10.9113  -18.5251 N   0  0  0  0  0  0  0  0  0  0  0  0
  1  2  1  0  0  0
  2  3  1  0  0  0
  3  4  1  0  0  0
  4  5  1  0  0  0
  5  6  1  0  0  0
  6  7  1  0  0  0
  7 19  1  0  0  0
 19 20  2  0  0  0
 20 21  1  0  0  0
 21 22  2  0  0  0
 22 23  1  0  0  0
 23 24  2  0  0  0
 22 25  1  0  0  0
 25 26  3  0  0  0
  4  8  1  0  0  0
  8  9  2  0  0  0
  9 10  1  0  0  0
 10 11  2  0  0  0
 11 12  1  0  0  0
 12 13  1  0  0  0
 12 14  2  0  0  0
 14 15  1  0  0  0
 15 16  2  0  0  0
 16 17  1  0  0  0
  7  2  1  0  0  0
 24 19  1  0  0  0
 17  8  1  0  0  0
 16 10  1  0  0  0
 17 18  1  0  0  0
M  END
> <minimizedAffinity>
-7.66501

> <CNNscore>
0.1817121804

> <CNNaffinity>
5.8067746162

> <CNN_VS>
1.0551617146

> <CNNaffinity_variance>
0.5246865153

$$$$
[H]c1c([H])c(N2C([H])([H])C([H])([H])N(c3nc4c([H])c(F)c([H])c([H])c4n3[H])C([H])([H])[C@]2([H])C([H])([H])[H])c([H])c([H])c1C#N


 26 29  0  0  0  0  0  0  0  0999 V2000
   33.6776   12.1537  -14.9029 C   0  0  0  0  0  0  0  0  0  0  0  0
   34.0072   13.6039  -14.5466 C   0  0  0  0  0  0  0  0  0  0  0  0
   32.9094   14.2069  -13.7236 C   0  0  0  0  0  0  0  0  0  0  0  0
   33.3121   14.8073  -12.4980 N   0  0  0  0  0  0  0  0  0  0  0  0
   34.6710   15.2926  -12.3956 C   0  0  0  0  0  0  0  0  0  0  0  0
   35.5544   14.0506  -12.5924 C   0  0  0  0  0  0  0  0  0  0  0  0
   35.3015   13.5927  -13.9484 N   0  0  0  0  0  0  0  0  0  0  0  0
   32.4414   14.9449  -11.3889 C   0  0  0  0  0  0  0  0  0  0  0  0
   32.6048   15.7579  -10.3194 N   0  0  0  0  0  0  0  0  0  0  0  0
   31.5718   15.6134   -9.4736 C   0  0  0  0  0  0  0  0  0  0  0  0
   31.2519   16.2031   -8.2460 C   0  0  0  0  0  0  0  0  0  0  0  0
   30.0864   15.8188   -7.6296 C   0  0  0  0  0  0  0  0  0  0  0  0
   29.7514   16.3776   -6.4336 F   0  0  0  0  0  0  0  0  0  0  0  0
   29.2284   14.8851   -8.1665 C   0  0  0  0  0  0  0  0  0  0  0  0
   29.5406   14.3048   -9.3721 C   0  0  0  0  0  0  0  0  0  0  0  0
   30.7123   14.6799  -10.0089 C   0  0  0  0  0  0  0  0  0  0  0  0
   31.2854   14.2978  -11.1819 N   0  0  0  0  0  0  0  0  0  0  0  0
   30.8212   13.5739  -11.8052 H   0  0  0  0  0  0  0  0  0  0  0  0
   36.4181   13.1260  -14.6881 C   0  0  0  0  0  0  0  0  0  0  0  0
   37.6739   13.5323  -14.3231 C   0  0  0  0  0  0  0  0  0  0  0  0
   38.7923   13.0996  -15.0366 C   0  0  0  0  0  0  0  0  0  0  0  0
   38.6679   12.2600  -16.1173 C   0  0  0  0  0  0  0  0  0  0  0  0
   37.3967   11.8701  -16.4588 C   0  0  0  0  0  0  0  0  0  0  0  0
   36.2779   12.2859  -15.7678 C   0  0  0  0  0  0  0  0  0  0  0  0
   39.8253   11.8112  -16.8562 C   0  0  0  0  0  0  0  0  0  0  0  0
   40.7429   11.4494  -17.4550 N   0  0  0  0  0  0  0  0  0  0  0  0
  1  2  1  0  0  0
  2  3  1  0  0  0
  3  4  1  0  0  0
  4  5  1  0  0  0
  5  6  1  0  0  0
  6  7  1  0  0  0
  7 19  1  0  0  0
 19 20  2  0  0  0
 20 21  1  0  0  0
 21 22  2  0  0  0
 22 23  1  0  0  0
 23 24  2  0  0  0
 22 25  1  0  0  0
 25 26  3  0  0  0
  4  8  1  0  0  0
  8  9  2  0  0  0
  9 10  1  0  0  0
 10 11  2  0  0  0
 11 12  1  0  0  0
 12 13  1  0  0  0
 12 14  2  0  0  0
 14 15  1  0  0  0
 15 16  2  0  0  0
 16 17  1  0  0  0
  7  2  1  0  0  0
 24 19  1  0  0  0
 17  8  1  0  0  0
 16 10  1  0  0  0
 17 18  1  0  0  0
M  END
> <minimizedAffinity>
-7.74721

> <CNNscore>
0.1805083305

> <CNNaffinity>
5.8994297981

> <CNN_VS>
1.0648962259

> <CNNaffinity_variance>
0.3370230198

$$$$
[H]c1c([H])c(C(F)(F)F)c([H])c([H])c1N1C([H])([H])C([H])([H])N(c2nc3c([H])c(F)c([H])c([H])c3n2[H])C([H])([H])[C@@]1([H])C([H])([H])[H]


 28 31  0  0  0  0  0  0  0  0999 V2000
   38.9807   14.9227   -8.5193 C   0  0  0  0  0  0  0  0  0  0  0  0
   38.6254   14.1215   -7.2610 C   0  0  0  0  0  0  0  0  0  0  0  0
   37.2092   14.3820   -6.8224 C   0  0  0  0  0  0  0  0  0  0  0  0
   37.0308   15.6910   -6.2238 N   0  0  0  0  0  0  0  0  0  0  0  0
   38.1821   16.4347   -5.8174 C   0  0  0  0  0  0  0  0  0  0  0  0
   39.2026   15.5037   -5.2452 C   0  0  0  0  0  0  0  0  0  0  0  0
   39.5298   14.4459   -6.1709 N   0  0  0  0  0  0  0  0  0  0  0  0
   35.7000   16.2078   -6.0658 C   0  0  0  0  0  0  0  0  0  0  0  0
   35.2449   17.3877   -6.4536 N   0  0  0  0  0  0  0  0  0  0  0  0
   33.9235   17.5488   -6.1532 C   0  0  0  0  0  0  0  0  0  0  0  0
   33.0188   18.5659   -6.3479 C   0  0  0  0  0  0  0  0  0  0  0  0
   31.7169   18.4211   -5.9229 C   0  0  0  0  0  0  0  0  0  0  0  0
   30.7719   19.3810   -6.0892 F   0  0  0  0  0  0  0  0  0  0  0  0
   31.3500   17.2361   -5.3033 C   0  0  0  0  0  0  0  0  0  0  0  0
   32.2549   16.2369   -5.1171 C   0  0  0  0  0  0  0  0  0  0  0  0
   33.5766   16.3571   -5.5371 C   0  0  0  0  0  0  0  0  0  0  0  0
   34.6621   15.5658   -5.4965 N   0  0  0  0  0  0  0  0  0  0  0  0
   34.7045   14.6083   -5.0935 H   0  0  0  0  0  0  0  0  0  0  0  0
   40.7092   13.6796   -6.0216 C   0  0  0  0  0  0  0  0  0  0  0  0
   40.7270   12.3732   -6.4899 C   0  0  0  0  0  0  0  0  0  0  0  0
   41.8054   11.5284   -6.4035 C   0  0  0  0  0  0  0  0  0  0  0  0
   42.9563   12.0220   -5.8076 C   0  0  0  0  0  0  0  0  0  0  0  0
   42.9721   13.3076   -5.3360 C   0  0  0  0  0  0  0  0  0  0  0  0
   41.8737   14.1384   -5.4348 C   0  0  0  0  0  0  0  0  0  0  0  0
   44.1666   11.1592   -5.7129 C   0  0  0  0  0  0  0  0  0  0  0  0
   44.4520   11.0195   -4.3941 F   0  0  0  0  0  0  0  0  0  0  0  0
   45.2041   11.8242   -6.3506 F   0  0  0  0  0  0  0  0  0  0  0  0
   43.9585    9.9437   -6.3459 F   0  0  0  0  0  0  0  0  0  0  0  0
  1  2  1  0  0  0
  2  3  1  0  0  0
  3  4  1  0  0  0
  4  5  1  0  0  0
  5  6  1  0  0  0
  6  7  1  0  0  0
  7 19  1  0  0  0
 19 20  2  0  0  0
 20 21  1  0  0  0
 21 22  2  0  0  0
 22 23  1  0  0  0
 23 24  2  0  0  0
 22 25  1  0  0  0
 25 26  1  0  0  0
 25 27  1  0  0  0
 25 28  1  0  0  0
  4  8  1  0  0  0
  8  9  2  0  0  0
  9 10  1  0  0  0
 10 11  2  0  0  0
 11 12  1  0  0  0
 12 13  1  0  0  0
 12 14  2  0  0  0
 14 15  1  0  0  0
 15 16  2  0  0  0
 16 17  1  0  0  0
  7  2  1  0  0  0
 24 19  1  0  0  0
 17  8  1  0  0  0
 16 10  1  0  0  0
 17 18  1  0  0  0
M  END
> <minimizedAffinity>
-5.17073

> <CNNscore>
0.3833450079

> <CNNaffinity>
4.9677872658

> <CNN_VS>
1.9043765068

> <CNNaffinity_variance>
0.3023216426

$$$$
[H]c1c([H])c(C(F)(F)F)c([H])c([H])c1N1C([H])([H])C([H])([H])N(c2nc3c([H])c(F)c([H])c([H])c3n2[H])C([H])([H])[C@@]1([H])C([H])([H])[H]


 28 31  0  0  0  0  0  0  0  0999 V2000
   37.0626   16.2647   -9.2680 C   0  0  0  0  0  0  0  0  0  0  0  0
   37.3877   16.7803   -7.8609 C   0  0  0  0  0  0  0  0  0  0  0  0
   38.6619   16.1774   -7.3328 C   0  0  0  0  0  0  0  0  0  0  0  0
   38.5180   14.7847   -6.9542 N   0  0  0  0  0  0  0  0  0  0  0  0
   37.2070   14.2357   -6.8008 C   0  0  0  0  0  0  0  0  0  0  0  0
   36.3063   15.2565   -6.1827 C   0  0  0  0  0  0  0  0  0  0  0  0
   36.3029   16.4850   -6.9402 N   0  0  0  0  0  0  0  0  0  0  0  0
   39.6996   13.9930   -6.7541 C   0  0  0  0  0  0  0  0  0  0  0  0
   40.8177   14.0255   -7.4602 N   0  0  0  0  0  0  0  0  0  0  0  0
   41.7454   13.1432   -6.9876 C   0  0  0  0  0  0  0  0  0  0  0  0
   43.0263   12.8140   -7.3640 C   0  0  0  0  0  0  0  0  0  0  0  0
   43.7263   11.8571   -6.6634 C   0  0  0  0  0  0  0  0  0  0  0  0
   44.9948   11.4895   -6.9760 F   0  0  0  0  0  0  0  0  0  0  0  0
   43.1109   11.2452   -5.5818 C   0  0  0  0  0  0  0  0  0  0  0  0
   41.8429   11.5805   -5.2192 C   0  0  0  0  0  0  0  0  0  0  0  0
   41.1133   12.5441   -5.9098 C   0  0  0  0  0  0  0  0  0  0  0  0
   39.8835   13.0722   -5.7888 N   0  0  0  0  0  0  0  0  0  0  0  0
   39.1788   12.8188   -5.0674 H   0  0  0  0  0  0  0  0  0  0  0  0
   35.2735   17.4418   -6.7810 C   0  0  0  0  0  0  0  0  0  0  0  0
   35.5806   18.7891   -6.9108 C   0  0  0  0  0  0  0  0  0  0  0  0
   34.6749   19.8118   -6.7777 C   0  0  0  0  0  0  0  0  0  0  0  0
   33.3612   19.4679   -6.4963 C   0  0  0  0  0  0  0  0  0  0  0  0
   33.0246   18.1471   -6.3631 C   0  0  0  0  0  0  0  0  0  0  0  0
   33.9547   17.1359   -6.5018 C   0  0  0  0  0  0  0  0  0  0  0  0
   32.3298   20.5349   -6.3702 C   0  0  0  0  0  0  0  0  0  0  0  0
   32.5398   21.4115   -7.3839 F   0  0  0  0  0  0  0  0  0  0  0  0
   32.5309   21.1679   -5.1519 F   0  0  0  0  0  0  0  0  0  0  0  0
   31.0536   19.9940   -6.3878 F   0  0  0  0  0  0  0  0  0  0  0  0
  1  2  1  0  0  0
  2  3  1  0  0  0
  3  4  1  0  0  0
  4  5  1  0  0  0
  5  6  1  0  0  0
  6  7  1  0  0  0
  7 19  1  0  0  0
 19 20  2  0  0  0
 20 21  1  0  0  0
 21 22  2  0  0  0
 22 23  1  0  0  0
 23 24  2  0  0  0
 22 25  1  0  0  0
 25 26  1  0  0  0
 25 27  1  0  0  0
 25 28  1  0  0  0
  4  8  1  0  0  0
  8  9  2  0  0  0
  9 10  1  0  0  0
 10 11  2  0  0  0
 11 12  1  0  0  0
 12 13  1  0  0  0
 12 14  2  0  0  0
 14 15  1  0  0  0
 15 16  2  0  0  0
 16 17  1  0  0  0
  7  2  1  0  0  0
 24 19  1  0  0  0
 17  8  1  0  0  0
 16 10  1  0  0  0
 17 18  1  0  0  0
M  END
> <minimizedAffinity>
-4.91598

> <CNNscore>
0.3044216037

> <CNNaffinity>
4.7744688988

> <CNN_VS>
1.4534515142

> <CNNaffinity_variance>
0.5267746449

$$$$
[H]c1c([H])c(C(F)(F)F)c([H])c([H])c1N1C([H])([H])C([H])([H])N(c2nc3c([H])c(F)c([H])c([H])c3n2[H])C([H])([H])[C@@]1([H])C([H])([H])[H]


 28 31  0  0  0  0  0  0  0  0999 V2000
   36.1819   17.4553   -8.6115 C   0  0  0  0  0  0  0  0  0  0  0  0
   35.9442   17.1919   -7.1196 C   0  0  0  0  0  0  0  0  0  0  0  0
   37.1515   16.5709   -6.4695 C   0  0  0  0  0  0  0  0  0  0  0  0
   37.3454   15.1819   -6.8395 N   0  0  0  0  0  0  0  0  0  0  0  0
   36.2749   14.4713   -7.4662 C   0  0  0  0  0  0  0  0  0  0  0  0
   34.9739   14.8901   -6.8600 C   0  0  0  0  0  0  0  0  0  0  0  0
   34.7972   16.3209   -6.9262 N   0  0  0  0  0  0  0  0  0  0  0  0
   38.6137   14.5622   -6.5741 C   0  0  0  0  0  0  0  0  0  0  0  0
   39.6841   15.1217   -6.0346 N   0  0  0  0  0  0  0  0  0  0  0  0
   40.7174   14.2381   -5.9175 C   0  0  0  0  0  0  0  0  0  0  0  0
   42.0002   14.3306   -5.4309 C   0  0  0  0  0  0  0  0  0  0  0  0
   42.8247   13.2277   -5.4469 C   0  0  0  0  0  0  0  0  0  0  0  0
   44.0977   13.2471   -4.9767 F   0  0  0  0  0  0  0  0  0  0  0  0
   42.3300   12.0379   -5.9593 C   0  0  0  0  0  0  0  0  0  0  0  0
   41.0583   11.9594   -6.4374 C   0  0  0  0  0  0  0  0  0  0  0  0
   40.2042   13.0586   -6.4328 C   0  0  0  0  0  0  0  0  0  0  0  0
   38.9365   13.2784   -6.8210 N   0  0  0  0  0  0  0  0  0  0  0  0
   38.2974   12.5759   -7.2442 H   0  0  0  0  0  0  0  0  0  0  0  0
   33.5211   16.9103   -6.7690 C   0  0  0  0  0  0  0  0  0  0  0  0
   32.4786   16.4853   -7.5806 C   0  0  0  0  0  0  0  0  0  0  0  0
   31.1986   16.9780   -7.5281 C   0  0  0  0  0  0  0  0  0  0  0  0
   30.9341   17.9684   -6.5940 C   0  0  0  0  0  0  0  0  0  0  0  0
   31.9407   18.4094   -5.7768 C   0  0  0  0  0  0  0  0  0  0  0  0
   33.2210   17.8975   -5.8490 C   0  0  0  0  0  0  0  0  0  0  0  0
   29.5557   18.5192   -6.4725 C   0  0  0  0  0  0  0  0  0  0  0  0
   29.1566   18.3110   -5.1928 F   0  0  0  0  0  0  0  0  0  0  0  0
   28.7426   17.8047   -7.3407 F   0  0  0  0  0  0  0  0  0  0  0  0
   29.5245   19.8580   -6.8304 F   0  0  0  0  0  0  0  0  0  0  0  0
  1  2  1  0  0  0
  2  3  1  0  0  0
  3  4  1  0  0  0
  4  5  1  0  0  0
  5  6  1  0  0  0
  6  7  1  0  0  0
  7 19  1  0  0  0
 19 20  2  0  0  0
 20 21  1  0  0  0
 21 22  2  0  0  0
 22 23  1  0  0  0
 23 24  2  0  0  0
 22 25  1  0  0  0
 25 26  1  0  0  0
 25 27  1  0  0  0
 25 28  1  0  0  0
  4  8  1  0  0  0
  8  9  2  0  0  0
  9 10  1  0  0  0
 10 11  2  0  0  0
 11 12  1  0  0  0
 12 13  1  0  0  0
 12 14  2  0  0  0
 14 15  1  0  0  0
 15 16  2  0  0  0
 16 17  1  0  0  0
  7  2  1  0  0  0
 24 19  1  0  0  0
 17  8  1  0  0  0
 16 10  1  0  0  0
 17 18  1  0  0  0
M  END
> <minimizedAffinity>
-5.37012

> <CNNscore>
0.3027123809

> <CNNaffinity>
4.6792187691

> <CNN_VS>
1.4164574146

> <CNNaffinity_variance>
0.4332575798

$$$$
[H]c1c([H])c(C(F)(F)F)c([H])c([H])c1N1C([H])([H])C([H])([H])N(c2nc3c([H])c(F)c([H])c([H])c3n2[H])C([H])([H])[C@@]1([H])C([H])([H])[H]


 28 31  0  0  0  0  0  0  0  0999 V2000
   38.4625   14.9205   -9.0042 C   0  0  0  0  0  0  0  0  0  0  0  0
   38.2511   14.6952   -7.5022 C   0  0  0  0  0  0  0  0  0  0  0  0
   36.8134   14.3778   -7.1886 C   0  0  0  0  0  0  0  0  0  0  0  0
   35.9405   15.5314   -7.2930 N   0  0  0  0  0  0  0  0  0  0  0  0
   36.5160   16.8390   -7.3443 C   0  0  0  0  0  0  0  0  0  0  0  0
   37.7005   16.9004   -6.4339 C   0  0  0  0  0  0  0  0  0  0  0  0
   38.6578   15.8656   -6.7430 N   0  0  0  0  0  0  0  0  0  0  0  0
   34.5202   15.3255   -7.3522 C   0  0  0  0  0  0  0  0  0  0  0  0
   33.6345   16.0279   -8.0391 N   0  0  0  0  0  0  0  0  0  0  0  0
   32.3667   15.5502   -7.8752 C   0  0  0  0  0  0  0  0  0  0  0  0
   31.1372   15.9216   -8.3665 C   0  0  0  0  0  0  0  0  0  0  0  0
   30.0100   15.2164   -8.0078 C   0  0  0  0  0  0  0  0  0  0  0  0
   28.7681   15.5239   -8.4608 F   0  0  0  0  0  0  0  0  0  0  0  0
   30.1494   14.1355   -7.1505 C   0  0  0  0  0  0  0  0  0  0  0  0
   31.3720   13.7779   -6.6717 C   0  0  0  0  0  0  0  0  0  0  0  0
   32.5271   14.4732   -7.0183 C   0  0  0  0  0  0  0  0  0  0  0  0
   33.8319   14.3575   -6.7178 N   0  0  0  0  0  0  0  0  0  0  0  0
   34.2536   13.6380   -6.0969 H   0  0  0  0  0  0  0  0  0  0  0  0
   39.9949   15.9440   -6.2883 C   0  0  0  0  0  0  0  0  0  0  0  0
   40.9730   16.4175   -7.1517 C   0  0  0  0  0  0  0  0  0  0  0  0
   42.3023   16.5395   -6.8324 C   0  0  0  0  0  0  0  0  0  0  0  0
   42.6886   16.1639   -5.5545 C   0  0  0  0  0  0  0  0  0  0  0  0
   41.7476   15.6936   -4.6776 C   0  0  0  0  0  0  0  0  0  0  0  0
   40.4155   15.5802   -5.0228 C   0  0  0  0  0  0  0  0  0  0  0  0
   44.1133   16.3024   -5.1435 C   0  0  0  0  0  0  0  0  0  0  0  0
   44.5424   15.0686   -4.7777 F   0  0  0  0  0  0  0  0  0  0  0  0
   44.1514   17.1566   -4.0506 F   0  0  0  0  0  0  0  0  0  0  0  0
   44.8722   16.8503   -6.1658 F   0  0  0  0  0  0  0  0  0  0  0  0
  1  2  1  0  0  0
  2  3  1  0  0  0
  3  4  1  0  0  0
  4  5  1  0  0  0
  5  6  1  0  0  0
  6  7  1  0  0  0
  7 19  1  0  0  0
 19 20  2  0  0  0
 20 21  1  0  0  0
 21 22  2  0  0  0
 22 23  1  0  0  0
 23 24  2  0  0  0
 22 25  1  0  0  0
 25 26  1  0  0  0
 25 27  1  0  0  0
 25 28  1  0  0  0
  4  8  1  0  0  0
  8  9  2  0  0  0
  9 10  1  0  0  0
 10 11  2  0  0  0
 11 12  1  0  0  0
 12 13  1  0  0  0
 12 14  2  0  0  0
 14 15  1  0  0  0
 15 16  2  0  0  0
 16 17  1  0  0  0
  7  2  1  0  0  0
 24 19  1  0  0  0
 17  8  1  0  0  0
 16 10  1  0  0  0
 17 18  1  0  0  0
M  END
> <minimizedAffinity>
-4.53313

> <CNNscore>
0.2691830993

> <CNNaffinity>
4.6455850601

> <CNN_VS>
1.2505129576

> <CNNaffinity_variance>
0.3208492696

$$$$
[H]c1c([H])c(C(F)(F)F)c([H])c([H])c1N1C([H])([H])C([H])([H])N(c2nc3c([H])c(F)c([H])c([H])c3n2[H])C([H])([H])[C@@]1([H])C([H])([H])[H]


 28 31  0  0  0  0  0  0  0  0999 V2000
   36.9574   14.9362   -9.0620 C   0  0  0  0  0  0  0  0  0  0  0  0
   36.6892   14.5290   -7.6082 C   0  0  0  0  0  0  0  0  0  0  0  0
   35.2736   14.8381   -7.2005 C   0  0  0  0  0  0  0  0  0  0  0  0
   35.0339   16.2555   -7.0073 N   0  0  0  0  0  0  0  0  0  0  0  0
   36.1495   17.1420   -6.8926 C   0  0  0  0  0  0  0  0  0  0  0  0
   37.2413   16.4746   -6.1193 C   0  0  0  0  0  0  0  0  0  0  0  0
   37.6044   15.2069   -6.7057 N   0  0  0  0  0  0  0  0  0  0  0  0
   33.6794   16.7297   -6.9471 C   0  0  0  0  0  0  0  0  0  0  0  0
   33.2666   17.9422   -6.6167 N   0  0  0  0  0  0  0  0  0  0  0  0
   31.9076   18.0517   -6.6740 C   0  0  0  0  0  0  0  0  0  0  0  0
   31.0229   19.0766   -6.4338 C   0  0  0  0  0  0  0  0  0  0  0  0
   29.6700   18.8696   -6.5873 C   0  0  0  0  0  0  0  0  0  0  0  0
   28.7432   19.8379   -6.3740 F   0  0  0  0  0  0  0  0  0  0  0  0
   29.2326   17.6159   -6.9869 C   0  0  0  0  0  0  0  0  0  0  0  0
   30.1186   16.6100   -7.2219 C   0  0  0  0  0  0  0  0  0  0  0  0
   31.4908   16.7923   -7.0746 C   0  0  0  0  0  0  0  0  0  0  0  0
   32.5750   16.0143   -7.2331 N   0  0  0  0  0  0  0  0  0  0  0  0
   32.5729   15.0179   -7.5303 H   0  0  0  0  0  0  0  0  0  0  0  0
   38.8322   14.5786   -6.3920 C   0  0  0  0  0  0  0  0  0  0  0  0
   39.0325   13.2610   -6.7794 C   0  0  0  0  0  0  0  0  0  0  0  0
   40.1750   12.5410   -6.5339 C   0  0  0  0  0  0  0  0  0  0  0  0
   41.1989   13.1819   -5.8526 C   0  0  0  0  0  0  0  0  0  0  0  0
   41.0336   14.4827   -5.4572 C   0  0  0  0  0  0  0  0  0  0  0  0
   39.8740   15.1860   -5.7163 C   0  0  0  0  0  0  0  0  0  0  0  0
   42.4728   12.4586   -5.5844 C   0  0  0  0  0  0  0  0  0  0  0  0
   42.7599   11.7353   -6.6955 F   0  0  0  0  0  0  0  0  0  0  0  0
   42.2509   11.6058   -4.5125 F   0  0  0  0  0  0  0  0  0  0  0  0
   43.4840   13.3452   -5.2484 F   0  0  0  0  0  0  0  0  0  0  0  0
  1  2  1  0  0  0
  2  3  1  0  0  0
  3  4  1  0  0  0
  4  5  1  0  0  0
  5  6  1  0  0  0
  6  7  1  0  0  0
  7 19  1  0  0  0
 19 20  2  0  0  0
 20 21  1  0  0  0
 21 22  2  0  0  0
 22 23  1  0  0  0
 23 24  2  0  0  0
 22 25  1  0  0  0
 25 26  1  0  0  0
 25 27  1  0  0  0
 25 28  1  0  0  0
  4  8  1  0  0  0
  8  9  2  0  0  0
  9 10  1  0  0  0
 10 11  2  0  0  0
 11 12  1  0  0  0
 12 13  1  0  0  0
 12 14  2  0  0  0
 14 15  1  0  0  0
 15 16  2  0  0  0
 16 17  1  0  0  0
  7  2  1  0  0  0
 24 19  1  0  0  0
 17  8  1  0  0  0
 16 10  1  0  0  0
 17 18  1  0  0  0
M  END
> <minimizedAffinity>
-5.53964

> <CNNscore>
0.2658443749

> <CNNaffinity>
4.7993946075

> <CNN_VS>
1.2758920193

> <CNNaffinity_variance>
0.2667068243

$$$$
[H]c1c([H])c(C(F)(F)F)c([H])c([H])c1N1C([H])([H])C([H])([H])N(c2nc3c([H])c(F)c([H])c([H])c3n2[H])C([H])([H])[C@@]1([H])C([H])([H])[H]


 28 31  0  0  0  0  0  0  0  0999 V2000
   39.1548   16.9704  -10.2466 C   0  0  0  0  0  0  0  0  0  0  0  0
   39.3767   15.6480   -9.5027 C   0  0  0  0  0  0  0  0  0  0  0  0
   38.1986   15.2995   -8.6330 C   0  0  0  0  0  0  0  0  0  0  0  0
   38.1037   16.1271   -7.4456 N   0  0  0  0  0  0  0  0  0  0  0  0
   39.2315   16.9117   -7.0505 C   0  0  0  0  0  0  0  0  0  0  0  0
   40.4890   16.1444   -7.3064 C   0  0  0  0  0  0  0  0  0  0  0  0
   40.5735   15.7132   -8.6811 N   0  0  0  0  0  0  0  0  0  0  0  0
   36.8729   16.1422   -6.7052 C   0  0  0  0  0  0  0  0  0  0  0  0
   35.7711   16.8158   -6.9919 N   0  0  0  0  0  0  0  0  0  0  0  0
   34.7836   16.5917   -6.0770 C   0  0  0  0  0  0  0  0  0  0  0  0
   33.4918   17.0421   -5.9393 C   0  0  0  0  0  0  0  0  0  0  0  0
   32.7230   16.6173   -4.8785 C   0  0  0  0  0  0  0  0  0  0  0  0
   31.4401   17.0161   -4.6863 F   0  0  0  0  0  0  0  0  0  0  0  0
   33.2815   15.7337   -3.9673 C   0  0  0  0  0  0  0  0  0  0  0  0
   34.5612   15.2951   -4.1153 C   0  0  0  0  0  0  0  0  0  0  0  0
   35.3597   15.7084   -5.1781 C   0  0  0  0  0  0  0  0  0  0  0  0
   36.6170   15.4523   -5.5775 N   0  0  0  0  0  0  0  0  0  0  0  0
   37.2926   14.8223   -5.1001 H   0  0  0  0  0  0  0  0  0  0  0  0
   41.8048   15.3108   -9.2491 C   0  0  0  0  0  0  0  0  0  0  0  0
   42.6049   14.4136   -8.5555 C   0  0  0  0  0  0  0  0  0  0  0  0
   43.8187   13.9487   -8.9966 C   0  0  0  0  0  0  0  0  0  0  0  0
   44.2707   14.4097  -10.2240 C   0  0  0  0  0  0  0  0  0  0  0  0
   43.5044   15.2950  -10.9344 C   0  0  0  0  0  0  0  0  0  0  0  0
   42.2860   15.7481  -10.4690 C   0  0  0  0  0  0  0  0  0  0  0  0
   45.5673   13.9164  -10.7658 C   0  0  0  0  0  0  0  0  0  0  0  0
   45.2814   13.1737  -11.8644 F   0  0  0  0  0  0  0  0  0  0  0  0
   46.1476   13.1140   -9.7938 F   0  0  0  0  0  0  0  0  0  0  0  0
   46.4217   14.9722  -11.0425 F   0  0  0  0  0  0  0  0  0  0  0  0
  1  2  1  0  0  0
  2  3  1  0  0  0
  3  4  1  0  0  0
  4  5  1  0  0  0
  5  6  1  0  0  0
  6  7  1  0  0  0
  7 19  1  0  0  0
 19 20  2  0  0  0
 20 21  1  0  0  0
 21 22  2  0  0  0
 22 23  1  0  0  0
 23 24  2  0  0  0
 22 25  1  0  0  0
 25 26  1  0  0  0
 25 27  1  0  0  0
 25 28  1  0  0  0
  4  8  1  0  0  0
  8  9  2  0  0  0
  9 10  1  0  0  0
 10 11  2  0  0  0
 11 12  1  0  0  0
 12 13  1  0  0  0
 12 14  2  0  0  0
 14 15  1  0  0  0
 15 16  2  0  0  0
 16 17  1  0  0  0
  7  2  1  0  0  0
 24 19  1  0  0  0
 17  8  1  0  0  0
 16 10  1  0  0  0
 17 18  1  0  0  0
M  END
> <minimizedAffinity>
-4.65641

> <CNNscore>
0.2579871118

> <CNNaffinity>
4.8657698631

> <CNN_VS>
1.2553058863

> <CNNaffinity_variance>
0.5687134862

$$$$
[H]c1c([H])c(C(F)(F)F)c([H])c([H])c1N1C([H])([H])C([H])([H])N(c2nc3c([H])c(F)c([H])c([H])c3n2[H])C([H])([H])[C@@]1([H])C([H])([H])[H]


 28 31  0  0  0  0  0  0  0  0999 V2000
   42.0769   13.0806  -13.4843 C   0  0  0  0  0  0  0  0  0  0  0  0
   41.2284   14.1969  -14.1051 C   0  0  0  0  0  0  0  0  0  0  0  0
   40.9382   15.2882  -13.1097 C   0  0  0  0  0  0  0  0  0  0  0  0
   39.9656   14.8989  -12.1065 N   0  0  0  0  0  0  0  0  0  0  0  0
   39.1696   13.7314  -12.3230 C   0  0  0  0  0  0  0  0  0  0  0  0
   38.8033   13.6369  -13.7696 C   0  0  0  0  0  0  0  0  0  0  0  0
   39.9737   13.6688  -14.6134 N   0  0  0  0  0  0  0  0  0  0  0  0
   39.8376   15.6938  -10.9170 C   0  0  0  0  0  0  0  0  0  0  0  0
   40.6428   15.7050   -9.8676 N   0  0  0  0  0  0  0  0  0  0  0  0
   40.2278   16.5903   -8.9155 C   0  0  0  0  0  0  0  0  0  0  0  0
   40.7118   16.9611   -7.6831 C   0  0  0  0  0  0  0  0  0  0  0  0
   40.0501   17.9139   -6.9408 C   0  0  0  0  0  0  0  0  0  0  0  0
   40.4761   18.3312   -5.7216 F   0  0  0  0  0  0  0  0  0  0  0  0
   38.8989   18.4813   -7.4659 C   0  0  0  0  0  0  0  0  0  0  0  0
   38.4306   18.1058   -8.6872 C   0  0  0  0  0  0  0  0  0  0  0  0
   39.0799   17.1456   -9.4580 C   0  0  0  0  0  0  0  0  0  0  0  0
   38.8657   16.5906  -10.6631 N   0  0  0  0  0  0  0  0  0  0  0  0
   38.0790   16.8123  -11.3058 H   0  0  0  0  0  0  0  0  0  0  0  0
   39.9222   13.2260  -15.9558 C   0  0  0  0  0  0  0  0  0  0  0  0
   39.4080   11.9663  -16.2299 C   0  0  0  0  0  0  0  0  0  0  0  0
   39.3061   11.4220  -17.4858 C   0  0  0  0  0  0  0  0  0  0  0  0
   39.7472   12.1912  -18.5522 C   0  0  0  0  0  0  0  0  0  0  0  0
   40.2590   13.4394  -18.3159 C   0  0  0  0  0  0  0  0  0  0  0  0
   40.3510   13.9650  -17.0424 C   0  0  0  0  0  0  0  0  0  0  0  0
   39.6337   11.6629  -19.9400 C   0  0  0  0  0  0  0  0  0  0  0  0
   40.4444   12.4205  -20.7204 F   0  0  0  0  0  0  0  0  0  0  0  0
   38.3144   11.8207  -20.3401 F   0  0  0  0  0  0  0  0  0  0  0  0
   39.9564   10.3156  -19.9846 F   0  0  0  0  0  0  0  0  0  0  0  0
  1  2  1  0  0  0
  2  3  1  0  0  0
  3  4  1  0  0  0
  4  5  1  0  0  0
  5  6  1  0  0  0
  6  7  1  0  0  0
  7 19  1  0  0  0
 19 20  2  0  0  0
 20 21  1  0  0  0
 21 22  2  0  0  0
 22 23  1  0  0  0
 23 24  2  0  0  0
 22 25  1  0  0  0
 25 26  1  0  0  0
 25 27  1  0  0  0
 25 28  1  0  0  0
  4  8  1  0  0  0
  8  9  2  0  0  0
  9 10  1  0  0  0
 10 11  2  0  0  0
 11 12  1  0  0  0
 12 13  1  0  0  0
 12 14  2  0  0  0
 14 15  1  0  0  0
 15 16  2  0  0  0
 16 17  1  0  0  0
  7  2  1  0  0  0
 24 19  1  0  0  0
 17  8  1  0  0  0
 16 10  1  0  0  0
 17 18  1  0  0  0
M  END
> <minimizedAffinity>
2.89037

> <CNNscore>
0.2454572469

> <CNNaffinity>
5.4716863632

> <CNN_VS>
1.3430650234

> <CNNaffinity_variance>
1.0485547781

$$$$
[H]c1c([H])c(C(F)(F)F)c([H])c([H])c1N1C([H])([H])C([H])([H])N(c2nc3c([H])c(F)c([H])c([H])c3n2[H])C([H])([H])[C@@]1([H])C([H])([H])[H]


 28 31  0  0  0  0  0  0  0  0999 V2000
   36.5770   14.8937   -8.4908 C   0  0  0  0  0  0  0  0  0  0  0  0
   36.0932   15.9221   -7.4613 C   0  0  0  0  0  0  0  0  0  0  0  0
   37.2413   16.7023   -6.8790 C   0  0  0  0  0  0  0  0  0  0  0  0
   38.0441   15.9269   -5.9526 N   0  0  0  0  0  0  0  0  0  0  0  0
   37.5271   14.6950   -5.4441 C   0  0  0  0  0  0  0  0  0  0  0  0
   36.0585   14.8317   -5.1992 C   0  0  0  0  0  0  0  0  0  0  0  0
   35.3644   15.2713   -6.3857 N   0  0  0  0  0  0  0  0  0  0  0  0
   39.3424   16.4155   -5.5803 C   0  0  0  0  0  0  0  0  0  0  0  0
   40.3481   15.7202   -5.0753 N   0  0  0  0  0  0  0  0  0  0  0  0
   41.4438   16.5007   -4.8464 C   0  0  0  0  0  0  0  0  0  0  0  0
   42.7020   16.2551   -4.3490 C   0  0  0  0  0  0  0  0  0  0  0  0
   43.6131   17.2821   -4.2409 C   0  0  0  0  0  0  0  0  0  0  0  0
   44.8726   17.1086   -3.7658 F   0  0  0  0  0  0  0  0  0  0  0  0
   43.2306   18.5525   -4.6441 C   0  0  0  0  0  0  0  0  0  0  0  0
   41.9824   18.7823   -5.1352 C   0  0  0  0  0  0  0  0  0  0  0  0
   41.0425   17.7625   -5.2552 C   0  0  0  0  0  0  0  0  0  0  0  0
   39.7744   17.6859   -5.6933 N   0  0  0  0  0  0  0  0  0  0  0  0
   39.2081   18.4753   -6.0640 H   0  0  0  0  0  0  0  0  0  0  0  0
   33.9646   15.1158   -6.5164 C   0  0  0  0  0  0  0  0  0  0  0  0
   33.2710   15.9576   -7.3747 C   0  0  0  0  0  0  0  0  0  0  0  0
   31.9158   15.9099   -7.5872 C   0  0  0  0  0  0  0  0  0  0  0  0
   31.1948   14.9488   -6.8947 C   0  0  0  0  0  0  0  0  0  0  0  0
   31.8494   14.1015   -6.0407 C   0  0  0  0  0  0  0  0  0  0  0  0
   33.2144   14.1695   -5.8439 C   0  0  0  0  0  0  0  0  0  0  0  0
   29.7256   14.8320   -7.1085 C   0  0  0  0  0  0  0  0  0  0  0  0
   29.4060   13.5220   -6.9601 F   0  0  0  0  0  0  0  0  0  0  0  0
   29.4595   15.2365   -8.4088 F   0  0  0  0  0  0  0  0  0  0  0  0
   29.0314   15.6533   -6.2338 F   0  0  0  0  0  0  0  0  0  0  0  0
  1  2  1  0  0  0
  2  3  1  0  0  0
  3  4  1  0  0  0
  4  5  1  0  0  0
  5  6  1  0  0  0
  6  7  1  0  0  0
  7 19  1  0  0  0
 19 20  2  0  0  0
 20 21  1  0  0  0
 21 22  2  0  0  0
 22 23  1  0  0  0
 23 24  2  0  0  0
 22 25  1  0  0  0
 25 26  1  0  0  0
 25 27  1  0  0  0
 25 28  1  0  0  0
  4  8  1  0  0  0
  8  9  2  0  0  0
  9 10  1  0  0  0
 10 11  2  0  0  0
 11 12  1  0  0  0
 12 13  1  0  0  0
 12 14  2  0  0  0
 14 15  1  0  0  0
 15 16  2  0  0  0
 16 17  1  0  0  0
  7  2  1  0  0  0
 24 19  1  0  0  0
 17  8  1  0  0  0
 16 10  1  0  0  0
 17 18  1  0  0  0
M  END
> <minimizedAffinity>
-4.96591

> <CNNscore>
0.2268063426

> <CNNaffinity>
4.4577188492

> <CNN_VS>
1.0110388994

> <CNNaffinity_variance>
0.5383049250

$$$$
[H]c1c([H])c(C(F)(F)F)c([H])c([H])c1N1C([H])([H])C([H])([H])N(c2nc3c([H])c(F)c([H])c([H])c3n2[H])C([H])([H])[C@@]1([H])C([H])([H])[H]


 28 31  0  0  0  0  0  0  0  0999 V2000
   37.3439   15.6650   -8.5313 C   0  0  0  0  0  0  0  0  0  0  0  0
   37.5346   15.8113   -7.0168 C   0  0  0  0  0  0  0  0  0  0  0  0
   38.8916   15.3262   -6.5819 C   0  0  0  0  0  0  0  0  0  0  0  0
   39.0153   13.8813   -6.6112 N   0  0  0  0  0  0  0  0  0  0  0  0
   37.8342   13.0822   -6.7111 C   0  0  0  0  0  0  0  0  0  0  0  0
   36.7395   13.7045   -5.9049 C   0  0  0  0  0  0  0  0  0  0  0  0
   36.5107   15.0751   -6.2948 N   0  0  0  0  0  0  0  0  0  0  0  0
   40.3247   13.2943   -6.5492 C   0  0  0  0  0  0  0  0  0  0  0  0
   41.3532   13.5386   -7.3444 N   0  0  0  0  0  0  0  0  0  0  0  0
   42.4530   12.8103   -6.9944 C   0  0  0  0  0  0  0  0  0  0  0  0
   43.7311   12.7149   -7.4925 C   0  0  0  0  0  0  0  0  0  0  0  0
   44.6403   11.8672   -6.8999 C   0  0  0  0  0  0  0  0  0  0  0  0
   45.9184   11.7296   -7.3352 F   0  0  0  0  0  0  0  0  0  0  0  0
   44.2355   11.1245   -5.8010 C   0  0  0  0  0  0  0  0  0  0  0  0
   42.9677   11.2286   -5.3174 C   0  0  0  0  0  0  0  0  0  0  0  0
   42.0292   12.0776   -5.8972 C   0  0  0  0  0  0  0  0  0  0  0  0
   40.7452   12.3862   -5.6481 N   0  0  0  0  0  0  0  0  0  0  0  0
   40.1606   11.9936   -4.8831 H   0  0  0  0  0  0  0  0  0  0  0  0
   35.3113   15.7436   -5.9557 C   0  0  0  0  0  0  0  0  0  0  0  0
   35.2801   16.5333   -4.8147 C   0  0  0  0  0  0  0  0  0  0  0  0
   34.1807   17.2293   -4.3779 C   0  0  0  0  0  0  0  0  0  0  0  0
   33.0233   17.1349   -5.1359 C   0  0  0  0  0  0  0  0  0  0  0  0
   33.0210   16.3647   -6.2684 C   0  0  0  0  0  0  0  0  0  0  0  0
   34.1406   15.6737   -6.6873 C   0  0  0  0  0  0  0  0  0  0  0  0
   31.8084   17.8923   -4.7254 C   0  0  0  0  0  0  0  0  0  0  0  0
   31.8410   17.9916   -3.3729 F   0  0  0  0  0  0  0  0  0  0  0  0
   30.7025   17.1508   -5.1160 F   0  0  0  0  0  0  0  0  0  0  0  0
   31.7612   19.1286   -5.3506 F   0  0  0  0  0  0  0  0  0  0  0  0
  1  2  1  0  0  0
  2  3  1  0  0  0
  3  4  1  0  0  0
  4  5  1  0  0  0
  5  6  1  0  0  0
  6  7  1  0  0  0
  7 19  1  0  0  0
 19 20  2  0  0  0
 20 21  1  0  0  0
 21 22  2  0  0  0
 22 23  1  0  0  0
 23 24  2  0  0  0
 22 25  1  0  0  0
 25 26  1  0  0  0
 25 27  1  0  0  0
 25 28  1  0  0  0
  4  8  1  0  0  0
  8  9  2  0  0  0
  9 10  1  0  0  0
 10 11  2  0  0  0
 11 12  1  0  0  0
 12 13  1  0  0  0
 12 14  2  0  0  0
 14 15  1  0  0  0
 15 16  2  0  0  0
 16 17  1  0  0  0
  7  2  1  0  0  0
 24 19  1  0  0  0
 17  8  1  0  0  0
 16 10  1  0  0  0
 17 18  1  0  0  0
M  END
> <minimizedAffinity>
-4.91660

> <CNNscore>
0.1907870173

> <CNNaffinity>
4.2526941299

> <CNN_VS>
0.8113588095

> <CNNaffinity_variance>
0.3984745443

$$$$
[H]c1c([H])c(N2C([H])([H])C([H])([H])N(c3nc4c([H])c(C(F)(F)F)c([H])c([H])c4n3[H])C([H])([H])[C@@]2([H])C([H])([H])[H])c([H])c([H])c1F


 28 31  0  0  0  0  0  0  0  0999 V2000
   38.5374   15.7581   -7.4657 C   0  0  0  0  0  0  0  0  0  0  0  0
   38.5800   14.4420   -6.7417 C   0  0  0  0  0  0  0  0  0  0  0  0
   37.2044   14.0372   -6.1714 C   0  0  0  0  0  0  0  0  0  0  0  0
   36.7831   15.1493   -5.3191 N   0  0  0  0  0  0  0  0  0  0  0  0
   37.6659   15.8215   -4.4255 C   0  0  0  0  0  0  0  0  0  0  0  0
   39.0436   15.2827   -4.4077 C   0  0  0  0  0  0  0  0  0  0  0  0
   39.4457   14.5393   -5.5435 N   0  0  0  0  0  0  0  0  0  0  0  0
   35.3977   15.5086   -5.4585 C   0  0  0  0  0  0  0  0  0  0  0  0
   34.5207   15.2031   -6.4312 N   0  0  0  0  0  0  0  0  0  0  0  0
   33.3027   15.7390   -6.2057 C   0  0  0  0  0  0  0  0  0  0  0  0
   32.0913   15.6740   -6.8882 C   0  0  0  0  0  0  0  0  0  0  0  0
   30.9521   16.3047   -6.4241 C   0  0  0  0  0  0  0  0  0  0  0  0
   31.0900   16.9991   -5.2441 C   0  0  0  0  0  0  0  0  0  0  0  0
   32.2847   17.0631   -4.5582 C   0  0  0  0  0  0  0  0  0  0  0  0
   33.4176   16.4242   -5.0371 C   0  0  0  0  0  0  0  0  0  0  0  0
   34.6833   16.2708   -4.6064 N   0  0  0  0  0  0  0  0  0  0  0  0
   35.0719   16.7015   -3.7173 H   0  0  0  0  0  0  0  0  0  0  0  0
   29.6525   16.1580   -7.1308 C   0  0  0  0  0  0  0  0  0  0  0  0
   29.8364   15.3705   -8.2148 F   0  0  0  0  0  0  0  0  0  0  0  0
   29.0665   17.3786   -7.4159 F   0  0  0  0  0  0  0  0  0  0  0  0
   28.7809   15.4589   -6.2907 F   0  0  0  0  0  0  0  0  0  0  0  0
   40.6551   13.8216   -5.6257 C   0  0  0  0  0  0  0  0  0  0  0  0
   41.8647   14.4871   -5.3574 C   0  0  0  0  0  0  0  0  0  0  0  0
   43.0784   13.7869   -5.4041 C   0  0  0  0  0  0  0  0  0  0  0  0
   43.1626   12.4462   -5.7065 C   0  0  0  0  0  0  0  0  0  0  0  0
   44.3355   11.8027   -5.7608 F   0  0  0  0  0  0  0  0  0  0  0  0
   41.9710   11.8105   -5.9660 C   0  0  0  0  0  0  0  0  0  0  0  0
   40.7347   12.4822   -5.9271 C   0  0  0  0  0  0  0  0  0  0  0  0
  1  2  1  0  0  0
  2  3  1  0  0  0
  3  4  1  0  0  0
  4  5  1  0  0  0
  5  6  1  0  0  0
  6  7  1  0  0  0
  7 22  1  0  0  0
 22 23  2  0  0  0
 23 24  1  0  0  0
 24 25  2  0  0  0
 25 26  1  0  0  0
 25 27  1  0  0  0
 27 28  2  0  0  0
  4  8  1  0  0  0
  8  9  2  0  0  0
  9 10  1  0  0  0
 10 11  2  0  0  0
 11 12  1  0  0  0
 12 13  2  0  0  0
 13 14  1  0  0  0
 14 15  2  0  0  0
 15 16  1  0  0  0
 12 18  1  0  0  0
 18 19  1  0  0  0
 18 20  1  0  0  0
 18 21  1  0  0  0
  7  2  1  0  0  0
 28 22  1  0  0  0
 16  8  1  0  0  0
 15 10  1  0  0  0
 16 17  1  0  0  0
M  END
> <minimizedAffinity>
-5.40770

> <CNNscore>
0.2947031558

> <CNNaffinity>
4.6598734856

> <CNN_VS>
1.3732794523

> <CNNaffinity_variance>
0.2288801968

$$$$
[H]c1c([H])c(N2C([H])([H])C([H])([H])N(c3nc4c([H])c(C(F)(F)F)c([H])c([H])c4n3[H])C([H])([H])[C@@]2([H])C([H])([H])[H])c([H])c([H])c1F


 28 31  0  0  0  0  0  0  0  0999 V2000
   37.7290   16.0496   -5.1193 C   0  0  0  0  0  0  0  0  0  0  0  0
   37.9528   15.7081   -6.5655 C   0  0  0  0  0  0  0  0  0  0  0  0
   36.7014   15.9608   -7.4323 C   0  0  0  0  0  0  0  0  0  0  0  0
   35.6263   15.1821   -6.8170 N   0  0  0  0  0  0  0  0  0  0  0  0
   35.8060   13.8528   -6.3370 C   0  0  0  0  0  0  0  0  0  0  0  0
   37.1675   13.3098   -6.5378 C   0  0  0  0  0  0  0  0  0  0  0  0
   38.2043   14.2565   -6.7206 N   0  0  0  0  0  0  0  0  0  0  0  0
   34.3675   15.8726   -6.7374 C   0  0  0  0  0  0  0  0  0  0  0  0
   34.0796   17.1690   -6.9500 N   0  0  0  0  0  0  0  0  0  0  0  0
   32.7694   17.4366   -6.7669 C   0  0  0  0  0  0  0  0  0  0  0  0
   32.0041   18.5912   -6.9028 C   0  0  0  0  0  0  0  0  0  0  0  0
   30.6401   18.5990   -6.6779 C   0  0  0  0  0  0  0  0  0  0  0  0
   30.0860   17.3933   -6.3132 C   0  0  0  0  0  0  0  0  0  0  0  0
   30.8358   16.2433   -6.1828 C   0  0  0  0  0  0  0  0  0  0  0  0
   32.2026   16.2527   -6.4127 C   0  0  0  0  0  0  0  0  0  0  0  0
   33.1805   15.3282   -6.4027 N   0  0  0  0  0  0  0  0  0  0  0  0
   33.0385   14.3060   -6.1541 H   0  0  0  0  0  0  0  0  0  0  0  0
   29.8329   19.8269   -6.9029 C   0  0  0  0  0  0  0  0  0  0  0  0
   28.7439   19.7809   -6.1024 F   0  0  0  0  0  0  0  0  0  0  0  0
   29.5393   20.0274   -8.2401 F   0  0  0  0  0  0  0  0  0  0  0  0
   30.5840   20.9228   -6.4682 F   0  0  0  0  0  0  0  0  0  0  0  0
   39.5225   13.9184   -7.0843 C   0  0  0  0  0  0  0  0  0  0  0  0
   40.0468   12.6777   -6.6792 C   0  0  0  0  0  0  0  0  0  0  0  0
   41.3458   12.3066   -7.0540 C   0  0  0  0  0  0  0  0  0  0  0  0
   42.1663   13.1066   -7.8173 C   0  0  0  0  0  0  0  0  0  0  0  0
   43.4097   12.7370   -8.1490 F   0  0  0  0  0  0  0  0  0  0  0  0
   41.6386   14.3159   -8.2051 C   0  0  0  0  0  0  0  0  0  0  0  0
   40.3385   14.7199   -7.8478 C   0  0  0  0  0  0  0  0  0  0  0  0
  1  2  1  0  0  0
  2  3  1  0  0  0
  3  4  1  0  0  0
  4  5  1  0  0  0
  5  6  1  0  0  0
  6  7  1  0  0  0
  7 22  1  0  0  0
 22 23  2  0  0  0
 23 24  1  0  0  0
 24 25  2  0  0  0
 25 26  1  0  0  0
 25 27  1  0  0  0
 27 28  2  0  0  0
  4  8  1  0  0  0
  8  9  2  0  0  0
  9 10  1  0  0  0
 10 11  2  0  0  0
 11 12  1  0  0  0
 12 13  2  0  0  0
 13 14  1  0  0  0
 14 15  2  0  0  0
 15 16  1  0  0  0
 12 18  1  0  0  0
 18 19  1  0  0  0
 18 20  1  0  0  0
 18 21  1  0  0  0
  7  2  1  0  0  0
 28 22  1  0  0  0
 16  8  1  0  0  0
 15 10  1  0  0  0
 16 17  1  0  0  0
M  END
> <minimizedAffinity>
-5.53769

> <CNNscore>
0.2590766549

> <CNNaffinity>
4.8765039444

> <CNN_VS>
1.2633882761

> <CNNaffinity_variance>
0.2797946632

$$$$
[H]c1c([H])c(N2C([H])([H])C([H])([H])N(c3nc4c([H])c(C(F)(F)F)c([H])c([H])c4n3[H])C([H])([H])[C@@]2([H])C([H])([H])[H])c([H])c([H])c1F


 28 31  0  0  0  0  0  0  0  0999 V2000
   42.0403   15.1940   -6.5869 C   0  0  0  0  0  0  0  0  0  0  0  0
   41.9386   13.9387   -7.4068 C   0  0  0  0  0  0  0  0  0  0  0  0
   40.4765   13.5107   -7.6522 C   0  0  0  0  0  0  0  0  0  0  0  0
   39.8707   13.3827   -6.3265 N   0  0  0  0  0  0  0  0  0  0  0  0
   40.5336   12.7689   -5.2249 C   0  0  0  0  0  0  0  0  0  0  0  0
   41.8803   12.2428   -5.5387 C   0  0  0  0  0  0  0  0  0  0  0  0
   42.5249   12.7933   -6.6727 N   0  0  0  0  0  0  0  0  0  0  0  0
   38.5444   13.9296   -6.2276 C   0  0  0  0  0  0  0  0  0  0  0  0
   37.3538   13.3051   -6.1960 N   0  0  0  0  0  0  0  0  0  0  0  0
   36.3250   14.1740   -6.1051 C   0  0  0  0  0  0  0  0  0  0  0  0
   34.9461   14.0121   -6.0054 C   0  0  0  0  0  0  0  0  0  0  0  0
   34.0863   15.0886   -5.8934 C   0  0  0  0  0  0  0  0  0  0  0  0
   34.6791   16.3306   -5.8845 C   0  0  0  0  0  0  0  0  0  0  0  0
   36.0446   16.4997   -5.9761 C   0  0  0  0  0  0  0  0  0  0  0  0
   36.8928   15.4092   -6.0872 C   0  0  0  0  0  0  0  0  0  0  0  0
   38.2256   15.2377   -6.1606 N   0  0  0  0  0  0  0  0  0  0  0  0
   38.9334   16.0288   -6.1741 H   0  0  0  0  0  0  0  0  0  0  0  0
   32.6247   14.8871   -5.7124 C   0  0  0  0  0  0  0  0  0  0  0  0
   32.1513   15.8601   -4.9012 F   0  0  0  0  0  0  0  0  0  0  0  0
   32.3172   13.6054   -5.2912 F   0  0  0  0  0  0  0  0  0  0  0  0
   32.0054   15.0830   -6.9502 F   0  0  0  0  0  0  0  0  0  0  0  0
   43.7304   12.2997   -7.2087 C   0  0  0  0  0  0  0  0  0  0  0  0
   44.2381   12.8706   -8.3896 C   0  0  0  0  0  0  0  0  0  0  0  0
   45.4511   12.4161   -8.9260 C   0  0  0  0  0  0  0  0  0  0  0  0
   46.1994   11.4135   -8.3510 C   0  0  0  0  0  0  0  0  0  0  0  0
   47.3473   10.9851   -8.8910 F   0  0  0  0  0  0  0  0  0  0  0  0
   45.6892   10.8661   -7.1970 C   0  0  0  0  0  0  0  0  0  0  0  0
   44.4755   11.2988   -6.6307 C   0  0  0  0  0  0  0  0  0  0  0  0
  1  2  1  0  0  0
  2  3  1  0  0  0
  3  4  1  0  0  0
  4  5  1  0  0  0
  5  6  1  0  0  0
  6  7  1  0  0  0
  7 22  1  0  0  0
 22 23  2  0  0  0
 23 24  1  0  0  0
 24 25  2  0  0  0
 25 26  1  0  0  0
 25 27  1  0  0  0
 27 28  2  0  0  0
  4  8  1  0  0  0
  8  9  2  0  0  0
  9 10  1  0  0  0
 10 11  2  0  0  0
 11 12  1  0  0  0
 12 13  2  0  0  0
 13 14  1  0  0  0
 14 15  2  0  0  0
 15 16  1  0  0  0
 12 18  1  0  0  0
 18 19  1  0  0  0
 18 20  1  0  0  0
 18 21  1  0  0  0
  7  2  1  0  0  0
 28 22  1  0  0  0
 16  8  1  0  0  0
 15 10  1  0  0  0
 16 17  1  0  0  0
M  END
> <minimizedAffinity>
-5.10837

> <CNNscore>
0.2513927519

> <CNNaffinity>
4.6408324242

> <CNN_VS>
1.1666716337

> <CNNaffinity_variance>
0.3088966310

$$$$
[H]c1c([H])c(N2C([H])([H])C([H])([H])N(c3nc4c([H])c(C(F)(F)F)c([H])c([H])c4n3[H])C([H])([H])[C@@]2([H])C([H])([H])[H])c([H])c([H])c1F


 28 31  0  0  0  0  0  0  0  0999 V2000
   43.8776   12.9686  -12.0945 C   0  0  0  0  0  0  0  0  0  0  0  0
   43.8433   14.4424  -12.3862 C   0  0  0  0  0  0  0  0  0  0  0  0
   42.5868   14.8580  -13.1798 C   0  0  0  0  0  0  0  0  0  0  0  0
   42.5868   14.0323  -14.3877 N   0  0  0  0  0  0  0  0  0  0  0  0
   43.7609   13.7726  -15.1517 C   0  0  0  0  0  0  0  0  0  0  0  0
   44.9818   14.4323  -14.6386 C   0  0  0  0  0  0  0  0  0  0  0  0
   44.9657   14.8189  -13.2767 N   0  0  0  0  0  0  0  0  0  0  0  0
   41.2975   13.5030  -14.7416 C   0  0  0  0  0  0  0  0  0  0  0  0
   40.8975   12.8861  -15.8676 N   0  0  0  0  0  0  0  0  0  0  0  0
   39.5938   12.5397  -15.8233 C   0  0  0  0  0  0  0  0  0  0  0  0
   38.7557   11.8659  -16.7070 C   0  0  0  0  0  0  0  0  0  0  0  0
   37.4315   11.6045  -16.4087 C   0  0  0  0  0  0  0  0  0  0  0  0
   36.9941   12.0504  -15.1825 C   0  0  0  0  0  0  0  0  0  0  0  0
   37.8194   12.7129  -14.2983 C   0  0  0  0  0  0  0  0  0  0  0  0
   39.1452   12.9664  -14.6128 C   0  0  0  0  0  0  0  0  0  0  0  0
   40.1853   13.5403  -13.9806 N   0  0  0  0  0  0  0  0  0  0  0  0
   40.1351   13.9748  -13.0133 H   0  0  0  0  0  0  0  0  0  0  0  0
   36.5774   10.8173  -17.3364 C   0  0  0  0  0  0  0  0  0  0  0  0
   35.6441   10.1594  -16.6117 F   0  0  0  0  0  0  0  0  0  0  0  0
   37.3192   10.0004  -18.1713 F   0  0  0  0  0  0  0  0  0  0  0  0
   35.8744   11.7163  -18.1436 F   0  0  0  0  0  0  0  0  0  0  0  0
   45.9695   15.5981  -12.6687 C   0  0  0  0  0  0  0  0  0  0  0  0
   47.3146   15.3659  -13.0077 C   0  0  0  0  0  0  0  0  0  0  0  0
   48.3290   16.1483  -12.4380 C   0  0  0  0  0  0  0  0  0  0  0  0
   48.0826   17.1611  -11.5384 C   0  0  0  0  0  0  0  0  0  0  0  0
   49.0699   17.8843  -10.9952 F   0  0  0  0  0  0  0  0  0  0  0  0
   46.7625   17.3752  -11.2178 C   0  0  0  0  0  0  0  0  0  0  0  0
   45.7192   16.6096  -11.7714 C   0  0  0  0  0  0  0  0  0  0  0  0
  1  2  1  0  0  0
  2  3  1  0  0  0
  3  4  1  0  0  0
  4  5  1  0  0  0
  5  6  1  0  0  0
  6  7  1  0  0  0
  7 22  1  0  0  0
 22 23  2  0  0  0
 23 24  1  0  0  0
 24 25  2  0  0  0
 25 26  1  0  0  0
 25 27  1  0  0  0
 27 28  2  0  0  0
  4  8  1  0  0  0
  8  9  2  0  0  0
  9 10  1  0  0  0
 10 11  2  0  0  0
 11 12  1  0  0  0
 12 13  2  0  0  0
 13 14  1  0  0  0
 14 15  2  0  0  0
 15 16  1  0  0  0
 12 18  1  0  0  0
 18 19  1  0  0  0
 18 20  1  0  0  0
 18 21  1  0  0  0
  7  2  1  0  0  0
 28 22  1  0  0  0
 16  8  1  0  0  0
 15 10  1  0  0  0
 16 17  1  0  0  0
M  END
> <minimizedAffinity>
-7.65535

> <CNNscore>
0.2303655744

> <CNNaffinity>
5.8266205788

> <CNN_VS>
1.3422528505

> <CNNaffinity_variance>
0.3091988564

$$$$
[H]c1c([H])c(N2C([H])([H])C([H])([H])N(c3nc4c([H])c(C(F)(F)F)c([H])c([H])c4n3[H])C([H])([H])[C@@]2([H])C([H])([H])[H])c([H])c([H])c1F


 28 31  0  0  0  0  0  0  0  0999 V2000
   39.2111   14.6278   -5.0066 C   0  0  0  0  0  0  0  0  0  0  0  0
   40.4499   14.9535   -5.7923 C   0  0  0  0  0  0  0  0  0  0  0  0
   40.3185   16.2730   -6.5815 C   0  0  0  0  0  0  0  0  0  0  0  0
   39.1293   16.1194   -7.4199 N   0  0  0  0  0  0  0  0  0  0  0  0
   38.8301   14.9228   -8.1329 C   0  0  0  0  0  0  0  0  0  0  0  0
   39.8393   13.8519   -7.9793 C   0  0  0  0  0  0  0  0  0  0  0  0
   40.6788   13.9337   -6.8421 N   0  0  0  0  0  0  0  0  0  0  0  0
   38.2842   17.2820   -7.4653 C   0  0  0  0  0  0  0  0  0  0  0  0
   37.0023   17.4322   -7.0872 N   0  0  0  0  0  0  0  0  0  0  0  0
   36.5529   18.6874   -7.2971 C   0  0  0  0  0  0  0  0  0  0  0  0
   35.3412   19.3219   -7.0390 C   0  0  0  0  0  0  0  0  0  0  0  0
   35.1351   20.6576   -7.3295 C   0  0  0  0  0  0  0  0  0  0  0  0
   36.2035   21.3213   -7.8880 C   0  0  0  0  0  0  0  0  0  0  0  0
   37.4094   20.7019   -8.1408 C   0  0  0  0  0  0  0  0  0  0  0  0
   37.5997   19.3618   -7.8428 C   0  0  0  0  0  0  0  0  0  0  0  0
   38.6281   18.4986   -7.9332 N   0  0  0  0  0  0  0  0  0  0  0  0
   39.5826   18.7404   -8.3301 H   0  0  0  0  0  0  0  0  0  0  0  0
   33.8582   21.3312   -6.9752 C   0  0  0  0  0  0  0  0  0  0  0  0
   32.9712   20.3925   -6.5739 F   0  0  0  0  0  0  0  0  0  0  0  0
   33.3923   22.1465   -7.9915 F   0  0  0  0  0  0  0  0  0  0  0  0
   34.0924   22.1410   -5.8601 F   0  0  0  0  0  0  0  0  0  0  0  0
   41.7921   13.0984   -6.6250 C   0  0  0  0  0  0  0  0  0  0  0  0
   41.6185   11.8997   -5.9101 C   0  0  0  0  0  0  0  0  0  0  0  0
   42.7055   11.0379   -5.7068 C   0  0  0  0  0  0  0  0  0  0  0  0
   43.9724   11.3007   -6.1775 C   0  0  0  0  0  0  0  0  0  0  0  0
   44.9987   10.4696   -5.9566 F   0  0  0  0  0  0  0  0  0  0  0  0
   44.1251   12.4764   -6.8745 C   0  0  0  0  0  0  0  0  0  0  0  0
   43.0558   13.3640   -7.0979 C   0  0  0  0  0  0  0  0  0  0  0  0
  1  2  1  0  0  0
  2  3  1  0  0  0
  3  4  1  0  0  0
  4  5  1  0  0  0
  5  6  1  0  0  0
  6  7  1  0  0  0
  7 22  1  0  0  0
 22 23  2  0  0  0
 23 24  1  0  0  0
 24 25  2  0  0  0
 25 26  1  0  0  0
 25 27  1  0  0  0
 27 28  2  0  0  0
  4  8  1  0  0  0
  8  9  2  0  0  0
  9 10  1  0  0  0
 10 11  2  0  0  0
 11 12  1  0  0  0
 12 13  2  0  0  0
 13 14  1  0  0  0
 14 15  2  0  0  0
 15 16  1  0  0  0
 12 18  1  0  0  0
 18 19  1  0  0  0
 18 20  1  0  0  0
 18 21  1  0  0  0
  7  2  1  0  0  0
 28 22  1  0  0  0
 16  8  1  0  0  0
 15 10  1  0  0  0
 16 17  1  0  0  0
M  END
> <minimizedAffinity>
-5.51943

> <CNNscore>
0.2110200375

> <CNNaffinity>
4.6619529724

> <CNN_VS>
0.9837654829

> <CNNaffinity_variance>
0.3041400909

$$$$
[H]c1c([H])c(N2C([H])([H])C([H])([H])N(c3nc4c([H])c(C(F)(F)F)c([H])c([H])c4n3[H])C([H])([H])[C@@]2([H])C([H])([H])[H])c([H])c([H])c1F


 28 31  0  0  0  0  0  0  0  0999 V2000
   40.2857   17.3979   -5.9010 C   0  0  0  0  0  0  0  0  0  0  0  0
   38.9734   16.9028   -5.3618 C   0  0  0  0  0  0  0  0  0  0  0  0
   39.0536   15.4460   -4.8592 C   0  0  0  0  0  0  0  0  0  0  0  0
   39.5437   14.6598   -5.9917 N   0  0  0  0  0  0  0  0  0  0  0  0
   39.0785   14.8446   -7.3255 C   0  0  0  0  0  0  0  0  0  0  0  0
   38.0332   15.8816   -7.4696 C   0  0  0  0  0  0  0  0  0  0  0  0
   37.9587   16.8505   -6.4399 N   0  0  0  0  0  0  0  0  0  0  0  0
   40.5378   13.6804   -5.6449 C   0  0  0  0  0  0  0  0  0  0  0  0
   40.3999   12.3717   -5.3678 N   0  0  0  0  0  0  0  0  0  0  0  0
   41.5802   11.7852   -5.0769 C   0  0  0  0  0  0  0  0  0  0  0  0
   41.9453   10.4773   -4.7714 C   0  0  0  0  0  0  0  0  0  0  0  0
   43.2589   10.1176   -4.5349 C   0  0  0  0  0  0  0  0  0  0  0  0
   44.1834   11.1332   -4.6224 C   0  0  0  0  0  0  0  0  0  0  0  0
   43.8311   12.4303   -4.9310 C   0  0  0  0  0  0  0  0  0  0  0  0
   42.5091   12.7740   -5.1661 C   0  0  0  0  0  0  0  0  0  0  0  0
   41.8607   13.9021   -5.5093 N   0  0  0  0  0  0  0  0  0  0  0  0
   42.3275   14.8457   -5.6457 H   0  0  0  0  0  0  0  0  0  0  0  0
   43.6329    8.7007   -4.2851 C   0  0  0  0  0  0  0  0  0  0  0  0
   42.7881    8.1869   -3.3624 F   0  0  0  0  0  0  0  0  0  0  0  0
   44.9710    8.5573   -3.9634 F   0  0  0  0  0  0  0  0  0  0  0  0
   43.4033    7.9800   -5.4607 F   0  0  0  0  0  0  0  0  0  0  0  0
   36.9290   17.8057   -6.3321 C   0  0  0  0  0  0  0  0  0  0  0  0
   36.7326   18.4639   -5.1047 C   0  0  0  0  0  0  0  0  0  0  0  0
   35.7334   19.4394   -4.9814 C   0  0  0  0  0  0  0  0  0  0  0  0
   34.9057   19.8042   -6.0195 C   0  0  0  0  0  0  0  0  0  0  0  0
   33.9473   20.7277   -5.8729 F   0  0  0  0  0  0  0  0  0  0  0  0
   35.1108   19.1514   -7.2125 C   0  0  0  0  0  0  0  0  0  0  0  0
   36.1050   18.1680   -7.3717 C   0  0  0  0  0  0  0  0  0  0  0  0
  1  2  1  0  0  0
  2  3  1  0  0  0
  3  4  1  0  0  0
  4  5  1  0  0  0
  5  6  1  0  0  0
  6  7  1  0  0  0
  7 22  1  0  0  0
 22 23  2  0  0  0
 23 24  1  0  0  0
 24 25  2  0  0  0
 25 26  1  0  0  0
 25 27  1  0  0  0
 27 28  2  0  0  0
  4  8  1  0  0  0
  8  9  2  0  0  0
  9 10  1  0  0  0
 10 11  2  0  0  0
 11 12  1  0  0  0
 12 13  2  0  0  0
 13 14  1  0  0  0
 14 15  2  0  0  0
 15 16  1  0  0  0
 12 18  1  0  0  0
 18 19  1  0  0  0
 18 20  1  0  0  0
 18 21  1  0  0  0
  7  2  1  0  0  0
 28 22  1  0  0  0
 16  8  1  0  0  0
 15 10  1  0  0  0
 16 17  1  0  0  0
M  END
> <minimizedAffinity>
-5.66928

> <CNNscore>
0.1899702847

> <CNNaffinity>
4.6321749687

> <CNN_VS>
0.8799756169

> <CNNaffinity_variance>
0.2287239730

$$$$
[H]c1c([H])c(N2C([H])([H])C([H])([H])N(c3nc4c([H])c(C(F)(F)F)c([H])c([H])c4n3[H])C([H])([H])[C@@]2([H])C([H])([H])[H])c([H])c([H])c1F


 28 31  0  0  0  0  0  0  0  0999 V2000
   44.2832   15.5562  -13.8543 C   0  0  0  0  0  0  0  0  0  0  0  0
   43.9092   14.8829  -12.5640 C   0  0  0  0  0  0  0  0  0  0  0  0
   42.8349   13.7920  -12.7571 C   0  0  0  0  0  0  0  0  0  0  0  0
   41.7053   14.4556  -13.4084 N   0  0  0  0  0  0  0  0  0  0  0  0
   41.2361   15.7454  -13.0264 C   0  0  0  0  0  0  0  0  0  0  0  0
   41.9691   16.3510  -11.8929 C   0  0  0  0  0  0  0  0  0  0  0  0
   43.2698   15.8508  -11.6426 N   0  0  0  0  0  0  0  0  0  0  0  0
   41.1048   13.6941  -14.4701 C   0  0  0  0  0  0  0  0  0  0  0  0
   39.8488   13.2298  -14.5954 N   0  0  0  0  0  0  0  0  0  0  0  0
   39.6711   12.5447  -15.7446 C   0  0  0  0  0  0  0  0  0  0  0  0
   38.5680   11.9244  -16.3241 C   0  0  0  0  0  0  0  0  0  0  0  0
   38.6397   11.2977  -17.5541 C   0  0  0  0  0  0  0  0  0  0  0  0
   39.8696   11.3271  -18.1709 C   0  0  0  0  0  0  0  0  0  0  0  0
   40.9658   11.9451  -17.6069 C   0  0  0  0  0  0  0  0  0  0  0  0
   40.8766   12.5697  -16.3729 C   0  0  0  0  0  0  0  0  0  0  0  0
   41.7212   13.2660  -15.5900 N   0  0  0  0  0  0  0  0  0  0  0  0
   42.7420   13.4464  -15.8188 H   0  0  0  0  0  0  0  0  0  0  0  0
   37.4301   10.7083  -18.1861 C   0  0  0  0  0  0  0  0  0  0  0  0
   37.6120   10.6816  -19.5259 F   0  0  0  0  0  0  0  0  0  0  0  0
   36.2659   11.3423  -17.7895 F   0  0  0  0  0  0  0  0  0  0  0  0
   37.3401    9.3728  -17.7833 F   0  0  0  0  0  0  0  0  0  0  0  0
   44.0404   16.1938  -10.5144 C   0  0  0  0  0  0  0  0  0  0  0  0
   43.4334   16.1923   -9.2456 C   0  0  0  0  0  0  0  0  0  0  0  0
   44.1872   16.5015   -8.1047 C   0  0  0  0  0  0  0  0  0  0  0  0
   45.5266   16.8172   -8.1505 C   0  0  0  0  0  0  0  0  0  0  0  0
   46.2218   17.1250   -7.0483 F   0  0  0  0  0  0  0  0  0  0  0  0
   46.1048   16.8140   -9.3983 C   0  0  0  0  0  0  0  0  0  0  0  0
   45.3784   16.5075  -10.5643 C   0  0  0  0  0  0  0  0  0  0  0  0
  1  2  1  0  0  0
  2  3  1  0  0  0
  3  4  1  0  0  0
  4  5  1  0  0  0
  5  6  1  0  0  0
  6  7  1  0  0  0
  7 22  1  0  0  0
 22 23  2  0  0  0
 23 24  1  0  0  0
 24 25  2  0  0  0
 25 26  1  0  0  0
 25 27  1  0  0  0
 27 28  2  0  0  0
  4  8  1  0  0  0
  8  9  2  0  0  0
  9 10  1  0  0  0
 10 11  2  0  0  0
 11 12  1  0  0  0
 12 13  2  0  0  0
 13 14  1  0  0  0
 14 15  2  0  0  0
 15 16  1  0  0  0
 12 18  1  0  0  0
 18 19  1  0  0  0
 18 20  1  0  0  0
 18 21  1  0  0  0
  7  2  1  0  0  0
 28 22  1  0  0  0
 16  8  1  0  0  0
 15 10  1  0  0  0
 16 17  1  0  0  0
M  END
> <minimizedAffinity>
-7.54384

> <CNNscore>
0.1658553928

> <CNNaffinity>
5.7118020058

> <CNN_VS>
0.9473331571

> <CNNaffinity_variance>
0.1159459203

$$$$
[H]c1c([H])c(N2C([H])([H])C([H])([H])N(c3nc4c([H])c(C(F)(F)F)c([H])c([H])c4n3[H])C([H])([H])[C@@]2([H])C([H])([H])[H])c([H])c([H])c1F


 28 31  0  0  0  0  0  0  0  0999 V2000
   37.3283   17.4131  -10.5814 C   0  0  0  0  0  0  0  0  0  0  0  0
   38.2036   16.4609   -9.8165 C   0  0  0  0  0  0  0  0  0  0  0  0
   38.1966   15.0398  -10.4179 C   0  0  0  0  0  0  0  0  0  0  0  0
   36.7929   14.6287  -10.4536 N   0  0  0  0  0  0  0  0  0  0  0  0
   35.8858   14.8667   -9.3811 C   0  0  0  0  0  0  0  0  0  0  0  0
   36.4881   15.5411   -8.2101 C   0  0  0  0  0  0  0  0  0  0  0  0
   37.6806   16.2675   -8.4440 N   0  0  0  0  0  0  0  0  0  0  0  0
   36.4033   13.9610  -11.6661 C   0  0  0  0  0  0  0  0  0  0  0  0
   37.1592   13.5004  -12.6786 N   0  0  0  0  0  0  0  0  0  0  0  0
   36.4160   12.9350  -13.6530 C   0  0  0  0  0  0  0  0  0  0  0  0
   36.7364   12.3004  -14.8497 C   0  0  0  0  0  0  0  0  0  0  0  0
   35.7685   11.7676  -15.6806 C   0  0  0  0  0  0  0  0  0  0  0  0
   34.4686   11.9020  -15.2495 C   0  0  0  0  0  0  0  0  0  0  0  0
   34.1429   12.5232  -14.0621 C   0  0  0  0  0  0  0  0  0  0  0  0
   35.1259   13.0516  -13.2402 C   0  0  0  0  0  0  0  0  0  0  0  0
   35.1428   13.6694  -12.0448 N   0  0  0  0  0  0  0  0  0  0  0  0
   34.2767   13.9057  -11.4782 H   0  0  0  0  0  0  0  0  0  0  0  0
   36.1404   11.0286  -16.9157 C   0  0  0  0  0  0  0  0  0  0  0  0
   35.5591    9.8080  -16.8806 F   0  0  0  0  0  0  0  0  0  0  0  0
   37.5088   10.9937  -17.1176 F   0  0  0  0  0  0  0  0  0  0  0  0
   35.5713   11.6947  -18.0049 F   0  0  0  0  0  0  0  0  0  0  0  0
   38.4712   16.8308   -7.4232 C   0  0  0  0  0  0  0  0  0  0  0  0
   38.1562   18.1151   -6.9443 C   0  0  0  0  0  0  0  0  0  0  0  0
   38.9104   18.6845   -5.9086 C   0  0  0  0  0  0  0  0  0  0  0  0
   39.9742   18.0448   -5.3130 C   0  0  0  0  0  0  0  0  0  0  0  0
   40.6899   18.6159   -4.3360 F   0  0  0  0  0  0  0  0  0  0  0  0
   40.2689   16.7899   -5.7927 C   0  0  0  0  0  0  0  0  0  0  0  0
   39.5324   16.1880   -6.8301 C   0  0  0  0  0  0  0  0  0  0  0  0
  1  2  1  0  0  0
  2  3  1  0  0  0
  3  4  1  0  0  0
  4  5  1  0  0  0
  5  6  1  0  0  0
  6  7  1  0  0  0
  7 22  1  0  0  0
 22 23  2  0  0  0
 23 24  1  0  0  0
 24 25  2  0  0  0
 25 26  1  0  0  0
 25 27  1  0  0  0
 27 28  2  0  0  0
  4  8  1  0  0  0
  8  9  2  0  0  0
  9 10  1  0  0  0
 10 11  2  0  0  0
 11 12  1  0  0  0
 12 13  2  0  0  0
 13 14  1  0  0  0
 14 15  2  0  0  0
 15 16  1  0  0  0
 12 18  1  0  0  0
 18 19  1  0  0  0
 18 20  1  0  0  0
 18 21  1  0  0  0
  7  2  1  0  0  0
 28 22  1  0  0  0
 16  8  1  0  0  0
 15 10  1  0  0  0
 16 17  1  0  0  0
M  END
> <minimizedAffinity>
-7.83729

> <CNNscore>
0.1583893001

> <CNNaffinity>
5.4892210960

> <CNN_VS>
0.8694338799

> <CNNaffinity_variance>
0.2682550550

$$$$
[H]c1c([H])c(N2C([H])([H])C([H])([H])N(c3nc4c([H])c(C(F)(F)F)c([H])c([H])c4n3[H])C([H])([H])[C@@]2([H])C([H])([H])[H])c([H])c([H])c1F


 28 31  0  0  0  0  0  0  0  0999 V2000
   38.2586   17.1469   -6.9832 C   0  0  0  0  0  0  0  0  0  0  0  0
   37.3275   16.6169   -5.9295 C   0  0  0  0  0  0  0  0  0  0  0  0
   37.9384   15.4403   -5.1397 C   0  0  0  0  0  0  0  0  0  0  0  0
   38.3065   14.4373   -6.1394 N   0  0  0  0  0  0  0  0  0  0  0  0
   37.4704   14.0942   -7.2407 C   0  0  0  0  0  0  0  0  0  0  0  0
   36.1801   14.8172   -7.2763 C   0  0  0  0  0  0  0  0  0  0  0  0
   36.1178   16.0339   -6.5550 N   0  0  0  0  0  0  0  0  0  0  0  0
   39.5877   13.8235   -5.9165 C   0  0  0  0  0  0  0  0  0  0  0  0
   39.9421   12.5269   -5.9579 N   0  0  0  0  0  0  0  0  0  0  0  0
   41.2506   12.3472   -5.6805 C   0  0  0  0  0  0  0  0  0  0  0  0
   42.0711   11.2236   -5.6397 C   0  0  0  0  0  0  0  0  0  0  0  0
   43.4199   11.3091   -5.3495 C   0  0  0  0  0  0  0  0  0  0  0  0
   43.9013   12.5751   -5.1054 C   0  0  0  0  0  0  0  0  0  0  0  0
   43.0968   13.6942   -5.1503 C   0  0  0  0  0  0  0  0  0  0  0  0
   41.7461   13.5909   -5.4436 C   0  0  0  0  0  0  0  0  0  0  0  0
   40.7304   14.4610   -5.5921 N   0  0  0  0  0  0  0  0  0  0  0  0
   40.8146   15.5111   -5.4612 H   0  0  0  0  0  0  0  0  0  0  0  0
   44.2902   10.1045   -5.3861 C   0  0  0  0  0  0  0  0  0  0  0  0
   45.3084   10.3328   -6.2464 F   0  0  0  0  0  0  0  0  0  0  0  0
   43.5787    8.9478   -5.6518 F   0  0  0  0  0  0  0  0  0  0  0  0
   44.8769    9.9574   -4.1259 F   0  0  0  0  0  0  0  0  0  0  0  0
   34.9316   16.7646   -6.3467 C   0  0  0  0  0  0  0  0  0  0  0  0
   34.8994   17.7425   -5.3363 C   0  0  0  0  0  0  0  0  0  0  0  0
   33.7398   18.5028   -5.1297 C   0  0  0  0  0  0  0  0  0  0  0  0
   32.5942   18.3464   -5.8774 C   0  0  0  0  0  0  0  0  0  0  0  0
   31.4932   19.0737   -5.6504 F   0  0  0  0  0  0  0  0  0  0  0  0
   32.6424   17.3865   -6.8611 C   0  0  0  0  0  0  0  0  0  0  0  0
   33.7898   16.6061   -7.0965 C   0  0  0  0  0  0  0  0  0  0  0  0
  1  2  1  0  0  0
  2  3  1  0  0  0
  3  4  1  0  0  0
  4  5  1  0  0  0
  5  6  1  0  0  0
  6  7  1  0  0  0
  7 22  1  0  0  0
 22 23  2  0  0  0
 23 24  1  0  0  0
 24 25  2  0  0  0
 25 26  1  0  0  0
 25 27  1  0  0  0
 27 28  2  0  0  0
  4  8  1  0  0  0
  8  9  2  0  0  0
  9 10  1  0  0  0
 10 11  2  0  0  0
 11 12  1  0  0  0
 12 13  2  0  0  0
 13 14  1  0  0  0
 14 15  2  0  0  0
 15 16  1  0  0  0
 12 18  1  0  0  0
 18 19  1  0  0  0
 18 20  1  0  0  0
 18 21  1  0  0  0
  7  2  1  0  0  0
 28 22  1  0  0  0
 16  8  1  0  0  0
 15 10  1  0  0  0
 16 17  1  0  0  0
M  END
> <minimizedAffinity>
-5.72388

> <CNNscore>
0.1525754631

> <CNNaffinity>
4.4685268402

> <CNN_VS>
0.6817875504

> <CNNaffinity_variance>
0.2890509665

$$$$
[H]c1c([H])c(N2C([H])([H])C([H])([H])N(c3nc4c([H])c(C#N)c([H])c([H])c4n3[H])C([H])([H])[C@@]2([H])C([H])([H])[H])c([H])c([H])c1F


 26 29  0  0  0  0  0  0  0  0999 V2000
   45.6424   16.6080  -11.8827 C   0  0  0  0  0  0  0  0  0  0  0  0
   45.3299   15.4913  -10.9578 C   0  0  0  0  0  0  0  0  0  0  0  0
   43.8210   15.3235  -10.7489 C   0  0  0  0  0  0  0  0  0  0  0  0
   43.6599   14.3604   -9.6848 N   0  0  0  0  0  0  0  0  0  0  0  0
   44.7342   13.4431   -9.3799 C   0  0  0  0  0  0  0  0  0  0  0  0
   45.9733   14.2480   -8.9525 C   0  0  0  0  0  0  0  0  0  0  0  0
   45.8905   15.5703   -9.6385 N   0  0  0  0  0  0  0  0  0  0  0  0
   42.4401   14.3161   -8.9363 C   0  0  0  0  0  0  0  0  0  0  0  0
   41.5390   15.2938   -8.7548 N   0  0  0  0  0  0  0  0  0  0  0  0
   40.5112   14.8857   -7.9882 C   0  0  0  0  0  0  0  0  0  0  0  0
   39.3534   15.4729   -7.5094 C   0  0  0  0  0  0  0  0  0  0  0  0
   38.4468   14.7998   -6.7183 C   0  0  0  0  0  0  0  0  0  0  0  0
   38.7344   13.4867   -6.4085 C   0  0  0  0  0  0  0  0  0  0  0  0
   39.8884   12.8798   -6.8779 C   0  0  0  0  0  0  0  0  0  0  0  0
   40.7808   13.5732   -7.6679 C   0  0  0  0  0  0  0  0  0  0  0  0
   41.9622   13.2556   -8.2601 N   0  0  0  0  0  0  0  0  0  0  0  0
   42.3718   12.2975   -8.1539 H   0  0  0  0  0  0  0  0  0  0  0  0
   37.2366   15.4249   -6.2221 C   0  0  0  0  0  0  0  0  0  0  0  0
   36.2636   15.9076   -5.8217 N   0  0  0  0  0  0  0  0  0  0  0  0
   46.3254   16.7024   -8.9415 C   0  0  0  0  0  0  0  0  0  0  0  0
   45.3699   17.4257   -8.2187 C   0  0  0  0  0  0  0  0  0  0  0  0
   45.7186   18.5602   -7.5222 C   0  0  0  0  0  0  0  0  0  0  0  0
   47.0106   19.0169   -7.5143 C   0  0  0  0  0  0  0  0  0  0  0  0
   47.3139   20.1223   -6.8268 F   0  0  0  0  0  0  0  0  0  0  0  0
   47.9836   18.3411   -8.2090 C   0  0  0  0  0  0  0  0  0  0  0  0
   47.6058   17.2020   -8.9021 C   0  0  0  0  0  0  0  0  0  0  0  0
  1  2  1  0  0  0
  2  3  1  0  0  0
  3  4  1  0  0  0
  4  5  1  0  0  0
  5  6  1  0  0  0
  6  7  1  0  0  0
  7 20  1  0  0  0
 20 21  2  0  0  0
 21 22  1  0  0  0
 22 23  2  0  0  0
 23 24  1  0  0  0
 23 25  1  0  0  0
 25 26  2  0  0  0
  4  8  1  0  0  0
  8  9  2  0  0  0
  9 10  1  0  0  0
 10 11  2  0  0  0
 11 12  1  0  0  0
 12 13  2  0  0  0
 13 14  1  0  0  0
 14 15  2  0  0  0
 15 16  1  0  0  0
 12 18  1  0  0  0
 18 19  3  0  0  0
  7  2  1  0  0  0
 26 20  1  0  0  0
 16  8  1  0  0  0
 15 10  1  0  0  0
 16 17  1  0  0  0
M  END
> <minimizedAffinity>
-3.49931

> <CNNscore>
0.4919733405

> <CNNaffinity>
5.2831888199

> <CNN_VS>
2.5991880894

> <CNNaffinity_variance>
0.8189032674

$$$$
[H]c1c([H])c(N2C([H])([H])C([H])([H])N(c3nc4c([H])c(C#N)c([H])c([H])c4n3[H])C([H])([H])[C@@]2([H])C([H])([H])[H])c([H])c([H])c1F


 26 29  0  0  0  0  0  0  0  0999 V2000
   34.6173   15.0461  -14.9462 C   0  0  0  0  0  0  0  0  0  0  0  0
   35.6214   14.4166  -14.0543 C   0  0  0  0  0  0  0  0  0  0  0  0
   37.0523   14.8231  -14.4230 C   0  0  0  0  0  0  0  0  0  0  0  0
   37.9302   13.9937  -13.6309 N   0  0  0  0  0  0  0  0  0  0  0  0
   37.4360   13.3797  -12.4196 C   0  0  0  0  0  0  0  0  0  0  0  0
   36.2735   12.4370  -12.7749 C   0  0  0  0  0  0  0  0  0  0  0  0
   35.6333   12.9818  -14.0074 N   0  0  0  0  0  0  0  0  0  0  0  0
   39.2843   13.7822  -14.0455 C   0  0  0  0  0  0  0  0  0  0  0  0
   39.7298   13.1507  -15.1426 N   0  0  0  0  0  0  0  0  0  0  0  0
   41.0741   13.1471  -15.2019 C   0  0  0  0  0  0  0  0  0  0  0  0
   42.0136   12.6505  -16.0881 C   0  0  0  0  0  0  0  0  0  0  0  0
   43.3712   12.7947  -15.8955 C   0  0  0  0  0  0  0  0  0  0  0  0
   43.7784   13.4673  -14.7620 C   0  0  0  0  0  0  0  0  0  0  0  0
   42.8537   13.9724  -13.8619 C   0  0  0  0  0  0  0  0  0  0  0  0
   41.5006   13.8159  -14.0756 C   0  0  0  0  0  0  0  0  0  0  0  0
   40.3872   14.1903  -13.3918 N   0  0  0  0  0  0  0  0  0  0  0  0
   40.4666   14.7189  -12.4911 H   0  0  0  0  0  0  0  0  0  0  0  0
   44.3469   12.2705  -16.8305 C   0  0  0  0  0  0  0  0  0  0  0  0
   45.1141   11.8395  -17.5828 N   0  0  0  0  0  0  0  0  0  0  0  0
   35.1566   12.0737  -14.9586 C   0  0  0  0  0  0  0  0  0  0  0  0
   33.8435   11.6120  -14.8133 C   0  0  0  0  0  0  0  0  0  0  0  0
   33.3100   10.7044  -15.6995 C   0  0  0  0  0  0  0  0  0  0  0  0
   34.0465   10.2247  -16.7508 C   0  0  0  0  0  0  0  0  0  0  0  0
   33.4964    9.3440  -17.5925 F   0  0  0  0  0  0  0  0  0  0  0  0
   35.3399   10.6479  -16.9347 C   0  0  0  0  0  0  0  0  0  0  0  0
   35.8530   11.5619  -16.0281 C   0  0  0  0  0  0  0  0  0  0  0  0
  1  2  1  0  0  0
  2  3  1  0  0  0
  3  4  1  0  0  0
  4  5  1  0  0  0
  5  6  1  0  0  0
  6  7  1  0  0  0
  7 20  1  0  0  0
 20 21  2  0  0  0
 21 22  1  0  0  0
 22 23  2  0  0  0
 23 24  1  0  0  0
 23 25  1  0  0  0
 25 26  2  0  0  0
  4  8  1  0  0  0
  8  9  2  0  0  0
  9 10  1  0  0  0
 10 11  2  0  0  0
 11 12  1  0  0  0
 12 13  2  0  0  0
 13 14  1  0  0  0
 14 15  2  0  0  0
 15 16  1  0  0  0
 12 18  1  0  0  0
 18 19  3  0  0  0
  7  2  1  0  0  0
 26 20  1  0  0  0
 16  8  1  0  0  0
 15 10  1  0  0  0
 16 17  1  0  0  0
M  END
> <minimizedAffinity>
-7.21970

> <CNNscore>
0.4259234369

> <CNNaffinity>
6.6647047997

> <CNN_VS>
2.8386540413

> <CNNaffinity_variance>
0.4375696778

$$$$
[H]c1c([H])c(N2C([H])([H])C([H])([H])N(c3nc4c([H])c(C#N)c([H])c([H])c4n3[H])C([H])([H])[C@@]2([H])C([H])([H])[H])c([H])c([H])c1F


 26 29  0  0  0  0  0  0  0  0999 V2000
   44.7123   14.3324   -8.7554 C   0  0  0  0  0  0  0  0  0  0  0  0
   44.8479   14.6923  -10.1879 C   0  0  0  0  0  0  0  0  0  0  0  0
   43.5212   14.5549  -10.9428 C   0  0  0  0  0  0  0  0  0  0  0  0
   43.8280   14.7263  -12.3437 N   0  0  0  0  0  0  0  0  0  0  0  0
   45.0359   15.4173  -12.7333 C   0  0  0  0  0  0  0  0  0  0  0  0
   46.2509   14.6458  -12.1905 C   0  0  0  0  0  0  0  0  0  0  0  0
   45.8016   13.9414  -10.9544 N   0  0  0  0  0  0  0  0  0  0  0  0
   42.9375   14.2133  -13.3407 C   0  0  0  0  0  0  0  0  0  0  0  0
   43.2441   13.6349  -14.5121 N   0  0  0  0  0  0  0  0  0  0  0  0
   42.1400   13.2757  -15.1925 C   0  0  0  0  0  0  0  0  0  0  0  0
   41.8956   12.6644  -16.4095 C   0  0  0  0  0  0  0  0  0  0  0  0
   40.6231   12.4093  -16.8747 C   0  0  0  0  0  0  0  0  0  0  0  0
   39.5700   12.7915  -16.0698 C   0  0  0  0  0  0  0  0  0  0  0  0
   39.7931   13.4049  -14.8474 C   0  0  0  0  0  0  0  0  0  0  0  0
   41.0750   13.6500  -14.4028 C   0  0  0  0  0  0  0  0  0  0  0  0
   41.5933   14.2181  -13.2820 N   0  0  0  0  0  0  0  0  0  0  0  0
   40.9638   14.5824  -12.5285 H   0  0  0  0  0  0  0  0  0  0  0  0
   40.3784   11.7681  -18.1516 C   0  0  0  0  0  0  0  0  0  0  0  0
   40.1985   11.2631  -19.1776 N   0  0  0  0  0  0  0  0  0  0  0  0
   46.3165   12.6662  -10.6988 C   0  0  0  0  0  0  0  0  0  0  0  0
   45.5512   11.5654  -11.1003 C   0  0  0  0  0  0  0  0  0  0  0  0
   45.9835   10.2799  -10.8678 C   0  0  0  0  0  0  0  0  0  0  0  0
   47.1754   10.0372  -10.2366 C   0  0  0  0  0  0  0  0  0  0  0  0
   47.5646    8.7757  -10.0272 F   0  0  0  0  0  0  0  0  0  0  0  0
   47.9613   11.0849   -9.8237 C   0  0  0  0  0  0  0  0  0  0  0  0
   47.5027   12.3693  -10.0699 C   0  0  0  0  0  0  0  0  0  0  0  0
  1  2  1  0  0  0
  2  3  1  0  0  0
  3  4  1  0  0  0
  4  5  1  0  0  0
  5  6  1  0  0  0
  6  7  1  0  0  0
  7 20  1  0  0  0
 20 21  2  0  0  0
 21 22  1  0  0  0
 22 23  2  0  0  0
 23 24  1  0  0  0
 23 25  1  0  0  0
 25 26  2  0  0  0
  4  8  1  0  0  0
  8  9  2  0  0  0
  9 10  1  0  0  0
 10 11  2  0  0  0
 11 12  1  0  0  0
 12 13  2  0  0  0
 13 14  1  0  0  0
 14 15  2  0  0  0
 15 16  1  0  0  0
 12 18  1  0  0  0
 18 19  3  0  0  0
  7  2  1  0  0  0
 26 20  1  0  0  0
 16  8  1  0  0  0
 15 10  1  0  0  0
 16 17  1  0  0  0
M  END
> <minimizedAffinity>
-7.07806

> <CNNscore>
0.3359536231

> <CNNaffinity>
5.5564012527

> <CNN_VS>
1.8666931391

> <CNNaffinity_variance>
0.1308186650

$$$$
[H]c1c([H])c(N2C([H])([H])C([H])([H])N(c3nc4c([H])c(C#N)c([H])c([H])c4n3[H])C([H])([H])[C@@]2([H])C([H])([H])[H])c([H])c([H])c1F


 26 29  0  0  0  0  0  0  0  0999 V2000
   44.8420   13.5248  -13.5940 C   0  0  0  0  0  0  0  0  0  0  0  0
   45.1486   13.5940  -12.1445 C   0  0  0  0  0  0  0  0  0  0  0  0
   43.9731   13.1160  -11.2852 C   0  0  0  0  0  0  0  0  0  0  0  0
   44.3140   13.4264   -9.9165 N   0  0  0  0  0  0  0  0  0  0  0  0
   45.6983   13.6188   -9.5488 C   0  0  0  0  0  0  0  0  0  0  0  0
   46.2652   14.8099  -10.3400 C   0  0  0  0  0  0  0  0  0  0  0  0
   45.5036   14.8827  -11.6209 N   0  0  0  0  0  0  0  0  0  0  0  0
   43.2833   13.5422   -8.9294 C   0  0  0  0  0  0  0  0  0  0  0  0
   43.0059   14.5871   -8.1343 N   0  0  0  0  0  0  0  0  0  0  0  0
   41.9599   14.3328   -7.3270 C   0  0  0  0  0  0  0  0  0  0  0  0
   41.2830   15.0404   -6.3493 C   0  0  0  0  0  0  0  0  0  0  0  0
   40.2104   14.5188   -5.6577 C   0  0  0  0  0  0  0  0  0  0  0  0
   39.8195   13.2350   -5.9769 C   0  0  0  0  0  0  0  0  0  0  0  0
   40.4837   12.5093   -6.9528 C   0  0  0  0  0  0  0  0  0  0  0  0
   41.5543   13.0519   -7.6315 C   0  0  0  0  0  0  0  0  0  0  0  0
   42.3799   12.5973   -8.6109 N   0  0  0  0  0  0  0  0  0  0  0  0
   42.2600   11.6347   -9.0058 H   0  0  0  0  0  0  0  0  0  0  0  0
   39.5083   15.2691   -4.6352 C   0  0  0  0  0  0  0  0  0  0  0  0
   38.9335   15.8569   -3.8202 N   0  0  0  0  0  0  0  0  0  0  0  0
   45.2064   16.1474  -12.1395 C   0  0  0  0  0  0  0  0  0  0  0  0
   46.2334   17.0978  -12.1598 C   0  0  0  0  0  0  0  0  0  0  0  0
   46.0126   18.3688  -12.6390 C   0  0  0  0  0  0  0  0  0  0  0  0
   44.7819   18.7435  -13.1108 C   0  0  0  0  0  0  0  0  0  0  0  0
   44.6030   19.9862  -13.5692 F   0  0  0  0  0  0  0  0  0  0  0  0
   43.7425   17.8459  -13.1111 C   0  0  0  0  0  0  0  0  0  0  0  0
   43.9915   16.5729  -12.6230 C   0  0  0  0  0  0  0  0  0  0  0  0
  1  2  1  0  0  0
  2  3  1  0  0  0
  3  4  1  0  0  0
  4  5  1  0  0  0
  5  6  1  0  0  0
  6  7  1  0  0  0
  7 20  1  0  0  0
 20 21  2  0  0  0
 21 22  1  0  0  0
 22 23  2  0  0  0
 23 24  1  0  0  0
 23 25  1  0  0  0
 25 26  2  0  0  0
  4  8  1  0  0  0
  8  9  2  0  0  0
  9 10  1  0  0  0
 10 11  2  0  0  0
 11 12  1  0  0  0
 12 13  2  0  0  0
 13 14  1  0  0  0
 14 15  2  0  0  0
 15 16  1  0  0  0
 12 18  1  0  0  0
 18 19  3  0  0  0
  7  2  1  0  0  0
 26 20  1  0  0  0
 16  8  1  0  0  0
 15 10  1  0  0  0
 16 17  1  0  0  0
M  END
> <minimizedAffinity>
-5.10953

> <CNNscore>
0.3350854814

> <CNNaffinity>
4.9292964935

> <CNN_VS>
1.6517356634

> <CNNaffinity_variance>
0.3580501378

$$$$
[H]c1c([H])c(N2C([H])([H])C([H])([H])N(c3nc4c([H])c(C#N)c([H])c([H])c4n3[H])C([H])([H])[C@@]2([H])C([H])([H])[H])c([H])c([H])c1F


 26 29  0  0  0  0  0  0  0  0999 V2000
   44.6600   18.0491  -13.5774 C   0  0  0  0  0  0  0  0  0  0  0  0
   45.4454   16.7939  -13.6632 C   0  0  0  0  0  0  0  0  0  0  0  0
   44.9084   15.7144  -12.7171 C   0  0  0  0  0  0  0  0  0  0  0  0
   45.8689   14.6359  -12.7397 N   0  0  0  0  0  0  0  0  0  0  0  0
   46.7727   14.5048  -13.8597 C   0  0  0  0  0  0  0  0  0  0  0  0
   47.6469   15.7674  -13.9476 C   0  0  0  0  0  0  0  0  0  0  0  0
   46.8484   16.8897  -13.3742 N   0  0  0  0  0  0  0  0  0  0  0  0
   45.9234   13.7015  -11.6563 C   0  0  0  0  0  0  0  0  0  0  0  0
   45.2852   13.7562  -10.4771 N   0  0  0  0  0  0  0  0  0  0  0  0
   45.5800   12.6955   -9.7032 C   0  0  0  0  0  0  0  0  0  0  0  0
   45.2089   12.2726   -8.4391 C   0  0  0  0  0  0  0  0  0  0  0  0
   45.6791   11.1062   -7.8741 C   0  0  0  0  0  0  0  0  0  0  0  0
   46.5549   10.3507   -8.6259 C   0  0  0  0  0  0  0  0  0  0  0  0
   46.9391   10.7564   -9.8940 C   0  0  0  0  0  0  0  0  0  0  0  0
   46.4557   11.9272  -10.4386 C   0  0  0  0  0  0  0  0  0  0  0  0
   46.6451   12.5664  -11.6231 N   0  0  0  0  0  0  0  0  0  0  0  0
   47.2801   12.1629  -12.3516 H   0  0  0  0  0  0  0  0  0  0  0  0
   45.2837   10.6724   -6.5486 C   0  0  0  0  0  0  0  0  0  0  0  0
   44.9572   10.3134   -5.4976 N   0  0  0  0  0  0  0  0  0  0  0  0
   47.5207   17.8609  -12.6250 C   0  0  0  0  0  0  0  0  0  0  0  0
   47.4288   17.7830  -11.2307 C   0  0  0  0  0  0  0  0  0  0  0  0
   48.0486   18.7124  -10.4272 C   0  0  0  0  0  0  0  0  0  0  0  0
   48.7744   19.7422  -10.9661 C   0  0  0  0  0  0  0  0  0  0  0  0
   49.3635   20.6271  -10.1558 F   0  0  0  0  0  0  0  0  0  0  0  0
   48.8932   19.8610  -12.3291 C   0  0  0  0  0  0  0  0  0  0  0  0
   48.2592   18.9120  -13.1153 C   0  0  0  0  0  0  0  0  0  0  0  0
  1  2  1  0  0  0
  2  3  1  0  0  0
  3  4  1  0  0  0
  4  5  1  0  0  0
  5  6  1  0  0  0
  6  7  1  0  0  0
  7 20  1  0  0  0
 20 21  2  0  0  0
 21 22  1  0  0  0
 22 23  2  0  0  0
 23 24  1  0  0  0
 23 25  1  0  0  0
 25 26  2  0  0  0
  4  8  1  0  0  0
  8  9  2  0  0  0
  9 10  1  0  0  0
 10 11  2  0  0  0
 11 12  1  0  0  0
 12 13  2  0  0  0
 13 14  1  0  0  0
 14 15  2  0  0  0
 15 16  1  0  0  0
 12 18  1  0  0  0
 18 19  3  0  0  0
  7  2  1  0  0  0
 26 20  1  0  0  0
 16  8  1  0  0  0
 15 10  1  0  0  0
 16 17  1  0  0  0
M  END
> <minimizedAffinity>
-3.57263

> <CNNscore>
0.3314916790

> <CNNaffinity>
4.8235454559

> <CNN_VS>
1.5989651680

> <CNNaffinity_variance>
0.2334962338

$$$$
[H]c1c([H])c(N2C([H])([H])C([H])([H])N(c3nc4c([H])c(C#N)c([H])c([H])c4n3[H])C([H])([H])[C@@]2([H])C([H])([H])[H])c([H])c([H])c1F


 26 29  0  0  0  0  0  0  0  0999 V2000
   44.7555   17.9750  -13.5363 C   0  0  0  0  0  0  0  0  0  0  0  0
   45.6491   16.8489  -13.9014 C   0  0  0  0  0  0  0  0  0  0  0  0
   45.2610   15.5516  -13.1837 C   0  0  0  0  0  0  0  0  0  0  0  0
   46.3152   14.6026  -13.4555 N   0  0  0  0  0  0  0  0  0  0  0  0
   47.1722   14.7929  -14.6035 C   0  0  0  0  0  0  0  0  0  0  0  0
   47.9201   16.1287  -14.4536 C   0  0  0  0  0  0  0  0  0  0  0  0
   47.0494   17.0251  -13.6387 N   0  0  0  0  0  0  0  0  0  0  0  0
   46.5087   13.4783  -12.5902 C   0  0  0  0  0  0  0  0  0  0  0  0
   47.6618   12.8945  -12.2293 N   0  0  0  0  0  0  0  0  0  0  0  0
   47.4542   11.8569  -11.3980 C   0  0  0  0  0  0  0  0  0  0  0  0
   48.2670   10.9438  -10.7500 C   0  0  0  0  0  0  0  0  0  0  0  0
   47.7708    9.9523   -9.9304 C   0  0  0  0  0  0  0  0  0  0  0  0
   46.4019    9.8946   -9.7699 C   0  0  0  0  0  0  0  0  0  0  0  0
   45.5702   10.7995  -10.4098 C   0  0  0  0  0  0  0  0  0  0  0  0
   46.0894   11.7829  -11.2250 C   0  0  0  0  0  0  0  0  0  0  0  0
   45.5416   12.7836  -11.9638 N   0  0  0  0  0  0  0  0  0  0  0  0
   44.5039   12.9236  -11.9864 H   0  0  0  0  0  0  0  0  0  0  0  0
   48.6317    9.0007   -9.2561 C   0  0  0  0  0  0  0  0  0  0  0  0
   49.3163    8.2495   -8.7020 N   0  0  0  0  0  0  0  0  0  0  0  0
   47.6640   17.8872  -12.7244 C   0  0  0  0  0  0  0  0  0  0  0  0
   47.5446   17.5817  -11.3639 C   0  0  0  0  0  0  0  0  0  0  0  0
   48.1073   18.3917  -10.4043 C   0  0  0  0  0  0  0  0  0  0  0  0
   48.8014   19.5215  -10.7500 C   0  0  0  0  0  0  0  0  0  0  0  0
   49.3351   20.2854   -9.7917 F   0  0  0  0  0  0  0  0  0  0  0  0
   48.9453   19.8632  -12.0723 C   0  0  0  0  0  0  0  0  0  0  0  0
   48.3689   19.0306  -13.0184 C   0  0  0  0  0  0  0  0  0  0  0  0
  1  2  1  0  0  0
  2  3  1  0  0  0
  3  4  1  0  0  0
  4  5  1  0  0  0
  5  6  1  0  0  0
  6  7  1  0  0  0
  7 20  1  0  0  0
 20 21  2  0  0  0
 21 22  1  0  0  0
 22 23  2  0  0  0
 23 24  1  0  0  0
 23 25  1  0  0  0
 25 26  2  0  0  0
  4  8  1  0  0  0
  8  9  2  0  0  0
  9 10  1  0  0  0
 10 11  2  0  0  0
 11 12  1  0  0  0
 12 13  2  0  0  0
 13 14  1  0  0  0
 14 15  2  0  0  0
 15 16  1  0  0  0
 12 18  1  0  0  0
 18 19  3  0  0  0
  7  2  1  0  0  0
 26 20  1  0  0  0
 16  8  1  0  0  0
 15 10  1  0  0  0
 16 17  1  0  0  0
M  END
> <minimizedAffinity>
-4.00667

> <CNNscore>
0.3019307852

> <CNNaffinity>
4.7174968719

> <CNN_VS>
1.4243575335

> <CNNaffinity_variance>
0.2539510429

$$$$
[H]c1c([H])c(N2C([H])([H])C([H])([H])N(c3nc4c([H])c(C#N)c([H])c([H])c4n3[H])C([H])([H])[C@@]2([H])C([H])([H])[H])c([H])c([H])c1F


 26 29  0  0  0  0  0  0  0  0999 V2000
   45.9663   15.2231  -12.0288 C   0  0  0  0  0  0  0  0  0  0  0  0
   45.7827   14.5953  -13.3601 C   0  0  0  0  0  0  0  0  0  0  0  0
   44.3330   14.6949  -13.8471 C   0  0  0  0  0  0  0  0  0  0  0  0
   44.2430   13.8767  -15.0339 N   0  0  0  0  0  0  0  0  0  0  0  0
   45.4402   13.5625  -15.7800 C   0  0  0  0  0  0  0  0  0  0  0  0
   46.4030   12.7770  -14.8733 C   0  0  0  0  0  0  0  0  0  0  0  0
   46.1272   13.2061  -13.4713 N   0  0  0  0  0  0  0  0  0  0  0  0
   42.9721   13.3803  -15.4680 C   0  0  0  0  0  0  0  0  0  0  0  0
   41.7897   13.4560  -14.8379 N   0  0  0  0  0  0  0  0  0  0  0  0
   40.8083   12.8756  -15.5525 C   0  0  0  0  0  0  0  0  0  0  0  0
   39.4503   12.6803  -15.3724 C   0  0  0  0  0  0  0  0  0  0  0  0
   38.6602   12.0314  -16.2973 C   0  0  0  0  0  0  0  0  0  0  0  0
   39.2790   11.5692  -17.4403 C   0  0  0  0  0  0  0  0  0  0  0  0
   40.6376   11.7546  -17.6401 C   0  0  0  0  0  0  0  0  0  0  0  0
   41.4080   12.4066  -16.7007 C   0  0  0  0  0  0  0  0  0  0  0  0
   42.7258   12.7295  -16.6195 N   0  0  0  0  0  0  0  0  0  0  0  0
   43.3871   12.4702  -17.3892 H   0  0  0  0  0  0  0  0  0  0  0  0
   37.2382   11.8322  -16.0985 C   0  0  0  0  0  0  0  0  0  0  0  0
   36.1035   11.6578  -15.9493 N   0  0  0  0  0  0  0  0  0  0  0  0
   46.2047   12.2426  -12.4602 C   0  0  0  0  0  0  0  0  0  0  0  0
   47.3983   11.5218  -12.3414 C   0  0  0  0  0  0  0  0  0  0  0  0
   47.5436   10.5458  -11.3822 C   0  0  0  0  0  0  0  0  0  0  0  0
   46.5255   10.2493  -10.5142 C   0  0  0  0  0  0  0  0  0  0  0  0
   46.7013    9.2954   -9.5945 F   0  0  0  0  0  0  0  0  0  0  0  0
   45.3350   10.9294  -10.5918 C   0  0  0  0  0  0  0  0  0  0  0  0
   45.2148   11.9070  -11.5668 C   0  0  0  0  0  0  0  0  0  0  0  0
  1  2  1  0  0  0
  2  3  1  0  0  0
  3  4  1  0  0  0
  4  5  1  0  0  0
  5  6  1  0  0  0
  6  7  1  0  0  0
  7 20  1  0  0  0
 20 21  2  0  0  0
 21 22  1  0  0  0
 22 23  2  0  0  0
 23 24  1  0  0  0
 23 25  1  0  0  0
 25 26  2  0  0  0
  4  8  1  0  0  0
  8  9  2  0  0  0
  9 10  1  0  0  0
 10 11  2  0  0  0
 11 12  1  0  0  0
 12 13  2  0  0  0
 13 14  1  0  0  0
 14 15  2  0  0  0
 15 16  1  0  0  0
 12 18  1  0  0  0
 18 19  3  0  0  0
  7  2  1  0  0  0
 26 20  1  0  0  0
 16  8  1  0  0  0
 15 10  1  0  0  0
 16 17  1  0  0  0
M  END
> <minimizedAffinity>
-7.37445

> <CNNscore>
0.2376772910

> <CNNaffinity>
5.6123690605

> <CNN_VS>
1.3339326382

> <CNNaffinity_variance>
0.0579269528

$$$$
[H]c1c([H])c(N2C([H])([H])C([H])([H])N(c3nc4c([H])c(C#N)c([H])c([H])c4n3[H])C([H])([H])[C@@]2([H])C([H])([H])[H])c([H])c([H])c1F


 26 29  0  0  0  0  0  0  0  0999 V2000
   36.6048   17.2903  -11.5207 C   0  0  0  0  0  0  0  0  0  0  0  0
   36.5570   16.5141  -10.2577 C   0  0  0  0  0  0  0  0  0  0  0  0
   37.9459   16.3512   -9.6307 C   0  0  0  0  0  0  0  0  0  0  0  0
   37.7956   15.4155   -8.5407 N   0  0  0  0  0  0  0  0  0  0  0  0
   36.4936   15.2084   -7.9487 C   0  0  0  0  0  0  0  0  0  0  0  0
   35.5359   14.6661   -9.0234 C   0  0  0  0  0  0  0  0  0  0  0  0
   36.0167   15.1864  -10.3364 N   0  0  0  0  0  0  0  0  0  0  0  0
   38.9330   14.6975   -8.0500 C   0  0  0  0  0  0  0  0  0  0  0  0
   40.1949   14.7256   -8.5055 N   0  0  0  0  0  0  0  0  0  0  0  0
   40.9985   13.9159   -7.7919 C   0  0  0  0  0  0  0  0  0  0  0  0
   42.3407   13.5825   -7.8355 C   0  0  0  0  0  0  0  0  0  0  0  0
   42.9189   12.6954   -6.9525 C   0  0  0  0  0  0  0  0  0  0  0  0
   42.0982   12.1335   -5.9966 C   0  0  0  0  0  0  0  0  0  0  0  0
   40.7514   12.4540   -5.9356 C   0  0  0  0  0  0  0  0  0  0  0  0
   40.1952   13.3441   -6.8297 C   0  0  0  0  0  0  0  0  0  0  0  0
   38.9431   13.8401   -7.0132 N   0  0  0  0  0  0  0  0  0  0  0  0
   38.1551   13.5435   -6.3903 H   0  0  0  0  0  0  0  0  0  0  0  0
   44.3264   12.3533   -7.0072 C   0  0  0  0  0  0  0  0  0  0  0  0
   45.4534   12.0903   -7.0362 N   0  0  0  0  0  0  0  0  0  0  0  0
   35.9180   14.3492  -11.4528 C   0  0  0  0  0  0  0  0  0  0  0  0
   34.6842   14.2883  -12.1105 C   0  0  0  0  0  0  0  0  0  0  0  0
   34.5051   13.4744  -13.2056 C   0  0  0  0  0  0  0  0  0  0  0  0
   35.5277   12.6990  -13.6861 C   0  0  0  0  0  0  0  0  0  0  0  0
   35.3186   11.9203  -14.7521 F   0  0  0  0  0  0  0  0  0  0  0  0
   36.7568   12.7245  -13.0740 C   0  0  0  0  0  0  0  0  0  0  0  0
   36.9104   13.5524  -11.9732 C   0  0  0  0  0  0  0  0  0  0  0  0
  1  2  1  0  0  0
  2  3  1  0  0  0
  3  4  1  0  0  0
  4  5  1  0  0  0
  5  6  1  0  0  0
  6  7  1  0  0  0
  7 20  1  0  0  0
 20 21  2  0  0  0
 21 22  1  0  0  0
 22 23  2  0  0  0
 23 24  1  0  0  0
 23 25  1  0  0  0
 25 26  2  0  0  0
  4  8  1  0  0  0
  8  9  2  0  0  0
  9 10  1  0  0  0
 10 11  2  0  0  0
 11 12  1  0  0  0
 12 13  2  0  0  0
 13 14  1  0  0  0
 14 15  2  0  0  0
 15 16  1  0  0  0
 12 18  1  0  0  0
 18 19  3  0  0  0
  7  2  1  0  0  0
 26 20  1  0  0  0
 16  8  1  0  0  0
 15 10  1  0  0  0
 16 17  1  0  0  0
M  END
> <minimizedAffinity>
-4.93666

> <CNNscore>
0.1931711435

> <CNNaffinity>
5.0594863892

> <CNN_VS>
0.9773467779

> <CNNaffinity_variance>
0.1482834518

$$$$
[H]c1c([H])c(N2C([H])([H])C([H])([H])N(c3nc4c([H])c(C#N)c([H])c([H])c4n3[H])C([H])([H])[C@@]2([H])C([H])([H])[H])c([H])c([H])c1F


 26 29  0  0  0  0  0  0  0  0999 V2000
   46.1638   16.1277  -12.9705 C   0  0  0  0  0  0  0  0  0  0  0  0
   45.9807   14.9037  -13.7880 C   0  0  0  0  0  0  0  0  0  0  0  0
   44.6987   14.9589  -14.6258 C   0  0  0  0  0  0  0  0  0  0  0  0
   44.5303   13.6457  -15.2030 N   0  0  0  0  0  0  0  0  0  0  0  0
   45.6711   12.7679  -15.3315 C   0  0  0  0  0  0  0  0  0  0  0  0
   46.2379   12.4759  -13.9317 C   0  0  0  0  0  0  0  0  0  0  0  0
   45.9185   13.6572  -13.0784 N   0  0  0  0  0  0  0  0  0  0  0  0
   43.2378   13.2174  -15.6458 C   0  0  0  0  0  0  0  0  0  0  0  0
   42.0601   13.3352  -15.0133 N   0  0  0  0  0  0  0  0  0  0  0  0
   41.0529   12.8152  -15.7385 C   0  0  0  0  0  0  0  0  0  0  0  0
   39.6874   12.6794  -15.5612 C   0  0  0  0  0  0  0  0  0  0  0  0
   38.8681   12.0864  -16.4981 C   0  0  0  0  0  0  0  0  0  0  0  0
   39.4649   11.6189  -17.6507 C   0  0  0  0  0  0  0  0  0  0  0  0
   40.8307   11.7451  -17.8479 C   0  0  0  0  0  0  0  0  0  0  0  0
   41.6303   12.3420  -16.8964 C   0  0  0  0  0  0  0  0  0  0  0  0
   42.9617   12.6018  -16.8099 N   0  0  0  0  0  0  0  0  0  0  0  0
   43.6103   12.3276  -17.5851 H   0  0  0  0  0  0  0  0  0  0  0  0
   37.4383   11.9493  -16.3021 C   0  0  0  0  0  0  0  0  0  0  0  0
   36.2956   11.8574  -16.1413 N   0  0  0  0  0  0  0  0  0  0  0  0
   45.5806   13.4311  -11.7399 C   0  0  0  0  0  0  0  0  0  0  0  0
   44.2248   13.2738  -11.4310 C   0  0  0  0  0  0  0  0  0  0  0  0
   43.8135   13.0654  -10.1344 C   0  0  0  0  0  0  0  0  0  0  0  0
   44.7174   13.0052   -9.1062 C   0  0  0  0  0  0  0  0  0  0  0  0
   44.2828   12.8012   -7.8588 F   0  0  0  0  0  0  0  0  0  0  0  0
   46.0588   13.1542   -9.3596 C   0  0  0  0  0  0  0  0  0  0  0  0
   46.4462   13.3631  -10.6737 C   0  0  0  0  0  0  0  0  0  0  0  0
  1  2  1  0  0  0
  2  3  1  0  0  0
  3  4  1  0  0  0
  4  5  1  0  0  0
  5  6  1  0  0  0
  6  7  1  0  0  0
  7 20  1  0  0  0
 20 21  2  0  0  0
 21 22  1  0  0  0
 22 23  2  0  0  0
 23 24  1  0  0  0
 23 25  1  0  0  0
 25 26  2  0  0  0
  4  8  1  0  0  0
  8  9  2  0  0  0
  9 10  1  0  0  0
 10 11  2  0  0  0
 11 12  1  0  0  0
 12 13  2  0  0  0
 13 14  1  0  0  0
 14 15  2  0  0  0
 15 16  1  0  0  0
 12 18  1  0  0  0
 18 19  3  0  0  0
  7  2  1  0  0  0
 26 20  1  0  0  0
 16  8  1  0  0  0
 15 10  1  0  0  0
 16 17  1  0  0  0
M  END
> <minimizedAffinity>
-7.16296

> <CNNscore>
0.1714036763

> <CNNaffinity>
5.5497832298

> <CNN_VS>
0.9512532353

> <CNNaffinity_variance>
0.0734666809

$$$$
[H]c1c([H])c(N2C([H])([H])C([H])([H])N(c3nc4c([H])c([H])c([H])c([H])c4n3[H])C([H])([H])[C@]2([H])C([H])([H])[H])c([H])c([H])c1C#N


 25 28  0  0  0  0  0  0  0  0999 V2000
   38.0609   10.0348  -20.6153 C   0  0  0  0  0  0  0  0  0  0  0  0
   37.9312   11.4289  -20.0821 C   0  0  0  0  0  0  0  0  0  0  0  0
   36.4795   11.9107  -20.1410 C   0  0  0  0  0  0  0  0  0  0  0  0
   35.7130   10.9839  -19.3235 N   0  0  0  0  0  0  0  0  0  0  0  0
   36.0787   10.6862  -17.9552 C   0  0  0  0  0  0  0  0  0  0  0  0
   37.4203   11.2684  -17.5917 C   0  0  0  0  0  0  0  0  0  0  0  0
   38.3167   11.4151  -18.6918 N   0  0  0  0  0  0  0  0  0  0  0  0
   34.5646   10.3354  -19.8586 C   0  0  0  0  0  0  0  0  0  0  0  0
   34.1651    9.0563  -19.6466 N   0  0  0  0  0  0  0  0  0  0  0  0
   33.0333    8.7805  -20.3113 C   0  0  0  0  0  0  0  0  0  0  0  0
   32.2554    7.6462  -20.4109 C   0  0  0  0  0  0  0  0  0  0  0  0
   31.1189    7.6632  -21.1895 C   0  0  0  0  0  0  0  0  0  0  0  0
   30.7807    8.8278  -21.8593 C   0  0  0  0  0  0  0  0  0  0  0  0
   31.5688    9.9323  -21.7414 C   0  0  0  0  0  0  0  0  0  0  0  0
   32.7093    9.9454  -20.9716 C   0  0  0  0  0  0  0  0  0  0  0  0
   33.6475   10.8628  -20.6810 N   0  0  0  0  0  0  0  0  0  0  0  0
   33.6621   11.8551  -21.0460 H   0  0  0  0  0  0  0  0  0  0  0  0
   39.7210   11.5560  -18.4013 C   0  0  0  0  0  0  0  0  0  0  0  0
   40.3175   10.8355  -17.3717 C   0  0  0  0  0  0  0  0  0  0  0  0
   41.6616   10.9755  -17.1063 C   0  0  0  0  0  0  0  0  0  0  0  0
   42.4717   11.8206  -17.8325 C   0  0  0  0  0  0  0  0  0  0  0  0
   41.8930   12.5402  -18.8552 C   0  0  0  0  0  0  0  0  0  0  0  0
   40.5404   12.3976  -19.1204 C   0  0  0  0  0  0  0  0  0  0  0  0
   43.8713   11.9700  -17.5604 C   0  0  0  0  0  0  0  0  0  0  0  0
   45.0055   12.1049  -17.3544 N   0  0  0  0  0  0  0  0  0  0  0  0
  1  2  1  0  0  0
  2  3  1  0  0  0
  3  4  1  0  0  0
  4  5  1  0  0  0
  5  6  1  0  0  0
  6  7  1  0  0  0
  7 18  1  0  0  0
 18 19  2  0  0  0
 19 20  1  0  0  0
 20 21  2  0  0  0
 21 22  1  0  0  0
 22 23  2  0  0  0
 21 24  1  0  0  0
 24 25  3  0  0  0
  4  8  1  0  0  0
  8  9  2  0  0  0
  9 10  1  0  0  0
 10 11  2  0  0  0
 11 12  1  0  0  0
 12 13  2  0  0  0
 13 14  1  0  0  0
 14 15  2  0  0  0
 15 16  1  0  0  0
  7  2  1  0  0  0
 23 18  1  0  0  0
 16  8  1  0  0  0
 15 10  1  0  0  0
 16 17  1  0  0  0
M  END
> <minimizedAffinity>
41.22766

> <CNNscore>
0.4788460732

> <CNNaffinity>
5.9062933922

> <CNN_VS>
2.8282053471

> <CNNaffinity_variance>
0.3249121308

$$$$
[H]c1c([H])c(N2C([H])([H])C([H])([H])N(c3nc4c([H])c([H])c([H])c([H])c4n3[H])C([H])([H])[C@]2([H])C([H])([H])[H])c([H])c([H])c1C#N


 25 28  0  0  0  0  0  0  0  0999 V2000
   41.9232   15.9795  -10.0201 C   0  0  0  0  0  0  0  0  0  0  0  0
   42.3929   14.6384   -9.5454 C   0  0  0  0  0  0  0  0  0  0  0  0
   43.6418   14.1882  -10.3075 C   0  0  0  0  0  0  0  0  0  0  0  0
   44.6565   15.1983  -10.0522 N   0  0  0  0  0  0  0  0  0  0  0  0
   45.0164   15.6004   -8.7093 C   0  0  0  0  0  0  0  0  0  0  0  0
   44.0837   15.0187   -7.6785 C   0  0  0  0  0  0  0  0  0  0  0  0
   42.7650   14.7591   -8.1566 N   0  0  0  0  0  0  0  0  0  0  0  0
   45.3319   15.8270  -11.1358 C   0  0  0  0  0  0  0  0  0  0  0  0
   46.3781   16.6882  -11.0681 N   0  0  0  0  0  0  0  0  0  0  0  0
   46.7640   17.0863  -12.2894 C   0  0  0  0  0  0  0  0  0  0  0  0
   47.7568   17.9359  -12.7300 C   0  0  0  0  0  0  0  0  0  0  0  0
   47.9179   18.1565  -14.0804 C   0  0  0  0  0  0  0  0  0  0  0  0
   47.0730   17.5151  -14.9714 C   0  0  0  0  0  0  0  0  0  0  0  0
   46.1016   16.6815  -14.5061 C   0  0  0  0  0  0  0  0  0  0  0  0
   45.9167   16.4418  -13.1638 C   0  0  0  0  0  0  0  0  0  0  0  0
   45.0664   15.6918  -12.4422 N   0  0  0  0  0  0  0  0  0  0  0  0
   44.3000   15.0837  -12.8437 H   0  0  0  0  0  0  0  0  0  0  0  0
   41.7134   14.6094   -7.1827 C   0  0  0  0  0  0  0  0  0  0  0  0
   41.5143   15.5617   -6.1885 C   0  0  0  0  0  0  0  0  0  0  0  0
   40.5032   15.4096   -5.2658 C   0  0  0  0  0  0  0  0  0  0  0  0
   39.6514   14.3270   -5.2780 C   0  0  0  0  0  0  0  0  0  0  0  0
   39.8382   13.3764   -6.2579 C   0  0  0  0  0  0  0  0  0  0  0  0
   40.8561   13.5316   -7.1852 C   0  0  0  0  0  0  0  0  0  0  0  0
   38.5974   14.1640   -4.3199 C   0  0  0  0  0  0  0  0  0  0  0  0
   37.7470   14.0510   -3.5383 N   0  0  0  0  0  0  0  0  0  0  0  0
  1  2  1  0  0  0
  2  3  1  0  0  0
  3  4  1  0  0  0
  4  5  1  0  0  0
  5  6  1  0  0  0
  6  7  1  0  0  0
  7 18  1  0  0  0
 18 19  2  0  0  0
 19 20  1  0  0  0
 20 21  2  0  0  0
 21 22  1  0  0  0
 22 23  2  0  0  0
 21 24  1  0  0  0
 24 25  3  0  0  0
  4  8  1  0  0  0
  8  9  2  0  0  0
  9 10  1  0  0  0
 10 11  2  0  0  0
 11 12  1  0  0  0
 12 13  2  0  0  0
 13 14  1  0  0  0
 14 15  2  0  0  0
 15 16  1  0  0  0
  7  2  1  0  0  0
 23 18  1  0  0  0
 16  8  1  0  0  0
 15 10  1  0  0  0
 16 17  1  0  0  0
M  END
> <minimizedAffinity>
-4.00258

> <CNNscore>
0.4590130746

> <CNNaffinity>
4.7854280472

> <CNN_VS>
2.1965739727

> <CNNaffinity_variance>
0.3454684913

$$$$
[H]c1c([H])c(N2C([H])([H])C([H])([H])N(c3nc4c([H])c([H])c([H])c([H])c4n3[H])C([H])([H])[C@]2([H])C([H])([H])[H])c([H])c([H])c1C#N


 25 28  0  0  0  0  0  0  0  0999 V2000
   41.4925    9.9194  -16.7676 C   0  0  0  0  0  0  0  0  0  0  0  0
   40.7508   11.2197  -16.7061 C   0  0  0  0  0  0  0  0  0  0  0  0
   41.4974   12.2421  -15.8455 C   0  0  0  0  0  0  0  0  0  0  0  0
   42.7946   12.4297  -16.4754 N   0  0  0  0  0  0  0  0  0  0  0  0
   42.9238   12.7750  -17.8750 C   0  0  0  0  0  0  0  0  0  0  0  0
   41.6043   12.6960  -18.5985 C   0  0  0  0  0  0  0  0  0  0  0  0
   40.6821   11.7606  -18.0420 N   0  0  0  0  0  0  0  0  0  0  0  0
   43.9895   12.2753  -15.7179 C   0  0  0  0  0  0  0  0  0  0  0  0
   44.1611   11.5468  -14.5862 N   0  0  0  0  0  0  0  0  0  0  0  0
   45.4230   11.6274  -14.1389 C   0  0  0  0  0  0  0  0  0  0  0  0
   46.0712   11.0775  -13.0531 C   0  0  0  0  0  0  0  0  0  0  0  0
   47.4065   11.3466  -12.8462 C   0  0  0  0  0  0  0  0  0  0  0  0
   48.0725   12.1693  -13.7400 C   0  0  0  0  0  0  0  0  0  0  0  0
   47.4052   12.6977  -14.8033 C   0  0  0  0  0  0  0  0  0  0  0  0
   46.0724   12.4469  -15.0358 C   0  0  0  0  0  0  0  0  0  0  0  0
   45.1860   12.8214  -15.9742 N   0  0  0  0  0  0  0  0  0  0  0  0
   45.3988   13.4536  -16.7946 H   0  0  0  0  0  0  0  0  0  0  0  0
   39.5955   11.3103  -18.8745 C   0  0  0  0  0  0  0  0  0  0  0  0
   39.8135   10.4198  -19.9207 C   0  0  0  0  0  0  0  0  0  0  0  0
   38.7662    9.9934  -20.7069 C   0  0  0  0  0  0  0  0  0  0  0  0
   37.4716   10.4180  -20.5030 C   0  0  0  0  0  0  0  0  0  0  0  0
   37.2423   11.3003  -19.4698 C   0  0  0  0  0  0  0  0  0  0  0  0
   38.2976   11.7278  -18.6800 C   0  0  0  0  0  0  0  0  0  0  0  0
   36.3779    9.9771  -21.3184 C   0  0  0  0  0  0  0  0  0  0  0  0
   35.5009    9.6293  -21.9944 N   0  0  0  0  0  0  0  0  0  0  0  0
  1  2  1  0  0  0
  2  3  1  0  0  0
  3  4  1  0  0  0
  4  5  1  0  0  0
  5  6  1  0  0  0
  6  7  1  0  0  0
  7 18  1  0  0  0
 18 19  2  0  0  0
 19 20  1  0  0  0
 20 21  2  0  0  0
 21 22  1  0  0  0
 22 23  2  0  0  0
 21 24  1  0  0  0
 24 25  3  0  0  0
  4  8  1  0  0  0
  8  9  2  0  0  0
  9 10  1  0  0  0
 10 11  2  0  0  0
 11 12  1  0  0  0
 12 13  2  0  0  0
 13 14  1  0  0  0
 14 15  2  0  0  0
 15 16  1  0  0  0
  7  2  1  0  0  0
 23 18  1  0  0  0
 16  8  1  0  0  0
 15 10  1  0  0  0
 16 17  1  0  0  0
M  END
> <minimizedAffinity>
31.33601

> <CNNscore>
0.3531121612

> <CNNaffinity>
5.4363770485

> <CNN_VS>
1.9196507931

> <CNNaffinity_variance>
0.8199609518

$$$$
[H]c1c([H])c(N2C([H])([H])C([H])([H])N(c3nc4c([H])c([H])c([H])c([H])c4n3[H])C([H])([H])[C@]2([H])C([H])([H])[H])c([H])c([H])c1C#N


 25 28  0  0  0  0  0  0  0  0999 V2000
   33.9308   12.2522  -13.7579 C   0  0  0  0  0  0  0  0  0  0  0  0
   34.3002   13.4878  -14.5206 C   0  0  0  0  0  0  0  0  0  0  0  0
   33.4874   14.6948  -14.0455 C   0  0  0  0  0  0  0  0  0  0  0  0
   33.7978   14.8604  -12.6344 N   0  0  0  0  0  0  0  0  0  0  0  0
   35.1600   14.9642  -12.1567 C   0  0  0  0  0  0  0  0  0  0  0  0
   36.1616   14.6673  -13.2427 C   0  0  0  0  0  0  0  0  0  0  0  0
   35.6878   13.7808  -14.2551 N   0  0  0  0  0  0  0  0  0  0  0  0
   32.7512   14.9252  -11.6721 C   0  0  0  0  0  0  0  0  0  0  0  0
   31.4767   14.4803  -11.8074 N   0  0  0  0  0  0  0  0  0  0  0  0
   30.7593   14.7055  -10.6967 C   0  0  0  0  0  0  0  0  0  0  0  0
   29.4497   14.4409  -10.3551 C   0  0  0  0  0  0  0  0  0  0  0  0
   28.9833   14.7974   -9.1087 C   0  0  0  0  0  0  0  0  0  0  0  0
   29.8466   15.4180   -8.2205 C   0  0  0  0  0  0  0  0  0  0  0  0
   31.1347   15.6662   -8.5866 C   0  0  0  0  0  0  0  0  0  0  0  0
   31.6288   15.3218   -9.8239 C   0  0  0  0  0  0  0  0  0  0  0  0
   32.8188   15.4409  -10.4371 N   0  0  0  0  0  0  0  0  0  0  0  0
   33.6825   15.8767  -10.0103 H   0  0  0  0  0  0  0  0  0  0  0  0
   36.6656   13.1166  -15.0793 C   0  0  0  0  0  0  0  0  0  0  0  0
   36.2786   12.3149  -16.1482 C   0  0  0  0  0  0  0  0  0  0  0  0
   37.2225   11.6885  -16.9314 C   0  0  0  0  0  0  0  0  0  0  0  0
   38.5746   11.8199  -16.7023 C   0  0  0  0  0  0  0  0  0  0  0  0
   38.9711   12.6113  -15.6463 C   0  0  0  0  0  0  0  0  0  0  0  0
   38.0195   13.2407  -14.8597 C   0  0  0  0  0  0  0  0  0  0  0  0
   39.5612   11.1701  -17.5145 C   0  0  0  0  0  0  0  0  0  0  0  0
   40.3731   10.6585  -18.1672 N   0  0  0  0  0  0  0  0  0  0  0  0
  1  2  1  0  0  0
  2  3  1  0  0  0
  3  4  1  0  0  0
  4  5  1  0  0  0
  5  6  1  0  0  0
  6  7  1  0  0  0
  7 18  1  0  0  0
 18 19  2  0  0  0
 19 20  1  0  0  0
 20 21  2  0  0  0
 21 22  1  0  0  0
 22 23  2  0  0  0
 21 24  1  0  0  0
 24 25  3  0  0  0
  4  8  1  0  0  0
  8  9  2  0  0  0
  9 10  1  0  0  0
 10 11  2  0  0  0
 11 12  1  0  0  0
 12 13  2  0  0  0
 13 14  1  0  0  0
 14 15  2  0  0  0
 15 16  1  0  0  0
  7  2  1  0  0  0
 23 18  1  0  0  0
 16  8  1  0  0  0
 15 10  1  0  0  0
 16 17  1  0  0  0
M  END
> <minimizedAffinity>
-7.05899

> <CNNscore>
0.2992954850

> <CNNaffinity>
5.9497208595

> <CNN_VS>
1.7807246447

> <CNNaffinity_variance>
0.4195637107

$$$$
[H]c1c([H])c(N2C([H])([H])C([H])([H])N(c3nc4c([H])c([H])c([H])c([H])c4n3[H])C([H])([H])[C@]2([H])C([H])([H])[H])c([H])c([H])c1C#N


 25 28  0  0  0  0  0  0  0  0999 V2000
   36.0797   12.4072  -12.5667 C   0  0  0  0  0  0  0  0  0  0  0  0
   36.2173   13.6930  -13.3232 C   0  0  0  0  0  0  0  0  0  0  0  0
   35.6919   14.8752  -12.5049 C   0  0  0  0  0  0  0  0  0  0  0  0
   36.4932   14.9145  -11.2919 N   0  0  0  0  0  0  0  0  0  0  0  0
   37.9397   14.9450  -11.3300 C   0  0  0  0  0  0  0  0  0  0  0  0
   38.4712   14.7161  -12.7213 C   0  0  0  0  0  0  0  0  0  0  0  0
   37.6218   13.9292  -13.5547 N   0  0  0  0  0  0  0  0  0  0  0  0
   35.8635   14.9237  -10.0157 C   0  0  0  0  0  0  0  0  0  0  0  0
   36.3163   14.3600   -8.8677 N   0  0  0  0  0  0  0  0  0  0  0  0
   35.4638   14.5647   -7.8526 C   0  0  0  0  0  0  0  0  0  0  0  0
   35.4807   14.1969   -6.5236 C   0  0  0  0  0  0  0  0  0  0  0  0
   34.4373   14.5606   -5.7007 C   0  0  0  0  0  0  0  0  0  0  0  0
   33.3873   15.2928   -6.2307 C   0  0  0  0  0  0  0  0  0  0  0  0
   33.3989   15.6412   -7.5473 C   0  0  0  0  0  0  0  0  0  0  0  0
   34.4266   15.2926   -8.3932 C   0  0  0  0  0  0  0  0  0  0  0  0
   34.6939   15.4936   -9.6949 N   0  0  0  0  0  0  0  0  0  0  0  0
   34.0743   16.0230  -10.3687 H   0  0  0  0  0  0  0  0  0  0  0  0
   38.2051   13.3130  -14.7194 C   0  0  0  0  0  0  0  0  0  0  0  0
   39.5371   13.5307  -15.0563 C   0  0  0  0  0  0  0  0  0  0  0  0
   40.0844   12.9328  -16.1697 C   0  0  0  0  0  0  0  0  0  0  0  0
   39.3559   12.1032  -16.9935 C   0  0  0  0  0  0  0  0  0  0  0  0
   38.0351   11.8794  -16.6708 C   0  0  0  0  0  0  0  0  0  0  0  0
   37.4866   12.4820  -15.5500 C   0  0  0  0  0  0  0  0  0  0  0  0
   39.9208   11.4784  -18.1536 C   0  0  0  0  0  0  0  0  0  0  0  0
   40.3675   10.9848  -19.1043 N   0  0  0  0  0  0  0  0  0  0  0  0
  1  2  1  0  0  0
  2  3  1  0  0  0
  3  4  1  0  0  0
  4  5  1  0  0  0
  5  6  1  0  0  0
  6  7  1  0  0  0
  7 18  1  0  0  0
 18 19  2  0  0  0
 19 20  1  0  0  0
 20 21  2  0  0  0
 21 22  1  0  0  0
 22 23  2  0  0  0
 21 24  1  0  0  0
 24 25  3  0  0  0
  4  8  1  0  0  0
  8  9  2  0  0  0
  9 10  1  0  0  0
 10 11  2  0  0  0
 11 12  1  0  0  0
 12 13  2  0  0  0
 13 14  1  0  0  0
 14 15  2  0  0  0
 15 16  1  0  0  0
  7  2  1  0  0  0
 23 18  1  0  0  0
 16  8  1  0  0  0
 15 10  1  0  0  0
 16 17  1  0  0  0
M  END
> <minimizedAffinity>
-8.04447

> <CNNscore>
0.2812617123

> <CNNaffinity>
5.8012552261

> <CNN_VS>
1.6316709518

> <CNNaffinity_variance>
0.5677367449

$$$$
[H]c1c([H])c(N2C([H])([H])C([H])([H])N(c3nc4c([H])c([H])c([H])c([H])c4n3[H])C([H])([H])[C@]2([H])C([H])([H])[H])c([H])c([H])c1C#N


 25 28  0  0  0  0  0  0  0  0999 V2000
   36.7824   10.5900  -17.8492 C   0  0  0  0  0  0  0  0  0  0  0  0
   36.3047   11.9430  -17.4182 C   0  0  0  0  0  0  0  0  0  0  0  0
   34.8206   12.1343  -17.7409 C   0  0  0  0  0  0  0  0  0  0  0  0
   34.1119   11.0931  -17.0140 N   0  0  0  0  0  0  0  0  0  0  0  0
   34.2860   10.8985  -15.5904 C   0  0  0  0  0  0  0  0  0  0  0  0
   35.4122   11.7357  -15.0414 C   0  0  0  0  0  0  0  0  0  0  0  0
   36.4410   12.0311  -15.9845 N   0  0  0  0  0  0  0  0  0  0  0  0
   33.2144   10.2248  -17.6967 C   0  0  0  0  0  0  0  0  0  0  0  0
   33.1035    8.8794  -17.5607 N   0  0  0  0  0  0  0  0  0  0  0  0
   32.1495    8.3835  -18.3624 C   0  0  0  0  0  0  0  0  0  0  0  0
   31.6744    7.1071  -18.5784 C   0  0  0  0  0  0  0  0  0  0  0  0
   30.6602    6.9001  -19.4876 C   0  0  0  0  0  0  0  0  0  0  0  0
   30.1368    7.9868  -20.1692 C   0  0  0  0  0  0  0  0  0  0  0  0
   30.6267    9.2357  -19.9345 C   0  0  0  0  0  0  0  0  0  0  0  0
   31.6386    9.4733  -19.0328 C   0  0  0  0  0  0  0  0  0  0  0  0
   32.2978   10.5665  -18.6125 N   0  0  0  0  0  0  0  0  0  0  0  0
   32.1211   11.5520  -18.9527 H   0  0  0  0  0  0  0  0  0  0  0  0
   37.7230   12.4461  -15.4740 C   0  0  0  0  0  0  0  0  0  0  0  0
   38.8949   12.1842  -16.1763 C   0  0  0  0  0  0  0  0  0  0  0  0
   40.1140   12.5896  -15.6801 C   0  0  0  0  0  0  0  0  0  0  0  0
   40.2356   13.2630  -14.4845 C   0  0  0  0  0  0  0  0  0  0  0  0
   39.0822   13.5285  -13.7789 C   0  0  0  0  0  0  0  0  0  0  0  0
   37.8567   13.1198  -14.2802 C   0  0  0  0  0  0  0  0  0  0  0  0
   41.5022   13.6871  -13.9636 C   0  0  0  0  0  0  0  0  0  0  0  0
   42.5182   14.0449  -13.5315 N   0  0  0  0  0  0  0  0  0  0  0  0
  1  2  1  0  0  0
  2  3  1  0  0  0
  3  4  1  0  0  0
  4  5  1  0  0  0
  5  6  1  0  0  0
  6  7  1  0  0  0
  7 18  1  0  0  0
 18 19  2  0  0  0
 19 20  1  0  0  0
 20 21  2  0  0  0
 21 22  1  0  0  0
 22 23  2  0  0  0
 21 24  1  0  0  0
 24 25  3  0  0  0
  4  8  1  0  0  0
  8  9  2  0  0  0
  9 10  1  0  0  0
 10 11  2  0  0  0
 11 12  1  0  0  0
 12 13  2  0  0  0
 13 14  1  0  0  0
 14 15  2  0  0  0
 15 16  1  0  0  0
  7  2  1  0  0  0
 23 18  1  0  0  0
 16  8  1  0  0  0
 15 10  1  0  0  0
 16 17  1  0  0  0
M  END
> <minimizedAffinity>
0.36742

> <CNNscore>
0.2627561390

> <CNNaffinity>
6.1123323441

> <CNN_VS>
1.6060528755

> <CNNaffinity_variance>
0.2377553284

$$$$
[H]c1c([H])c(N2C([H])([H])C([H])([H])N(c3nc4c([H])c([H])c([H])c([H])c4n3[H])C([H])([H])[C@]2([H])C([H])([H])[H])c([H])c([H])c1C#N


 25 28  0  0  0  0  0  0  0  0999 V2000
   37.3643   11.7744  -16.1759 C   0  0  0  0  0  0  0  0  0  0  0  0
   36.6196   13.0479  -15.9148 C   0  0  0  0  0  0  0  0  0  0  0  0
   35.1978   12.9828  -16.4782 C   0  0  0  0  0  0  0  0  0  0  0  0
   34.5473   11.8700  -15.8049 N   0  0  0  0  0  0  0  0  0  0  0  0
   34.5114   11.7629  -14.3620 C   0  0  0  0  0  0  0  0  0  0  0  0
   35.3890   12.7930  -13.6990 C   0  0  0  0  0  0  0  0  0  0  0  0
   36.5017   13.2138  -14.4863 N   0  0  0  0  0  0  0  0  0  0  0  0
   33.9194   10.8411  -16.5617 C   0  0  0  0  0  0  0  0  0  0  0  0
   32.8988   10.9725  -17.4459 N   0  0  0  0  0  0  0  0  0  0  0  0
   32.5567    9.7896  -17.9776 C   0  0  0  0  0  0  0  0  0  0  0  0
   31.6021    9.4156  -18.8999 C   0  0  0  0  0  0  0  0  0  0  0  0
   31.4824    8.0913  -19.2607 C   0  0  0  0  0  0  0  0  0  0  0  0
   32.3296    7.1588  -18.6846 C   0  0  0  0  0  0  0  0  0  0  0  0
   33.2627    7.5586  -17.7765 C   0  0  0  0  0  0  0  0  0  0  0  0
   33.4058    8.8734  -17.3968 C   0  0  0  0  0  0  0  0  0  0  0  0
   34.2139    9.5339  -16.5500 N   0  0  0  0  0  0  0  0  0  0  0  0
   34.9712    9.0900  -15.9604 H   0  0  0  0  0  0  0  0  0  0  0  0
   37.6024   13.8514  -13.8092 C   0  0  0  0  0  0  0  0  0  0  0  0
   38.8638   13.9165  -14.3921 C   0  0  0  0  0  0  0  0  0  0  0  0
   39.9070   14.5322  -13.7368 C   0  0  0  0  0  0  0  0  0  0  0  0
   39.7598   15.1055  -12.4929 C   0  0  0  0  0  0  0  0  0  0  0  0
   38.5151   15.0477  -11.9045 C   0  0  0  0  0  0  0  0  0  0  0  0
   37.4670   14.4278  -12.5657 C   0  0  0  0  0  0  0  0  0  0  0  0
   40.8424   15.7476  -11.8066 C   0  0  0  0  0  0  0  0  0  0  0  0
   41.7315   16.2599  -11.2645 N   0  0  0  0  0  0  0  0  0  0  0  0
  1  2  1  0  0  0
  2  3  1  0  0  0
  3  4  1  0  0  0
  4  5  1  0  0  0
  5  6  1  0  0  0
  6  7  1  0  0  0
  7 18  1  0  0  0
 18 19  2  0  0  0
 19 20  1  0  0  0
 20 21  2  0  0  0
 21 22  1  0  0  0
 22 23  2  0  0  0
 21 24  1  0  0  0
 24 25  3  0  0  0
  4  8  1  0  0  0
  8  9  2  0  0  0
  9 10  1  0  0  0
 10 11  2  0  0  0
 11 12  1  0  0  0
 12 13  2  0  0  0
 13 14  1  0  0  0
 14 15  2  0  0  0
 15 16  1  0  0  0
  7  2  1  0  0  0
 23 18  1  0  0  0
 16  8  1  0  0  0
 15 10  1  0  0  0
 16 17  1  0  0  0
M  END
> <minimizedAffinity>
-0.56545

> <CNNscore>
0.2536318302

> <CNNaffinity>
6.0686402321

> <CNN_VS>
1.5392003059

> <CNNaffinity_variance>
0.4525304735

$$$$
[H]c1c([H])c(N2C([H])([H])C([H])([H])N(c3nc4c([H])c([H])c([H])c([H])c4n3[H])C([H])([H])[C@]2([H])C([H])([H])[H])c([H])c([H])c1C#N


 25 28  0  0  0  0  0  0  0  0999 V2000
   44.6613   12.9469  -13.1913 C   0  0  0  0  0  0  0  0  0  0  0  0
   43.2507   13.0591  -12.6993 C   0  0  0  0  0  0  0  0  0  0  0  0
   43.2016   13.6606  -11.2926 C   0  0  0  0  0  0  0  0  0  0  0  0
   43.8071   14.9788  -11.3958 N   0  0  0  0  0  0  0  0  0  0  0  0
   43.3572   15.9546  -12.3654 C   0  0  0  0  0  0  0  0  0  0  0  0
   42.3785   15.3632  -13.3468 C   0  0  0  0  0  0  0  0  0  0  0  0
   42.5420   13.9640  -13.5716 N   0  0  0  0  0  0  0  0  0  0  0  0
   44.8755   15.3477  -10.5310 C   0  0  0  0  0  0  0  0  0  0  0  0
   45.1239   14.8825   -9.2809 N   0  0  0  0  0  0  0  0  0  0  0  0
   46.2194   15.4509   -8.7560 C   0  0  0  0  0  0  0  0  0  0  0  0
   46.8618   15.3090   -7.5440 C   0  0  0  0  0  0  0  0  0  0  0  0
   47.9964   16.0453   -7.2816 C   0  0  0  0  0  0  0  0  0  0  0  0
   48.4696   16.9176   -8.2482 C   0  0  0  0  0  0  0  0  0  0  0  0
   47.8136   17.0361   -9.4359 C   0  0  0  0  0  0  0  0  0  0  0  0
   46.6786   16.3142   -9.7263 C   0  0  0  0  0  0  0  0  0  0  0  0
   45.8511   16.2313  -10.7821 N   0  0  0  0  0  0  0  0  0  0  0  0
   45.9527   16.7810  -11.6797 H   0  0  0  0  0  0  0  0  0  0  0  0
   41.9613   13.4017  -14.7645 C   0  0  0  0  0  0  0  0  0  0  0  0
   41.0284   12.3724  -14.6930 C   0  0  0  0  0  0  0  0  0  0  0  0
   40.4773   11.8459  -15.8401 C   0  0  0  0  0  0  0  0  0  0  0  0
   40.8142   12.3018  -17.0957 C   0  0  0  0  0  0  0  0  0  0  0  0
   41.7375   13.3212  -17.1802 C   0  0  0  0  0  0  0  0  0  0  0  0
   42.2905   13.8494  -16.0247 C   0  0  0  0  0  0  0  0  0  0  0  0
   40.2435   11.7572  -18.2928 C   0  0  0  0  0  0  0  0  0  0  0  0
   39.7977   11.3049  -19.2642 N   0  0  0  0  0  0  0  0  0  0  0  0
  1  2  1  0  0  0
  2  3  1  0  0  0
  3  4  1  0  0  0
  4  5  1  0  0  0
  5  6  1  0  0  0
  6  7  1  0  0  0
  7 18  1  0  0  0
 18 19  2  0  0  0
 19 20  1  0  0  0
 20 21  2  0  0  0
 21 22  1  0  0  0
 22 23  2  0  0  0
 21 24  1  0  0  0
 24 25  3  0  0  0
  4  8  1  0  0  0
  8  9  2  0  0  0
  9 10  1  0  0  0
 10 11  2  0  0  0
 11 12  1  0  0  0
 12 13  2  0  0  0
 13 14  1  0  0  0
 14 15  2  0  0  0
 15 16  1  0  0  0
  7  2  1  0  0  0
 23 18  1  0  0  0
 16  8  1  0  0  0
 15 10  1  0  0  0
 16 17  1  0  0  0
M  END
> <minimizedAffinity>
-1.20538

> <CNNscore>
0.2518193424

> <CNNaffinity>
5.1507897377

> <CNN_VS>
1.2970684767

> <CNNaffinity_variance>
0.7278356552

$$$$
[H]c1c([H])c(N2C([H])([H])C([H])([H])N(c3nc4c([H])c([H])c([H])c([H])c4n3[H])C([H])([H])[C@]2([H])C([H])([H])[H])c([H])c([H])c1C#N


 25 28  0  0  0  0  0  0  0  0999 V2000
   34.9935   14.0171  -14.0973 C   0  0  0  0  0  0  0  0  0  0  0  0
   36.2157   14.8772  -13.9913 C   0  0  0  0  0  0  0  0  0  0  0  0
   36.0682   15.9127  -12.8737 C   0  0  0  0  0  0  0  0  0  0  0  0
   35.8741   15.1572  -11.6463 N   0  0  0  0  0  0  0  0  0  0  0  0
   36.7904   14.1151  -11.2353 C   0  0  0  0  0  0  0  0  0  0  0  0
   37.7929   13.7898  -12.3123 C   0  0  0  0  0  0  0  0  0  0  0  0
   37.3305   14.0312  -13.6401 N   0  0  0  0  0  0  0  0  0  0  0  0
   34.7588   15.4289  -10.8050 C   0  0  0  0  0  0  0  0  0  0  0  0
   34.7806   15.8711   -9.5225 N   0  0  0  0  0  0  0  0  0  0  0  0
   33.5400   16.0189   -9.0347 C   0  0  0  0  0  0  0  0  0  0  0  0
   33.0550   16.4324   -7.8118 C   0  0  0  0  0  0  0  0  0  0  0  0
   31.6949   16.4839   -7.5981 C   0  0  0  0  0  0  0  0  0  0  0  0
   30.8392   16.1165   -8.6238 C   0  0  0  0  0  0  0  0  0  0  0  0
   31.3481   15.7123   -9.8208 C   0  0  0  0  0  0  0  0  0  0  0  0
   32.7011   15.6508  -10.0636 C   0  0  0  0  0  0  0  0  0  0  0  0
   33.4615   15.3009  -11.1151 N   0  0  0  0  0  0  0  0  0  0  0  0
   33.0929   14.9726  -12.0503 H   0  0  0  0  0  0  0  0  0  0  0  0
   38.0222   13.3782  -14.7226 C   0  0  0  0  0  0  0  0  0  0  0  0
   37.3964   12.4002  -15.4888 C   0  0  0  0  0  0  0  0  0  0  0  0
   38.0665   11.7863  -16.5236 C   0  0  0  0  0  0  0  0  0  0  0  0
   39.3674   12.1018  -16.8488 C   0  0  0  0  0  0  0  0  0  0  0  0
   39.9987   13.0690  -16.0974 C   0  0  0  0  0  0  0  0  0  0  0  0
   39.3224   13.6855  -15.0568 C   0  0  0  0  0  0  0  0  0  0  0  0
   40.0694   11.4657  -17.9249 C   0  0  0  0  0  0  0  0  0  0  0  0
   40.6322   10.9329  -18.7888 N   0  0  0  0  0  0  0  0  0  0  0  0
  1  2  1  0  0  0
  2  3  1  0  0  0
  3  4  1  0  0  0
  4  5  1  0  0  0
  5  6  1  0  0  0
  6  7  1  0  0  0
  7 18  1  0  0  0
 18 19  2  0  0  0
 19 20  1  0  0  0
 20 21  2  0  0  0
 21 22  1  0  0  0
 22 23  2  0  0  0
 21 24  1  0  0  0
 24 25  3  0  0  0
  4  8  1  0  0  0
  8  9  2  0  0  0
  9 10  1  0  0  0
 10 11  2  0  0  0
 11 12  1  0  0  0
 12 13  2  0  0  0
 13 14  1  0  0  0
 14 15  2  0  0  0
 15 16  1  0  0  0
  7  2  1  0  0  0
 23 18  1  0  0  0
 16  8  1  0  0  0
 15 10  1  0  0  0
 16 17  1  0  0  0
M  END
> <minimizedAffinity>
-7.04019

> <CNNscore>
0.2472351342

> <CNNaffinity>
5.7914280891

> <CNN_VS>
1.4318444729

> <CNNaffinity_variance>
0.9863659143

$$$$
[H]c1c([H])c([H])c(N([H])S(=O)(=O)c2c([H])c([H])c3c(nc(N4C([H])([H])C([H])([H])N(c5c([H])c([H])c(F)c([H])c5[H])[C@]([H])(C([H])([H])[H])C4([H])[H])n3[H])c2[H])c([H])c1[H]


 35 39  0  0  0  0  0  0  0  0999 V2000
   36.3732   14.8759  -12.3599 C   0  0  0  0  0  0  0  0  0  0  0  0
   36.8846   14.1238  -13.3534 N   0  0  0  0  0  0  0  0  0  0  0  0
   35.8932   13.4734  -13.9827 C   0  0  0  0  0  0  0  0  0  0  0  0
   35.9069   12.6050  -15.0371 C   0  0  0  0  0  0  0  0  0  0  0  0
   34.7159   12.0621  -15.5039 C   0  0  0  0  0  0  0  0  0  0  0  0
   33.5386   12.4183  -14.8835 C   0  0  0  0  0  0  0  0  0  0  0  0
   33.5329   13.3014  -13.8125 C   0  0  0  0  0  0  0  0  0  0  0  0
   34.7047   13.8426  -13.3448 C   0  0  0  0  0  0  0  0  0  0  0  0
   35.0373   14.6964  -12.3632 N   0  0  0  0  0  0  0  0  0  0  0  0
   34.3401   15.1328  -11.7223 H   0  0  0  0  0  0  0  0  0  0  0  0
   36.7313   18.2446   -8.7882 C   0  0  0  0  0  0  0  0  0  0  0  0
   37.3939   17.2841   -9.6948 C   0  0  0  0  0  0  0  0  0  0  0  0
   36.4731   16.7951  -10.8312 C   0  0  0  0  0  0  0  0  0  0  0  0
   37.1480   15.6912  -11.4979 N   0  0  0  0  0  0  0  0  0  0  0  0
   38.5373   15.3995  -11.3235 C   0  0  0  0  0  0  0  0  0  0  0  0
   39.0614   15.5094   -9.9338 C   0  0  0  0  0  0  0  0  0  0  0  0
   38.0099   16.1391   -9.1076 N   0  0  0  0  0  0  0  0  0  0  0  0
   37.7066   15.5447   -7.8570 C   0  0  0  0  0  0  0  0  0  0  0  0
   38.3626   15.8040   -6.6821 C   0  0  0  0  0  0  0  0  0  0  0  0
   38.0201   15.1693   -5.5125 C   0  0  0  0  0  0  0  0  0  0  0  0
   36.9997   14.2457   -5.4795 C   0  0  0  0  0  0  0  0  0  0  0  0
   36.6663   13.6164   -4.3011 F   0  0  0  0  0  0  0  0  0  0  0  0
   36.3207   13.9629   -6.6428 C   0  0  0  0  0  0  0  0  0  0  0  0
   36.6699   14.6048   -7.8179 C   0  0  0  0  0  0  0  0  0  0  0  0
   34.7019   10.9445  -16.8515 S   0  0  0  0  0  0  0  0  0  0  0  0
   33.3057   10.9013  -17.4007 O   0  0  0  0  0  0  0  0  0  0  0  0
   35.0390    9.5500  -16.4120 O   0  0  0  0  0  0  0  0  0  0  0  0
   35.7752   11.5401  -18.0343 N   0  0  0  0  0  0  0  0  0  0  0  0
   35.3800   12.0951  -18.8262 H   0  0  0  0  0  0  0  0  0  0  0  0
   37.1832   11.3190  -17.9972 C   0  0  0  0  0  0  0  0  0  0  0  0
   37.9537   11.5249  -16.8754 C   0  0  0  0  0  0  0  0  0  0  0  0
   39.3065   11.3125  -16.8334 C   0  0  0  0  0  0  0  0  0  0  0  0
   39.9477   10.8680  -17.9694 C   0  0  0  0  0  0  0  0  0  0  0  0
   39.2193   10.6474  -19.1175 C   0  0  0  0  0  0  0  0  0  0  0  0
   37.8394   10.8741  -19.1259 C   0  0  0  0  0  0  0  0  0  0  0  0
 11 12  1  0  0  0
 12 13  1  0  0  0
 13 14  1  0  0  0
 14 15  1  0  0  0
 15 16  1  0  0  0
 16 17  1  0  0  0
 17 18  1  0  0  0
 18 19  2  0  0  0
 19 20  1  0  0  0
 20 21  2  0  0  0
 21 22  1  0  0  0
 21 23  1  0  0  0
 23 24  2  0  0  0
 14  1  1  0  0  0
  1  2  2  0  0  0
  2  3  1  0  0  0
  3  4  2  0  0  0
  4  5  1  0  0  0
  5  6  2  0  0  0
  6  7  1  0  0  0
  7  8  2  0  0  0
  8  9  1  0  0  0
  5 25  1  0  0  0
 25 26  2  0  0  0
 25 27  2  0  0  0
 25 28  1  0  0  0
 28 30  1  0  0  0
 30 31  2  0  0  0
 31 32  1  0  0  0
 32 33  2  0  0  0
 33 34  1  0  0  0
 34 35  2  0  0  0
 17 12  1  0  0  0
 24 18  1  0  0  0
  9  1  1  0  0  0
 35 30  1  0  0  0
  8  3  1  0  0  0
  9 10  1  0  0  0
 28 29  1  0  0  0
M  END
> <minimizedAffinity>
-8.32895

> <CNNscore>
0.2080949098

> <CNNaffinity>
6.4789071083

> <CNN_VS>
1.3482276201

> <CNNaffinity_variance>
0.2019476146

$$$$
[H]c1c([H])c([H])c(N([H])S(=O)(=O)c2c([H])c([H])c3c(nc(N4C([H])([H])C([H])([H])N(c5c([H])c([H])c(F)c([H])c5[H])[C@]([H])(C([H])([H])[H])C4([H])[H])n3[H])c2[H])c([H])c1[H]


 35 39  0  0  0  0  0  0  0  0999 V2000
   42.6696   13.2156  -15.3485 C   0  0  0  0  0  0  0  0  0  0  0  0
   41.5090   13.3658  -14.6817 N   0  0  0  0  0  0  0  0  0  0  0  0
   40.5004   12.8675  -15.4140 C   0  0  0  0  0  0  0  0  0  0  0  0
   39.1586   12.7883  -15.1708 C   0  0  0  0  0  0  0  0  0  0  0  0
   38.3155   12.2133  -16.1141 C   0  0  0  0  0  0  0  0  0  0  0  0
   38.8620   11.7324  -17.2837 C   0  0  0  0  0  0  0  0  0  0  0  0
   40.2266   11.8165  -17.5235 C   0  0  0  0  0  0  0  0  0  0  0  0
   41.0669   12.3830  -16.5974 C   0  0  0  0  0  0  0  0  0  0  0  0
   42.3876   12.6127  -16.5207 N   0  0  0  0  0  0  0  0  0  0  0  0
   43.0599   12.3502  -17.2733 H   0  0  0  0  0  0  0  0  0  0  0  0
   45.5201   14.9614  -11.7346 C   0  0  0  0  0  0  0  0  0  0  0  0
   45.4009   14.4154  -13.1026 C   0  0  0  0  0  0  0  0  0  0  0  0
   43.9490   14.4043  -13.6221 C   0  0  0  0  0  0  0  0  0  0  0  0
   43.9311   13.6341  -14.8570 N   0  0  0  0  0  0  0  0  0  0  0  0
   45.1131   13.2880  -15.5840 C   0  0  0  0  0  0  0  0  0  0  0  0
   46.2817   12.8547  -14.7686 C   0  0  0  0  0  0  0  0  0  0  0  0
   45.9643   13.1286  -13.3512 N   0  0  0  0  0  0  0  0  0  0  0  0
   46.2202   12.1036  -12.4061 C   0  0  0  0  0  0  0  0  0  0  0  0
   45.3041   11.6064  -11.5163 C   0  0  0  0  0  0  0  0  0  0  0  0
   45.6372   10.6234  -10.6157 C   0  0  0  0  0  0  0  0  0  0  0  0
   46.9099   10.1001  -10.5759 C   0  0  0  0  0  0  0  0  0  0  0  0
   47.2312    9.1155   -9.6685 F   0  0  0  0  0  0  0  0  0  0  0  0
   47.8535   10.5778  -11.4567 C   0  0  0  0  0  0  0  0  0  0  0  0
   47.5128   11.5680  -12.3613 C   0  0  0  0  0  0  0  0  0  0  0  0
   36.5914   12.1000  -15.8320 S   0  0  0  0  0  0  0  0  0  0  0  0
   36.1000   10.8375  -16.4780 O   0  0  0  0  0  0  0  0  0  0  0  0
   35.8533   13.2348  -16.4793 O   0  0  0  0  0  0  0  0  0  0  0  0
   36.3421   12.0278  -14.1472 N   0  0  0  0  0  0  0  0  0  0  0  0
   36.6607   11.1742  -13.6363 H   0  0  0  0  0  0  0  0  0  0  0  0
   35.7213   13.0724  -13.4016 C   0  0  0  0  0  0  0  0  0  0  0  0
   36.4149   13.9376  -12.5863 C   0  0  0  0  0  0  0  0  0  0  0  0
   35.8241   14.9441  -11.8689 C   0  0  0  0  0  0  0  0  0  0  0  0
   34.4592   15.1137  -11.9568 C   0  0  0  0  0  0  0  0  0  0  0  0
   33.7212   14.2724  -12.7599 C   0  0  0  0  0  0  0  0  0  0  0  0
   34.3563   13.2550  -13.4791 C   0  0  0  0  0  0  0  0  0  0  0  0
 11 12  1  0  0  0
 12 13  1  0  0  0
 13 14  1  0  0  0
 14 15  1  0  0  0
 15 16  1  0  0  0
 16 17  1  0  0  0
 17 18  1  0  0  0
 18 19  2  0  0  0
 19 20  1  0  0  0
 20 21  2  0  0  0
 21 22  1  0  0  0
 21 23  1  0  0  0
 23 24  2  0  0  0
 14  1  1  0  0  0
  1  2  2  0  0  0
  2  3  1  0  0  0
  3  4  2  0  0  0
  4  5  1  0  0  0
  5  6  2  0  0  0
  6  7  1  0  0  0
  7  8  2  0  0  0
  8  9  1  0  0  0
  5 25  1  0  0  0
 25 26  2  0  0  0
 25 27  2  0  0  0
 25 28  1  0  0  0
 28 30  1  0  0  0
 30 31  2  0  0  0
 31 32  1  0  0  0
 32 33  2  0  0  0
 33 34  1  0  0  0
 34 35  2  0  0  0
 17 12  1  0  0  0
 24 18  1  0  0  0
  9  1  1  0  0  0
 35 30  1  0  0  0
  8  3  1  0  0  0
  9 10  1  0  0  0
 28 29  1  0  0  0
M  END
> <minimizedAffinity>
-8.48381

> <CNNscore>
0.1658464074

> <CNNaffinity>
6.4297342300

> <CNN_VS>
1.0663483143

> <CNNaffinity_variance>
0.0985873193

$$$$
[H]c1c([H])c([H])c(N([H])S(=O)(=O)c2c([H])c([H])c3c(nc(N4C([H])([H])C([H])([H])N(c5c([H])c([H])c(F)c([H])c5[H])[C@]([H])(C([H])([H])[H])C4([H])[H])n3[H])c2[H])c([H])c1[H]


 35 39  0  0  0  0  0  0  0  0999 V2000
   43.7870   13.6663  -14.6812 C   0  0  0  0  0  0  0  0  0  0  0  0
   42.8230   13.9291  -13.7780 N   0  0  0  0  0  0  0  0  0  0  0  0
   41.6223   13.6360  -14.3018 C   0  0  0  0  0  0  0  0  0  0  0  0
   40.3618   13.7303  -13.7841 C   0  0  0  0  0  0  0  0  0  0  0  0
   39.2665   13.3539  -14.5523 C   0  0  0  0  0  0  0  0  0  0  0  0
   39.4838   12.8900  -15.8311 C   0  0  0  0  0  0  0  0  0  0  0  0
   40.7679   12.7970  -16.3501 C   0  0  0  0  0  0  0  0  0  0  0  0
   41.8555   13.1667  -15.5985 C   0  0  0  0  0  0  0  0  0  0  0  0
   43.1838   13.1998  -15.7927 N   0  0  0  0  0  0  0  0  0  0  0  0
   43.6408   12.9020  -16.6814 H   0  0  0  0  0  0  0  0  0  0  0  0
   47.5197   14.9773  -11.7518 C   0  0  0  0  0  0  0  0  0  0  0  0
   47.0549   14.4184  -13.0384 C   0  0  0  0  0  0  0  0  0  0  0  0
   45.5522   14.6562  -13.2903 C   0  0  0  0  0  0  0  0  0  0  0  0
   45.1712   13.8628  -14.4495 N   0  0  0  0  0  0  0  0  0  0  0  0
   46.1187   13.2832  -15.3506 C   0  0  0  0  0  0  0  0  0  0  0  0
   47.3253   12.6702  -14.7288 C   0  0  0  0  0  0  0  0  0  0  0  0
   47.3299   13.0430  -13.2986 N   0  0  0  0  0  0  0  0  0  0  0  0
   47.5752   12.0195  -12.3490 C   0  0  0  0  0  0  0  0  0  0  0  0
   48.8096   11.6753  -11.8634 C   0  0  0  0  0  0  0  0  0  0  0  0
   48.9662   10.6547  -10.9568 C   0  0  0  0  0  0  0  0  0  0  0  0
   47.8824    9.9384  -10.5013 C   0  0  0  0  0  0  0  0  0  0  0  0
   48.0526    8.9177   -9.5929 F   0  0  0  0  0  0  0  0  0  0  0  0
   46.6285   10.2595  -10.9694 C   0  0  0  0  0  0  0  0  0  0  0  0
   46.4765   11.2880  -11.8826 C   0  0  0  0  0  0  0  0  0  0  0  0
   37.6389   13.4660  -13.9172 S   0  0  0  0  0  0  0  0  0  0  0  0
   37.5534   14.7114  -13.0840 O   0  0  0  0  0  0  0  0  0  0  0  0
   37.3230   12.3136  -13.0096 O   0  0  0  0  0  0  0  0  0  0  0  0
   36.5692   13.5752  -15.2400 N   0  0  0  0  0  0  0  0  0  0  0  0
   36.5379   14.4700  -15.7781 H   0  0  0  0  0  0  0  0  0  0  0  0
   35.7162   12.5082  -15.6480 C   0  0  0  0  0  0  0  0  0  0  0  0
   34.4616   12.2971  -15.1227 C   0  0  0  0  0  0  0  0  0  0  0  0
   33.6371   11.2747  -15.5120 C   0  0  0  0  0  0  0  0  0  0  0  0
   34.0728   10.3990  -16.4830 C   0  0  0  0  0  0  0  0  0  0  0  0
   35.3214   10.5688  -17.0391 C   0  0  0  0  0  0  0  0  0  0  0  0
   36.1379   11.6235  -16.6186 C   0  0  0  0  0  0  0  0  0  0  0  0
 11 12  1  0  0  0
 12 13  1  0  0  0
 13 14  1  0  0  0
 14 15  1  0  0  0
 15 16  1  0  0  0
 16 17  1  0  0  0
 17 18  1  0  0  0
 18 19  2  0  0  0
 19 20  1  0  0  0
 20 21  2  0  0  0
 21 22  1  0  0  0
 21 23  1  0  0  0
 23 24  2  0  0  0
 14  1  1  0  0  0
  1  2  2  0  0  0
  2  3  1  0  0  0
  3  4  2  0  0  0
  4  5  1  0  0  0
  5  6  2  0  0  0
  6  7  1  0  0  0
  7  8  2  0  0  0
  8  9  1  0  0  0
  5 25  1  0  0  0
 25 26  2  0  0  0
 25 27  2  0  0  0
 25 28  1  0  0  0
 28 30  1  0  0  0
 30 31  2  0  0  0
 31 32  1  0  0  0
 32 33  2  0  0  0
 33 34  1  0  0  0
 34 35  2  0  0  0
 17 12  1  0  0  0
 24 18  1  0  0  0
  9  1  1  0  0  0
 35 30  1  0  0  0
  8  3  1  0  0  0
  9 10  1  0  0  0
 28 29  1  0  0  0
M  END
> <minimizedAffinity>
-8.56095

> <CNNscore>
0.1539522558

> <CNNaffinity>
6.3384618759

> <CNN_VS>
0.9758204818

> <CNNaffinity_variance>
0.0676972345

$$$$
[H]c1c([H])c([H])c(N([H])S(=O)(=O)c2c([H])c([H])c3c(nc(N4C([H])([H])C([H])([H])N(c5c([H])c([H])c(F)c([H])c5[H])[C@]([H])(C([H])([H])[H])C4([H])[H])n3[H])c2[H])c([H])c1[H]


 35 39  0  0  0  0  0  0  0  0999 V2000
   38.5222   14.9667  -11.8527 C   0  0  0  0  0  0  0  0  0  0  0  0
   37.8678   13.9877  -12.5066 N   0  0  0  0  0  0  0  0  0  0  0  0
   38.5170   13.6930  -13.6440 C   0  0  0  0  0  0  0  0  0  0  0  0
   38.2502   12.7850  -14.6290 C   0  0  0  0  0  0  0  0  0  0  0  0
   39.1001   12.6792  -15.7235 C   0  0  0  0  0  0  0  0  0  0  0  0
   40.2026   13.5028  -15.7867 C   0  0  0  0  0  0  0  0  0  0  0  0
   40.4669   14.4231  -14.7817 C   0  0  0  0  0  0  0  0  0  0  0  0
   39.6328   14.5345  -13.6970 C   0  0  0  0  0  0  0  0  0  0  0  0
   39.6017   15.2945  -12.5904 N   0  0  0  0  0  0  0  0  0  0  0  0
   40.3208   16.0169  -12.3707 H   0  0  0  0  0  0  0  0  0  0  0  0
   36.0216   14.6442   -7.6247 C   0  0  0  0  0  0  0  0  0  0  0  0
   36.9629   15.3895   -8.4862 C   0  0  0  0  0  0  0  0  0  0  0  0
   36.9851   14.8749   -9.9398 C   0  0  0  0  0  0  0  0  0  0  0  0
   38.1053   15.5144  -10.6141 N   0  0  0  0  0  0  0  0  0  0  0  0
   38.7916   16.6540  -10.0888 C   0  0  0  0  0  0  0  0  0  0  0  0
   39.0617   16.6397   -8.6241 C   0  0  0  0  0  0  0  0  0  0  0  0
   38.3138   15.5053   -8.0424 N   0  0  0  0  0  0  0  0  0  0  0  0
   39.0011   14.6509   -7.1440 C   0  0  0  0  0  0  0  0  0  0  0  0
   38.9738   14.7588   -5.7781 C   0  0  0  0  0  0  0  0  0  0  0  0
   39.6858   13.9007   -4.9751 C   0  0  0  0  0  0  0  0  0  0  0  0
   40.4554   12.8964   -5.5174 C   0  0  0  0  0  0  0  0  0  0  0  0
   41.1645   12.0431   -4.7018 F   0  0  0  0  0  0  0  0  0  0  0  0
   40.5039   12.7610   -6.8862 C   0  0  0  0  0  0  0  0  0  0  0  0
   39.7853   13.6280   -7.6903 C   0  0  0  0  0  0  0  0  0  0  0  0
   38.7830   11.5269  -17.0028 S   0  0  0  0  0  0  0  0  0  0  0  0
   38.8285   10.1505  -16.4059 O   0  0  0  0  0  0  0  0  0  0  0  0
   39.8447   11.5762  -18.0620 O   0  0  0  0  0  0  0  0  0  0  0  0
   37.2247   11.8446  -17.6166 N   0  0  0  0  0  0  0  0  0  0  0  0
   37.1453   12.2806  -18.5626 H   0  0  0  0  0  0  0  0  0  0  0  0
   36.0262   11.5458  -16.9047 C   0  0  0  0  0  0  0  0  0  0  0  0
   35.2874   10.4028  -17.1098 C   0  0  0  0  0  0  0  0  0  0  0  0
   34.1361   10.1096  -16.4276 C   0  0  0  0  0  0  0  0  0  0  0  0
   33.6778   10.9984  -15.4793 C   0  0  0  0  0  0  0  0  0  0  0  0
   34.3828   12.1569  -15.2380 C   0  0  0  0  0  0  0  0  0  0  0  0
   35.5547   12.4252  -15.9524 C   0  0  0  0  0  0  0  0  0  0  0  0
 11 12  1  0  0  0
 12 13  1  0  0  0
 13 14  1  0  0  0
 14 15  1  0  0  0
 15 16  1  0  0  0
 16 17  1  0  0  0
 17 18  1  0  0  0
 18 19  2  0  0  0
 19 20  1  0  0  0
 20 21  2  0  0  0
 21 22  1  0  0  0
 21 23  1  0  0  0
 23 24  2  0  0  0
 14  1  1  0  0  0
  1  2  2  0  0  0
  2  3  1  0  0  0
  3  4  2  0  0  0
  4  5  1  0  0  0
  5  6  2  0  0  0
  6  7  1  0  0  0
  7  8  2  0  0  0
  8  9  1  0  0  0
  5 25  1  0  0  0
 25 26  2  0  0  0
 25 27  2  0  0  0
 25 28  1  0  0  0
 28 30  1  0  0  0
 30 31  2  0  0  0
 31 32  1  0  0  0
 32 33  2  0  0  0
 33 34  1  0  0  0
 34 35  2  0  0  0
 17 12  1  0  0  0
 24 18  1  0  0  0
  9  1  1  0  0  0
 35 30  1  0  0  0
  8  3  1  0  0  0
  9 10  1  0  0  0
 28 29  1  0  0  0
M  END
> <minimizedAffinity>
-7.70198

> <CNNscore>
0.1280113906

> <CNNaffinity>
6.3002099991

> <CNN_VS>
0.8064986467

> <CNNaffinity_variance>
0.0964175910

$$$$
[H]c1c([H])c([H])c(N([H])S(=O)(=O)c2c([H])c([H])c3c(nc(N4C([H])([H])C([H])([H])N(c5c([H])c([H])c(F)c([H])c5[H])[C@]([H])(C([H])([H])[H])C4([H])[H])n3[H])c2[H])c([H])c1[H]


 35 39  0  0  0  0  0  0  0  0999 V2000
   43.9415   13.2838  -14.5152 C   0  0  0  0  0  0  0  0  0  0  0  0
   42.9477   13.6145  -13.6684 N   0  0  0  0  0  0  0  0  0  0  0  0
   41.7628   13.4493  -14.2773 C   0  0  0  0  0  0  0  0  0  0  0  0
   40.4846   13.6497  -13.8394 C   0  0  0  0  0  0  0  0  0  0  0  0
   39.4131   13.3977  -14.6878 C   0  0  0  0  0  0  0  0  0  0  0  0
   39.6717   12.9468  -15.9636 C   0  0  0  0  0  0  0  0  0  0  0  0
   40.9735   12.7455  -16.4013 C   0  0  0  0  0  0  0  0  0  0  0  0
   42.0379   12.9920  -15.5701 C   0  0  0  0  0  0  0  0  0  0  0  0
   43.3735   12.9041  -15.6772 N   0  0  0  0  0  0  0  0  0  0  0  0
   43.8595   12.5862  -16.5433 H   0  0  0  0  0  0  0  0  0  0  0  0
   48.5564   14.6546  -15.5436 C   0  0  0  0  0  0  0  0  0  0  0  0
   47.5945   14.0541  -14.5961 C   0  0  0  0  0  0  0  0  0  0  0  0
   46.2477   13.6916  -15.2540 C   0  0  0  0  0  0  0  0  0  0  0  0
   45.3192   13.3427  -14.1888 N   0  0  0  0  0  0  0  0  0  0  0  0
   45.7315   13.0605  -12.8486 C   0  0  0  0  0  0  0  0  0  0  0  0
   46.7902   13.9453  -12.2878 C   0  0  0  0  0  0  0  0  0  0  0  0
   47.3155   14.7716  -13.3950 N   0  0  0  0  0  0  0  0  0  0  0  0
   47.4628   16.1633  -13.1696 C   0  0  0  0  0  0  0  0  0  0  0  0
   48.5451   16.7540  -12.5713 C   0  0  0  0  0  0  0  0  0  0  0  0
   48.6030   18.1121  -12.3707 C   0  0  0  0  0  0  0  0  0  0  0  0
   47.5703   18.9319  -12.7665 C   0  0  0  0  0  0  0  0  0  0  0  0
   47.6404   20.2915  -12.5597 F   0  0  0  0  0  0  0  0  0  0  0  0
   46.4689   18.3698  -13.3708 C   0  0  0  0  0  0  0  0  0  0  0  0
   46.4155   17.0015  -13.5701 C   0  0  0  0  0  0  0  0  0  0  0  0
   37.7640   13.6476  -14.1559 S   0  0  0  0  0  0  0  0  0  0  0  0
   37.6870   15.0012  -13.5120 O   0  0  0  0  0  0  0  0  0  0  0  0
   37.3662   12.6466  -13.1113 O   0  0  0  0  0  0  0  0  0  0  0  0
   36.7589   13.5988  -15.5319 N   0  0  0  0  0  0  0  0  0  0  0  0
   36.7704   14.4165  -16.1819 H   0  0  0  0  0  0  0  0  0  0  0  0
   35.9046   12.4997  -15.8395 C   0  0  0  0  0  0  0  0  0  0  0  0
   34.6412   12.3511  -15.3141 C   0  0  0  0  0  0  0  0  0  0  0  0
   33.8154   11.2981  -15.6073 C   0  0  0  0  0  0  0  0  0  0  0  0
   34.2590   10.3238  -16.4752 C   0  0  0  0  0  0  0  0  0  0  0  0
   35.5167   10.4281  -17.0271 C   0  0  0  0  0  0  0  0  0  0  0  0
   36.3342   11.5165  -16.7064 C   0  0  0  0  0  0  0  0  0  0  0  0
 11 12  1  0  0  0
 12 13  1  0  0  0
 13 14  1  0  0  0
 14 15  1  0  0  0
 15 16  1  0  0  0
 16 17  1  0  0  0
 17 18  1  0  0  0
 18 19  2  0  0  0
 19 20  1  0  0  0
 20 21  2  0  0  0
 21 22  1  0  0  0
 21 23  1  0  0  0
 23 24  2  0  0  0
 14  1  1  0  0  0
  1  2  2  0  0  0
  2  3  1  0  0  0
  3  4  2  0  0  0
  4  5  1  0  0  0
  5  6  2  0  0  0
  6  7  1  0  0  0
  7  8  2  0  0  0
  8  9  1  0  0  0
  5 25  1  0  0  0
 25 26  2  0  0  0
 25 27  2  0  0  0
 25 28  1  0  0  0
 28 30  1  0  0  0
 30 31  2  0  0  0
 31 32  1  0  0  0
 32 33  2  0  0  0
 33 34  1  0  0  0
 34 35  2  0  0  0
 17 12  1  0  0  0
 24 18  1  0  0  0
  9  1  1  0  0  0
 35 30  1  0  0  0
  8  3  1  0  0  0
  9 10  1  0  0  0
 28 29  1  0  0  0
M  END
> <minimizedAffinity>
-7.77549

> <CNNscore>
0.1269117892

> <CNNaffinity>
6.3436975479

> <CNN_VS>
0.8050900102

> <CNNaffinity_variance>
0.0708406195

$$$$
[H]c1c([H])c([H])c(N([H])S(=O)(=O)c2c([H])c([H])c3c(nc(N4C([H])([H])C([H])([H])N(c5c([H])c([H])c(F)c([H])c5[H])[C@]([H])(C([H])([H])[H])C4([H])[H])n3[H])c2[H])c([H])c1[H]


 35 39  0  0  0  0  0  0  0  0999 V2000
   40.0115   13.3707  -14.5916 C   0  0  0  0  0  0  0  0  0  0  0  0
   41.1311   13.6790  -13.9092 N   0  0  0  0  0  0  0  0  0  0  0  0
   42.2088   13.3599  -14.6431 C   0  0  0  0  0  0  0  0  0  0  0  0
   43.5453   13.4799  -14.3879 C   0  0  0  0  0  0  0  0  0  0  0  0
   44.4726   13.0648  -15.3361 C   0  0  0  0  0  0  0  0  0  0  0  0
   44.0137   12.5368  -16.5229 C   0  0  0  0  0  0  0  0  0  0  0  0
   42.6538   12.4180  -16.7749 C   0  0  0  0  0  0  0  0  0  0  0  0
   41.7308   12.8254  -15.8439 C   0  0  0  0  0  0  0  0  0  0  0  0
   40.3900   12.8484  -15.7752 N   0  0  0  0  0  0  0  0  0  0  0  0
   39.7707   12.5058  -16.5411 H   0  0  0  0  0  0  0  0  0  0  0  0
   35.4718   15.2058  -15.0984 C   0  0  0  0  0  0  0  0  0  0  0  0
   36.4288   14.3888  -14.3236 C   0  0  0  0  0  0  0  0  0  0  0  0
   37.8927   14.6005  -14.7602 C   0  0  0  0  0  0  0  0  0  0  0  0
   38.6977   13.5808  -14.1040 N   0  0  0  0  0  0  0  0  0  0  0  0
   38.2272   12.7952  -13.0053 C   0  0  0  0  0  0  0  0  0  0  0  0
   36.8238   12.3058  -13.1021 C   0  0  0  0  0  0  0  0  0  0  0  0
   36.1921   12.9837  -14.2536 N   0  0  0  0  0  0  0  0  0  0  0  0
   35.4536   12.1886  -15.1656 C   0  0  0  0  0  0  0  0  0  0  0  0
   35.9198   11.7357  -16.3721 C   0  0  0  0  0  0  0  0  0  0  0  0
   35.1321   10.9843  -17.2107 C   0  0  0  0  0  0  0  0  0  0  0  0
   33.8399   10.6576  -16.8661 C   0  0  0  0  0  0  0  0  0  0  0  0
   33.0608    9.9042  -17.7153 F   0  0  0  0  0  0  0  0  0  0  0  0
   33.3417   11.0969  -15.6607 C   0  0  0  0  0  0  0  0  0  0  0  0
   34.1390   11.8536  -14.8201 C   0  0  0  0  0  0  0  0  0  0  0  0
   46.1919   13.2036  -15.0366 S   0  0  0  0  0  0  0  0  0  0  0  0
   46.9144   12.6509  -16.2304 O   0  0  0  0  0  0  0  0  0  0  0  0
   46.6117   12.3797  -13.8549 O   0  0  0  0  0  0  0  0  0  0  0  0
   46.5569   14.8582  -14.8491 N   0  0  0  0  0  0  0  0  0  0  0  0
   47.1834   15.3092  -15.5528 H   0  0  0  0  0  0  0  0  0  0  0  0
   46.0507   15.6561  -13.7815 C   0  0  0  0  0  0  0  0  0  0  0  0
   46.2226   15.3418  -12.4526 C   0  0  0  0  0  0  0  0  0  0  0  0
   45.7400   16.1055  -11.4227 C   0  0  0  0  0  0  0  0  0  0  0  0
   45.0408   17.2562  -11.7160 C   0  0  0  0  0  0  0  0  0  0  0  0
   44.8425   17.6131  -13.0316 C   0  0  0  0  0  0  0  0  0  0  0  0
   45.3489   16.8107  -14.0589 C   0  0  0  0  0  0  0  0  0  0  0  0
 11 12  1  0  0  0
 12 13  1  0  0  0
 13 14  1  0  0  0
 14 15  1  0  0  0
 15 16  1  0  0  0
 16 17  1  0  0  0
 17 18  1  0  0  0
 18 19  2  0  0  0
 19 20  1  0  0  0
 20 21  2  0  0  0
 21 22  1  0  0  0
 21 23  1  0  0  0
 23 24  2  0  0  0
 14  1  1  0  0  0
  1  2  2  0  0  0
  2  3  1  0  0  0
  3  4  2  0  0  0
  4  5  1  0  0  0
  5  6  2  0  0  0
  6  7  1  0  0  0
  7  8  2  0  0  0
  8  9  1  0  0  0
  5 25  1  0  0  0
 25 26  2  0  0  0
 25 27  2  0  0  0
 25 28  1  0  0  0
 28 30  1  0  0  0
 30 31  2  0  0  0
 31 32  1  0  0  0
 32 33  2  0  0  0
 33 34  1  0  0  0
 34 35  2  0  0  0
 17 12  1  0  0  0
 24 18  1  0  0  0
  9  1  1  0  0  0
 35 30  1  0  0  0
  8  3  1  0  0  0
  9 10  1  0  0  0
 28 29  1  0  0  0
M  END
> <minimizedAffinity>
-7.56778

> <CNNscore>
0.1164750829

> <CNNaffinity>
6.8255872726

> <CNN_VS>
0.7950108647

> <CNNaffinity_variance>
0.0762371570

$$$$
[H]c1c([H])c([H])c(N([H])S(=O)(=O)c2c([H])c([H])c3c(nc(N4C([H])([H])C([H])([H])N(c5c([H])c([H])c(F)c([H])c5[H])[C@]([H])(C([H])([H])[H])C4([H])[H])n3[H])c2[H])c([H])c1[H]


 35 39  0  0  0  0  0  0  0  0999 V2000
   43.4719   14.3037  -12.3446 C   0  0  0  0  0  0  0  0  0  0  0  0
   43.6477   13.5205  -13.4262 N   0  0  0  0  0  0  0  0  0  0  0  0
   42.5322   13.5259  -14.1728 C   0  0  0  0  0  0  0  0  0  0  0  0
   42.2251   12.8961  -15.3455 C   0  0  0  0  0  0  0  0  0  0  0  0
   40.9725   13.0736  -15.9208 C   0  0  0  0  0  0  0  0  0  0  0  0
   40.0626   13.8899  -15.2854 C   0  0  0  0  0  0  0  0  0  0  0  0
   40.3822   14.5264  -14.0939 C   0  0  0  0  0  0  0  0  0  0  0  0
   41.6170   14.3568  -13.5186 C   0  0  0  0  0  0  0  0  0  0  0  0
   42.2249   14.8111  -12.4107 N   0  0  0  0  0  0  0  0  0  0  0  0
   41.7688   15.4563  -11.7302 H   0  0  0  0  0  0  0  0  0  0  0  0
   45.1317   13.7698   -7.7409 C   0  0  0  0  0  0  0  0  0  0  0  0
   45.3648   14.2270   -9.1267 C   0  0  0  0  0  0  0  0  0  0  0  0
   44.0711   14.2975   -9.9631 C   0  0  0  0  0  0  0  0  0  0  0  0
   44.4567   14.5201  -11.3489 N   0  0  0  0  0  0  0  0  0  0  0  0
   45.7656   14.9420  -11.7420 C   0  0  0  0  0  0  0  0  0  0  0  0
   46.9040   14.3003  -11.0274 C   0  0  0  0  0  0  0  0  0  0  0  0
   46.3453   13.5318   -9.8951 N   0  0  0  0  0  0  0  0  0  0  0  0
   46.8073   12.2054   -9.7039 C   0  0  0  0  0  0  0  0  0  0  0  0
   46.0584   11.0747   -9.9002 C   0  0  0  0  0  0  0  0  0  0  0  0
   46.5751    9.8219   -9.6728 C   0  0  0  0  0  0  0  0  0  0  0  0
   47.8709    9.6577   -9.2379 C   0  0  0  0  0  0  0  0  0  0  0  0
   48.3770    8.3969   -9.0135 F   0  0  0  0  0  0  0  0  0  0  0  0
   48.6498   10.7735   -9.0314 C   0  0  0  0  0  0  0  0  0  0  0  0
   48.1243   12.0328   -9.2616 C   0  0  0  0  0  0  0  0  0  0  0  0
   40.5490   12.2777  -17.4215 S   0  0  0  0  0  0  0  0  0  0  0  0
   41.8039   11.6988  -18.0069 O   0  0  0  0  0  0  0  0  0  0  0  0
   40.0101   13.2525  -18.4270 O   0  0  0  0  0  0  0  0  0  0  0  0
   39.4463   11.0299  -17.0571 N   0  0  0  0  0  0  0  0  0  0  0  0
   39.8030   10.0486  -17.0246 H   0  0  0  0  0  0  0  0  0  0  0  0
   38.0636   11.2579  -16.7951 C   0  0  0  0  0  0  0  0  0  0  0  0
   37.6005   11.8917  -15.6644 C   0  0  0  0  0  0  0  0  0  0  0  0
   36.2734   12.1151  -15.4082 C   0  0  0  0  0  0  0  0  0  0  0  0
   35.3360   11.6875  -16.3234 C   0  0  0  0  0  0  0  0  0  0  0  0
   35.7503   11.0478  -17.4708 C   0  0  0  0  0  0  0  0  0  0  0  0
   37.1132   10.8360  -17.7014 C   0  0  0  0  0  0  0  0  0  0  0  0
 11 12  1  0  0  0
 12 13  1  0  0  0
 13 14  1  0  0  0
 14 15  1  0  0  0
 15 16  1  0  0  0
 16 17  1  0  0  0
 17 18  1  0  0  0
 18 19  2  0  0  0
 19 20  1  0  0  0
 20 21  2  0  0  0
 21 22  1  0  0  0
 21 23  1  0  0  0
 23 24  2  0  0  0
 14  1  1  0  0  0
  1  2  2  0  0  0
  2  3  1  0  0  0
  3  4  2  0  0  0
  4  5  1  0  0  0
  5  6  2  0  0  0
  6  7  1  0  0  0
  7  8  2  0  0  0
  8  9  1  0  0  0
  5 25  1  0  0  0
 25 26  2  0  0  0
 25 27  2  0  0  0
 25 28  1  0  0  0
 28 30  1  0  0  0
 30 31  2  0  0  0
 31 32  1  0  0  0
 32 33  2  0  0  0
 33 34  1  0  0  0
 34 35  2  0  0  0
 17 12  1  0  0  0
 24 18  1  0  0  0
  9  1  1  0  0  0
 35 30  1  0  0  0
  8  3  1  0  0  0
  9 10  1  0  0  0
 28 29  1  0  0  0
M  END
> <minimizedAffinity>
-8.37613

> <CNNscore>
0.1141391248

> <CNNaffinity>
5.8788633347

> <CNN_VS>
0.6710082889

> <CNNaffinity_variance>
0.2098332196

$$$$
[H]c1c([H])c([H])c(N([H])S(=O)(=O)c2c([H])c([H])c3c(nc(N4C([H])([H])C([H])([H])N(c5c([H])c([H])c(F)c([H])c5[H])[C@]([H])(C([H])([H])[H])C4([H])[H])n3[H])c2[H])c([H])c1[H]


 35 39  0  0  0  0  0  0  0  0999 V2000
   35.2251   15.2551  -11.7007 C   0  0  0  0  0  0  0  0  0  0  0  0
   36.1637   14.6642  -12.4650 N   0  0  0  0  0  0  0  0  0  0  0  0
   35.5723   13.8763  -13.3768 C   0  0  0  0  0  0  0  0  0  0  0  0
   36.0914   13.0826  -14.3599 C   0  0  0  0  0  0  0  0  0  0  0  0
   35.2420   12.3546  -15.1844 C   0  0  0  0  0  0  0  0  0  0  0  0
   33.8823   12.4538  -14.9860 C   0  0  0  0  0  0  0  0  0  0  0  0
   33.3624   13.2626  -13.9847 C   0  0  0  0  0  0  0  0  0  0  0  0
   34.1941   13.9852  -13.1656 C   0  0  0  0  0  0  0  0  0  0  0  0
   34.0222   14.8324  -12.1381 N   0  0  0  0  0  0  0  0  0  0  0  0
   33.0856   15.0979  -11.7644 H   0  0  0  0  0  0  0  0  0  0  0  0
   34.6677   16.7258   -7.0360 C   0  0  0  0  0  0  0  0  0  0  0  0
   35.3400   16.8837   -8.3424 C   0  0  0  0  0  0  0  0  0  0  0  0
   34.6327   16.1194   -9.4798 C   0  0  0  0  0  0  0  0  0  0  0  0
   35.5091   16.1525  -10.6414 N   0  0  0  0  0  0  0  0  0  0  0  0
   36.6259   17.0383  -10.7578 C   0  0  0  0  0  0  0  0  0  0  0  0
   37.4523   17.2169   -9.5316 C   0  0  0  0  0  0  0  0  0  0  0  0
   36.7320   16.5786   -8.4098 N   0  0  0  0  0  0  0  0  0  0  0  0
   37.4695   15.7280   -7.5485 C   0  0  0  0  0  0  0  0  0  0  0  0
   37.4295   14.3583   -7.5709 C   0  0  0  0  0  0  0  0  0  0  0  0
   38.1615   13.6034   -6.6864 C   0  0  0  0  0  0  0  0  0  0  0  0
   38.9659   14.1997   -5.7417 C   0  0  0  0  0  0  0  0  0  0  0  0
   39.6945   13.4320   -4.8609 F   0  0  0  0  0  0  0  0  0  0  0  0
   39.0286   15.5738   -5.6931 C   0  0  0  0  0  0  0  0  0  0  0  0
   38.2890   16.3293   -6.5860 C   0  0  0  0  0  0  0  0  0  0  0  0
   35.8777   11.3268  -16.4511 S   0  0  0  0  0  0  0  0  0  0  0  0
   35.8674   12.1114  -17.7306 O   0  0  0  0  0  0  0  0  0  0  0  0
   35.0072   10.1247  -16.6717 O   0  0  0  0  0  0  0  0  0  0  0  0
   37.4781   10.9137  -16.0338 N   0  0  0  0  0  0  0  0  0  0  0  0
   37.6264   10.2429  -15.2469 H   0  0  0  0  0  0  0  0  0  0  0  0
   38.6225   11.4373  -16.7037 C   0  0  0  0  0  0  0  0  0  0  0  0
   39.0841   10.9536  -17.9067 C   0  0  0  0  0  0  0  0  0  0  0  0
   40.1820   11.4537  -18.5558 C   0  0  0  0  0  0  0  0  0  0  0  0
   40.8749   12.4998  -17.9859 C   0  0  0  0  0  0  0  0  0  0  0  0
   40.4517   13.0184  -16.7820 C   0  0  0  0  0  0  0  0  0  0  0  0
   39.3265   12.4842  -16.1461 C   0  0  0  0  0  0  0  0  0  0  0  0
 11 12  1  0  0  0
 12 13  1  0  0  0
 13 14  1  0  0  0
 14 15  1  0  0  0
 15 16  1  0  0  0
 16 17  1  0  0  0
 17 18  1  0  0  0
 18 19  2  0  0  0
 19 20  1  0  0  0
 20 21  2  0  0  0
 21 22  1  0  0  0
 21 23  1  0  0  0
 23 24  2  0  0  0
 14  1  1  0  0  0
  1  2  2  0  0  0
  2  3  1  0  0  0
  3  4  2  0  0  0
  4  5  1  0  0  0
  5  6  2  0  0  0
  6  7  1  0  0  0
  7  8  2  0  0  0
  8  9  1  0  0  0
  5 25  1  0  0  0
 25 26  2  0  0  0
 25 27  2  0  0  0
 25 28  1  0  0  0
 28 30  1  0  0  0
 30 31  2  0  0  0
 31 32  1  0  0  0
 32 33  2  0  0  0
 33 34  1  0  0  0
 34 35  2  0  0  0
 17 12  1  0  0  0
 24 18  1  0  0  0
  9  1  1  0  0  0
 35 30  1  0  0  0
  8  3  1  0  0  0
  9 10  1  0  0  0
 28 29  1  0  0  0
M  END
> <minimizedAffinity>
-8.81814

> <CNNscore>
0.1105174050

> <CNNaffinity>
6.1972327232

> <CNN_VS>
0.6849020720

> <CNNaffinity_variance>
0.2492838204

$$$$
[H]c1c([H])c([H])c(N([H])S(=O)(=O)c2c([H])c([H])c3c(nc(N4C([H])([H])C([H])([H])N(c5c([H])c([H])c(F)c([H])c5[H])[C@]([H])(C([H])([H])[H])C4([H])[H])n3[H])c2[H])c([H])c1[H]


 35 39  0  0  0  0  0  0  0  0999 V2000
   42.4435   13.5406  -14.7719 C   0  0  0  0  0  0  0  0  0  0  0  0
   41.4572   13.9612  -13.9568 N   0  0  0  0  0  0  0  0  0  0  0  0
   40.2746   13.5233  -14.4167 C   0  0  0  0  0  0  0  0  0  0  0  0
   39.0032   13.6867  -13.9445 C   0  0  0  0  0  0  0  0  0  0  0  0
   37.9325   13.1180  -14.6239 C   0  0  0  0  0  0  0  0  0  0  0  0
   38.1848   12.3959  -15.7696 C   0  0  0  0  0  0  0  0  0  0  0  0
   39.4795   12.2344  -16.2433 C   0  0  0  0  0  0  0  0  0  0  0  0
   40.5431   12.7926  -15.5785 C   0  0  0  0  0  0  0  0  0  0  0  0
   41.8729   12.8257  -15.7620 N   0  0  0  0  0  0  0  0  0  0  0  0
   42.3534   12.3577  -16.5604 H   0  0  0  0  0  0  0  0  0  0  0  0
   46.1539   15.0959  -11.9351 C   0  0  0  0  0  0  0  0  0  0  0  0
   45.6950   14.5061  -13.2099 C   0  0  0  0  0  0  0  0  0  0  0  0
   44.1742   14.6452  -13.4247 C   0  0  0  0  0  0  0  0  0  0  0  0
   43.8172   13.8270  -14.5743 N   0  0  0  0  0  0  0  0  0  0  0  0
   44.7780   13.3089  -15.4984 C   0  0  0  0  0  0  0  0  0  0  0  0
   46.0369   12.7766  -14.9067 C   0  0  0  0  0  0  0  0  0  0  0  0
   46.0523   13.1510  -13.4769 N   0  0  0  0  0  0  0  0  0  0  0  0
   46.3869   12.1471  -12.5338 C   0  0  0  0  0  0  0  0  0  0  0  0
   47.6223   11.5680  -12.4049 C   0  0  0  0  0  0  0  0  0  0  0  0
   47.8614   10.5839  -11.4762 C   0  0  0  0  0  0  0  0  0  0  0  0
   46.8629   10.1431  -10.6372 C   0  0  0  0  0  0  0  0  0  0  0  0
   47.1152    9.1561   -9.7108 F   0  0  0  0  0  0  0  0  0  0  0  0
   45.6106   10.7047  -10.7410 C   0  0  0  0  0  0  0  0  0  0  0  0
   45.3752   11.6951  -11.6783 C   0  0  0  0  0  0  0  0  0  0  0  0
   36.2919   13.3122  -14.0446 S   0  0  0  0  0  0  0  0  0  0  0  0
   36.1274   12.4503  -12.8269 O   0  0  0  0  0  0  0  0  0  0  0  0
   35.2922   12.8317  -15.0551 O   0  0  0  0  0  0  0  0  0  0  0  0
   36.0752   14.9518  -13.6316 N   0  0  0  0  0  0  0  0  0  0  0  0
   36.0510   15.6569  -14.4020 H   0  0  0  0  0  0  0  0  0  0  0  0
   35.9256   15.4085  -12.2893 C   0  0  0  0  0  0  0  0  0  0  0  0
   34.7251   15.4041  -11.6162 C   0  0  0  0  0  0  0  0  0  0  0  0
   34.5757   15.8401  -10.3261 C   0  0  0  0  0  0  0  0  0  0  0  0
   35.6794   16.3130   -9.6496 C   0  0  0  0  0  0  0  0  0  0  0  0
   36.9033   16.3375  -10.2810 C   0  0  0  0  0  0  0  0  0  0  0  0
   37.0207   15.8846  -11.5989 C   0  0  0  0  0  0  0  0  0  0  0  0
 11 12  1  0  0  0
 12 13  1  0  0  0
 13 14  1  0  0  0
 14 15  1  0  0  0
 15 16  1  0  0  0
 16 17  1  0  0  0
 17 18  1  0  0  0
 18 19  2  0  0  0
 19 20  1  0  0  0
 20 21  2  0  0  0
 21 22  1  0  0  0
 21 23  1  0  0  0
 23 24  2  0  0  0
 14  1  1  0  0  0
  1  2  2  0  0  0
  2  3  1  0  0  0
  3  4  2  0  0  0
  4  5  1  0  0  0
  5  6  2  0  0  0
  6  7  1  0  0  0
  7  8  2  0  0  0
  8  9  1  0  0  0
  5 25  1  0  0  0
 25 26  2  0  0  0
 25 27  2  0  0  0
 25 28  1  0  0  0
 28 30  1  0  0  0
 30 31  2  0  0  0
 31 32  1  0  0  0
 32 33  2  0  0  0
 33 34  1  0  0  0
 34 35  2  0  0  0
 17 12  1  0  0  0
 24 18  1  0  0  0
  9  1  1  0  0  0
 35 30  1  0  0  0
  8  3  1  0  0  0
  9 10  1  0  0  0
 28 29  1  0  0  0
M  END
> <minimizedAffinity>
-8.55545

> <CNNscore>
0.0999001563

> <CNNaffinity>
5.9458909035

> <CNN_VS>
0.5939954519

> <CNNaffinity_variance>
0.3024390340

$$$$
[H]c1c([H])c(-c2nc3c([H])c(-c4c([H])c([H])c(S(=O)(=O)N([H])[H])c([H])c4[H])c([H])c([H])c3n2[H])c([H])c([H])c1F


 29 32  0  0  0  0  0  0  0  0999 V2000
   35.4432   11.3220  -15.9390 C   0  0  0  0  0  0  0  0  0  0  0  0
   36.7597   11.3626  -16.3258 C   0  0  0  0  0  0  0  0  0  0  0  0
   37.6645   12.0664  -15.5370 C   0  0  0  0  0  0  0  0  0  0  0  0
   37.2800   12.7162  -14.3914 C   0  0  0  0  0  0  0  0  0  0  0  0
   37.9683   13.4545  -13.4721 N   0  0  0  0  0  0  0  0  0  0  0  0
   37.0787   13.8509  -12.5478 C   0  0  0  0  0  0  0  0  0  0  0  0
   35.8694   13.3707  -12.8853 N   0  0  0  0  0  0  0  0  0  0  0  0
   35.9509   12.6711  -14.0074 C   0  0  0  0  0  0  0  0  0  0  0  0
   35.0563   11.9723  -14.7922 C   0  0  0  0  0  0  0  0  0  0  0  0
   38.9938   13.6748  -13.4775 H   0  0  0  0  0  0  0  0  0  0  0  0
   37.3159   14.6644  -11.3526 C   0  0  0  0  0  0  0  0  0  0  0  0
   38.4335   15.4688  -11.2961 C   0  0  0  0  0  0  0  0  0  0  0  0
   38.6712   16.2393  -10.1780 C   0  0  0  0  0  0  0  0  0  0  0  0
   37.8231   16.2407   -9.0924 C   0  0  0  0  0  0  0  0  0  0  0  0
   38.0321   16.9871   -7.9849 F   0  0  0  0  0  0  0  0  0  0  0  0
   36.7069   15.4210   -9.1788 C   0  0  0  0  0  0  0  0  0  0  0  0
   36.4510   14.6457  -10.2820 C   0  0  0  0  0  0  0  0  0  0  0  0
   32.5675    9.2078  -18.1947 C   0  0  0  0  0  0  0  0  0  0  0  0
   33.5638    8.5282  -17.5047 C   0  0  0  0  0  0  0  0  0  0  0  0
   34.5063    9.2010  -16.7668 C   0  0  0  0  0  0  0  0  0  0  0  0
   34.4503   10.5994  -16.7169 C   0  0  0  0  0  0  0  0  0  0  0  0
   33.4432   11.2497  -17.4165 C   0  0  0  0  0  0  0  0  0  0  0  0
   32.4938   10.5805  -18.1597 C   0  0  0  0  0  0  0  0  0  0  0  0
   29.9449    9.3027  -19.1583 N   0  0  0  0  0  0  0  0  0  0  0  0
   31.3768    8.3355  -19.1254 S   0  0  0  0  0  0  0  0  0  0  0  0
   31.0501    7.0118  -18.5145 O   0  0  0  0  0  0  0  0  0  0  0  0
   31.8767    8.2082  -20.5266 O   0  0  0  0  0  0  0  0  0  0  0  0
   30.0504   10.1641  -19.7222 H   0  0  0  0  0  0  0  0  0  0  0  0
   29.6573    9.5040  -18.1588 H   0  0  0  0  0  0  0  0  0  0  0  0
 24 25  1  0  0  0
 25 26  2  0  0  0
 25 27  2  0  0  0
 25 18  1  0  0  0
 18 19  2  0  0  0
 19 20  1  0  0  0
 20 21  2  0  0  0
 21 22  1  0  0  0
 22 23  2  0  0  0
 21  1  1  0  0  0
  1  2  2  0  0  0
  2  3  1  0  0  0
  3  4  2  0  0  0
  4  5  1  0  0  0
  5  6  1  0  0  0
  6  7  2  0  0  0
  7  8  1  0  0  0
  8  9  2  0  0  0
  6 11  1  0  0  0
 11 12  2  0  0  0
 12 13  1  0  0  0
 13 14  2  0  0  0
 14 15  1  0  0  0
 14 16  1  0  0  0
 16 17  2  0  0  0
 23 18  1  0  0  0
  9  1  1  0  0  0
 17 11  1  0  0  0
  8  4  1  0  0  0
 24 28  1  0  0  0
 24 29  1  0  0  0
  5 10  1  0  0  0
M  END
> <minimizedAffinity>
-2.96861

> <CNNscore>
0.2711610794

> <CNNaffinity>
6.1094870567

> <CNN_VS>
1.6566550732

> <CNNaffinity_variance>
0.2410903424

$$$$
[H]c1c([H])c(-c2nc3c([H])c(-c4c([H])c([H])c(S(=O)(=O)N([H])[H])c([H])c4[H])c([H])c([H])c3n2[H])c([H])c([H])c1F


 29 32  0  0  0  0  0  0  0  0999 V2000
   41.6896   12.7034  -15.9900 C   0  0  0  0  0  0  0  0  0  0  0  0
   41.1560   12.1062  -17.1050 C   0  0  0  0  0  0  0  0  0  0  0  0
   39.7724   11.9975  -17.2049 C   0  0  0  0  0  0  0  0  0  0  0  0
   38.9326   12.4673  -16.2270 C   0  0  0  0  0  0  0  0  0  0  0  0
   37.5731   12.4770  -16.1023 N   0  0  0  0  0  0  0  0  0  0  0  0
   37.2949   13.0708  -14.9305 C   0  0  0  0  0  0  0  0  0  0  0  0
   38.4525   13.4205  -14.3435 N   0  0  0  0  0  0  0  0  0  0  0  0
   39.4776   13.0683  -15.1054 C   0  0  0  0  0  0  0  0  0  0  0  0
   40.8502   13.1743  -15.0095 C   0  0  0  0  0  0  0  0  0  0  0  0
   36.8727   12.0971  -16.7843 H   0  0  0  0  0  0  0  0  0  0  0  0
   35.9814   13.3280  -14.3348 C   0  0  0  0  0  0  0  0  0  0  0  0
   35.8905   14.1529  -13.2345 C   0  0  0  0  0  0  0  0  0  0  0  0
   34.6619   14.4038  -12.6620 C   0  0  0  0  0  0  0  0  0  0  0  0
   33.4969   13.8552  -13.1514 C   0  0  0  0  0  0  0  0  0  0  0  0
   32.2800   14.0856  -12.6099 F   0  0  0  0  0  0  0  0  0  0  0  0
   33.6204   13.0292  -14.2596 C   0  0  0  0  0  0  0  0  0  0  0  0
   34.8334   12.7657  -14.8452 C   0  0  0  0  0  0  0  0  0  0  0  0
   45.8660   13.1242  -15.5344 C   0  0  0  0  0  0  0  0  0  0  0  0
   45.3416   12.3483  -16.5608 C   0  0  0  0  0  0  0  0  0  0  0  0
   43.9859   12.2013  -16.7225 C   0  0  0  0  0  0  0  0  0  0  0  0
   43.1266   12.8522  -15.8285 C   0  0  0  0  0  0  0  0  0  0  0  0
   43.6806   13.6201  -14.8137 C   0  0  0  0  0  0  0  0  0  0  0  0
   45.0408   13.7718  -14.6453 C   0  0  0  0  0  0  0  0  0  0  0  0
   48.2644   13.4663  -16.9296 N   0  0  0  0  0  0  0  0  0  0  0  0
   47.5918   13.3012  -15.3462 S   0  0  0  0  0  0  0  0  0  0  0  0
   48.2066   12.1118  -14.6832 O   0  0  0  0  0  0  0  0  0  0  0  0
   47.8557   14.5681  -14.6012 O   0  0  0  0  0  0  0  0  0  0  0  0
   48.0177   14.3632  -17.3832 H   0  0  0  0  0  0  0  0  0  0  0  0
   47.9709   12.6261  -17.5041 H   0  0  0  0  0  0  0  0  0  0  0  0
 24 25  1  0  0  0
 25 26  2  0  0  0
 25 27  2  0  0  0
 25 18  1  0  0  0
 18 19  2  0  0  0
 19 20  1  0  0  0
 20 21  2  0  0  0
 21 22  1  0  0  0
 22 23  2  0  0  0
 21  1  1  0  0  0
  1  2  2  0  0  0
  2  3  1  0  0  0
  3  4  2  0  0  0
  4  5  1  0  0  0
  5  6  1  0  0  0
  6  7  2  0  0  0
  7  8  1  0  0  0
  8  9  2  0  0  0
  6 11  1  0  0  0
 11 12  2  0  0  0
 12 13  1  0  0  0
 13 14  2  0  0  0
 14 15  1  0  0  0
 14 16  1  0  0  0
 16 17  2  0  0  0
 23 18  1  0  0  0
  9  1  1  0  0  0
 17 11  1  0  0  0
  8  4  1  0  0  0
 24 28  1  0  0  0
 24 29  1  0  0  0
  5 10  1  0  0  0
M  END
> <minimizedAffinity>
-9.70822

> <CNNscore>
0.2597819865

> <CNNaffinity>
6.0475983620

> <CNN_VS>
1.5710570812

> <CNNaffinity_variance>
0.0930263996

$$$$
[H]c1c([H])c(-c2nc3c([H])c(-c4c([H])c([H])c(S(=O)(=O)N([H])[H])c([H])c4[H])c([H])c([H])c3n2[H])c([H])c([H])c1F


 29 32  0  0  0  0  0  0  0  0999 V2000
   42.4401   13.9182  -14.3517 C   0  0  0  0  0  0  0  0  0  0  0  0
   42.8379   13.3093  -15.5160 C   0  0  0  0  0  0  0  0  0  0  0  0
   41.8784   12.6701  -16.2950 C   0  0  0  0  0  0  0  0  0  0  0  0
   40.5552   12.6319  -15.9345 C   0  0  0  0  0  0  0  0  0  0  0  0
   39.4528   12.0802  -16.5213 N   0  0  0  0  0  0  0  0  0  0  0  0
   38.4094   12.3539  -15.7216 C   0  0  0  0  0  0  0  0  0  0  0  0
   38.8535   13.0573  -14.6657 N   0  0  0  0  0  0  0  0  0  0  0  0
   40.1611   13.2481  -14.7592 C   0  0  0  0  0  0  0  0  0  0  0  0
   41.1154   13.8809  -13.9889 C   0  0  0  0  0  0  0  0  0  0  0  0
   39.4171   11.5449  -17.4225 H   0  0  0  0  0  0  0  0  0  0  0  0
   37.0042   11.9834  -15.9075 C   0  0  0  0  0  0  0  0  0  0  0  0
   36.0677   12.4116  -14.9915 C   0  0  0  0  0  0  0  0  0  0  0  0
   34.7418   12.0704  -15.1520 C   0  0  0  0  0  0  0  0  0  0  0  0
   34.3025   11.3047  -16.2095 C   0  0  0  0  0  0  0  0  0  0  0  0
   33.0088   10.9571  -16.3908 F   0  0  0  0  0  0  0  0  0  0  0  0
   35.2684   10.8887  -17.1148 C   0  0  0  0  0  0  0  0  0  0  0  0
   36.5936   11.2165  -16.9743 C   0  0  0  0  0  0  0  0  0  0  0  0
   45.1944   15.9275  -11.8609 C   0  0  0  0  0  0  0  0  0  0  0  0
   43.8271   16.1105  -11.6948 C   0  0  0  0  0  0  0  0  0  0  0  0
   42.9185   15.4646  -12.4965 C   0  0  0  0  0  0  0  0  0  0  0  0
   43.3930   14.6071  -13.4969 C   0  0  0  0  0  0  0  0  0  0  0  0
   44.7642   14.4448  -13.6380 C   0  0  0  0  0  0  0  0  0  0  0  0
   45.6822   15.0905  -12.8368 C   0  0  0  0  0  0  0  0  0  0  0  0
   46.3233   18.4209  -11.2914 N   0  0  0  0  0  0  0  0  0  0  0  0
   46.3340   16.7552  -10.8307 S   0  0  0  0  0  0  0  0  0  0  0  0
   47.7202   16.2206  -10.9881 O   0  0  0  0  0  0  0  0  0  0  0  0
   45.8456   16.6656   -9.4225 O   0  0  0  0  0  0  0  0  0  0  0  0
   45.4415   18.9038  -11.0458 H   0  0  0  0  0  0  0  0  0  0  0  0
   46.5449   18.4806  -12.3256 H   0  0  0  0  0  0  0  0  0  0  0  0
 24 25  1  0  0  0
 25 26  2  0  0  0
 25 27  2  0  0  0
 25 18  1  0  0  0
 18 19  2  0  0  0
 19 20  1  0  0  0
 20 21  2  0  0  0
 21 22  1  0  0  0
 22 23  2  0  0  0
 21  1  1  0  0  0
  1  2  2  0  0  0
  2  3  1  0  0  0
  3  4  2  0  0  0
  4  5  1  0  0  0
  5  6  1  0  0  0
  6  7  2  0  0  0
  7  8  1  0  0  0
  8  9  2  0  0  0
  6 11  1  0  0  0
 11 12  2  0  0  0
 12 13  1  0  0  0
 13 14  2  0  0  0
 14 15  1  0  0  0
 14 16  1  0  0  0
 16 17  2  0  0  0
 23 18  1  0  0  0
  9  1  1  0  0  0
 17 11  1  0  0  0
  8  4  1  0  0  0
 24 28  1  0  0  0
 24 29  1  0  0  0
  5 10  1  0  0  0
M  END
> <minimizedAffinity>
-8.27324

> <CNNscore>
0.2367846221

> <CNNaffinity>
5.9426660538

> <CNN_VS>
1.4071319103

> <CNNaffinity_variance>
0.0494050011

$$$$
[H]c1c([H])c(-c2nc3c([H])c(-c4c([H])c([H])c(S(=O)(=O)N([H])[H])c([H])c4[H])c([H])c([H])c3n2[H])c([H])c([H])c1F


 29 32  0  0  0  0  0  0  0  0999 V2000
   43.4216   14.5477  -13.4170 C   0  0  0  0  0  0  0  0  0  0  0  0
   44.1070   14.0515  -14.4980 C   0  0  0  0  0  0  0  0  0  0  0  0
   43.3976   13.3653  -15.4788 C   0  0  0  0  0  0  0  0  0  0  0  0
   42.0418   13.1722  -15.3961 C   0  0  0  0  0  0  0  0  0  0  0  0
   41.1454   12.5472  -16.2146 N   0  0  0  0  0  0  0  0  0  0  0  0
   39.9407   12.6664  -15.6338 C   0  0  0  0  0  0  0  0  0  0  0  0
   40.0862   13.3479  -14.4844 N   0  0  0  0  0  0  0  0  0  0  0  0
   41.3571   13.6753  -14.3033 C   0  0  0  0  0  0  0  0  0  0  0  0
   42.0639   14.3551  -13.3323 C   0  0  0  0  0  0  0  0  0  0  0  0
   41.3484   12.0648  -17.1235 H   0  0  0  0  0  0  0  0  0  0  0  0
   38.6500   12.1671  -16.1147 C   0  0  0  0  0  0  0  0  0  0  0  0
   38.6200   11.2955  -17.1819 C   0  0  0  0  0  0  0  0  0  0  0  0
   37.4135   10.8177  -17.6467 C   0  0  0  0  0  0  0  0  0  0  0  0
   36.2115   11.1803  -17.0796 C   0  0  0  0  0  0  0  0  0  0  0  0
   35.0152   10.7258  -17.5150 F   0  0  0  0  0  0  0  0  0  0  0  0
   36.2739   12.0587  -16.0073 C   0  0  0  0  0  0  0  0  0  0  0  0
   37.4639   12.5469  -15.5285 C   0  0  0  0  0  0  0  0  0  0  0  0
   45.4162   16.6743  -10.3631 C   0  0  0  0  0  0  0  0  0  0  0  0
   45.8792   16.7170  -11.6724 C   0  0  0  0  0  0  0  0  0  0  0  0
   45.2419   16.0311  -12.6769 C   0  0  0  0  0  0  0  0  0  0  0  0
   44.1040   15.2781  -12.3616 C   0  0  0  0  0  0  0  0  0  0  0  0
   43.6660   15.2552  -11.0447 C   0  0  0  0  0  0  0  0  0  0  0  0
   44.3012   15.9413  -10.0310 C   0  0  0  0  0  0  0  0  0  0  0  0
   47.3606   18.6210   -9.8677 N   0  0  0  0  0  0  0  0  0  0  0  0
   46.2379   17.5545   -9.1002 S   0  0  0  0  0  0  0  0  0  0  0  0
   46.9877   16.6452   -8.1820 O   0  0  0  0  0  0  0  0  0  0  0  0
   45.2321   18.3894   -8.3784 O   0  0  0  0  0  0  0  0  0  0  0  0
   46.9003   19.3909  -10.3839 H   0  0  0  0  0  0  0  0  0  0  0  0
   47.9990   18.0428  -10.4845 H   0  0  0  0  0  0  0  0  0  0  0  0
 24 25  1  0  0  0
 25 26  2  0  0  0
 25 27  2  0  0  0
 25 18  1  0  0  0
 18 19  2  0  0  0
 19 20  1  0  0  0
 20 21  2  0  0  0
 21 22  1  0  0  0
 22 23  2  0  0  0
 21  1  1  0  0  0
  1  2  2  0  0  0
  2  3  1  0  0  0
  3  4  2  0  0  0
  4  5  1  0  0  0
  5  6  1  0  0  0
  6  7  2  0  0  0
  7  8  1  0  0  0
  8  9  2  0  0  0
  6 11  1  0  0  0
 11 12  2  0  0  0
 12 13  1  0  0  0
 13 14  2  0  0  0
 14 15  1  0  0  0
 14 16  1  0  0  0
 16 17  2  0  0  0
 23 18  1  0  0  0
  9  1  1  0  0  0
 17 11  1  0  0  0
  8  4  1  0  0  0
 24 28  1  0  0  0
 24 29  1  0  0  0
  5 10  1  0  0  0
M  END
> <minimizedAffinity>
-8.00421

> <CNNscore>
0.2200114578

> <CNNaffinity>
5.7246046066

> <CNN_VS>
1.2594785690

> <CNNaffinity_variance>
0.1449984014

$$$$
[H]c1c([H])c(-c2nc3c([H])c(-c4c([H])c([H])c(S(=O)(=O)N([H])[H])c([H])c4[H])c([H])c([H])c3n2[H])c([H])c([H])c1F


 29 32  0  0  0  0  0  0  0  0999 V2000
   37.1049   14.9106   -7.2611 C   0  0  0  0  0  0  0  0  0  0  0  0
   37.9977   15.9452   -7.3921 C   0  0  0  0  0  0  0  0  0  0  0  0
   39.3403   15.7056   -7.1164 C   0  0  0  0  0  0  0  0  0  0  0  0
   39.7935   14.4727   -6.7200 C   0  0  0  0  0  0  0  0  0  0  0  0
   41.0350   14.0029   -6.4010 N   0  0  0  0  0  0  0  0  0  0  0  0
   40.8898   12.7064   -6.0835 C   0  0  0  0  0  0  0  0  0  0  0  0
   39.5911   12.3804   -6.2025 N   0  0  0  0  0  0  0  0  0  0  0  0
   38.8877   13.4341   -6.5900 C   0  0  0  0  0  0  0  0  0  0  0  0
   37.5568   13.6754   -6.8641 C   0  0  0  0  0  0  0  0  0  0  0  0
   41.9346   14.5421   -6.4013 H   0  0  0  0  0  0  0  0  0  0  0  0
   41.9237   11.7532   -5.6726 C   0  0  0  0  0  0  0  0  0  0  0  0
   41.7260   10.9907   -4.5417 C   0  0  0  0  0  0  0  0  0  0  0  0
   42.6898   10.0902   -4.1416 C   0  0  0  0  0  0  0  0  0  0  0  0
   43.8662    9.9150   -4.8368 C   0  0  0  0  0  0  0  0  0  0  0  0
   44.8267    9.0387   -4.4669 F   0  0  0  0  0  0  0  0  0  0  0  0
   44.0364   10.6965   -5.9706 C   0  0  0  0  0  0  0  0  0  0  0  0
   43.0902   11.5992   -6.3870 C   0  0  0  0  0  0  0  0  0  0  0  0
   32.9916   15.4355   -8.0565 C   0  0  0  0  0  0  0  0  0  0  0  0
   33.4107   14.6527   -6.9877 C   0  0  0  0  0  0  0  0  0  0  0  0
   34.7444   14.4721   -6.7158 C   0  0  0  0  0  0  0  0  0  0  0  0
   35.6902   15.0952   -7.5395 C   0  0  0  0  0  0  0  0  0  0  0  0
   35.2406   15.8709   -8.5991 C   0  0  0  0  0  0  0  0  0  0  0  0
   33.9029   16.0563   -8.8781 C   0  0  0  0  0  0  0  0  0  0  0  0
   31.0869   17.2745   -8.9542 N   0  0  0  0  0  0  0  0  0  0  0  0
   31.2920   15.6555   -8.3851 S   0  0  0  0  0  0  0  0  0  0  0  0
   30.4570   15.4656   -7.1609 O   0  0  0  0  0  0  0  0  0  0  0  0
   30.9031   14.7285   -9.4891 O   0  0  0  0  0  0  0  0  0  0  0  0
   31.4955   17.4293   -9.8923 H   0  0  0  0  0  0  0  0  0  0  0  0
   31.4806   17.9348   -8.2253 H   0  0  0  0  0  0  0  0  0  0  0  0
 24 25  1  0  0  0
 25 26  2  0  0  0
 25 27  2  0  0  0
 25 18  1  0  0  0
 18 19  2  0  0  0
 19 20  1  0  0  0
 20 21  2  0  0  0
 21 22  1  0  0  0
 22 23  2  0  0  0
 21  1  1  0  0  0
  1  2  2  0  0  0
  2  3  1  0  0  0
  3  4  2  0  0  0
  4  5  1  0  0  0
  5  6  1  0  0  0
  6  7  2  0  0  0
  7  8  1  0  0  0
  8  9  2  0  0  0
  6 11  1  0  0  0
 11 12  2  0  0  0
 12 13  1  0  0  0
 13 14  2  0  0  0
 14 15  1  0  0  0
 14 16  1  0  0  0
 16 17  2  0  0  0
 23 18  1  0  0  0
  9  1  1  0  0  0
 17 11  1  0  0  0
  8  4  1  0  0  0
 24 28  1  0  0  0
 24 29  1  0  0  0
  5 10  1  0  0  0
M  END
> <minimizedAffinity>
-6.73756

> <CNNscore>
0.2003097832

> <CNNaffinity>
4.6328291893

> <CNN_VS>
0.9280009866

> <CNNaffinity_variance>
0.1771889627

$$$$
[H]c1c([H])c(-c2nc3c([H])c(-c4c([H])c([H])c(S(=O)(=O)N([H])[H])c([H])c4[H])c([H])c([H])c3n2[H])c([H])c([H])c1F


 29 32  0  0  0  0  0  0  0  0999 V2000
   42.6215   12.7320  -15.9949 C   0  0  0  0  0  0  0  0  0  0  0  0
   42.6427   12.2126  -17.2654 C   0  0  0  0  0  0  0  0  0  0  0  0
   41.4460   11.7797  -17.8282 C   0  0  0  0  0  0  0  0  0  0  0  0
   40.2540   11.8571  -17.1533 C   0  0  0  0  0  0  0  0  0  0  0  0
   38.9777   11.5061  -17.4880 N   0  0  0  0  0  0  0  0  0  0  0  0
   38.2025   11.8102  -16.4346 C   0  0  0  0  0  0  0  0  0  0  0  0
   38.9783   12.3363  -15.4711 N   0  0  0  0  0  0  0  0  0  0  0  0
   40.2401   12.3819  -15.8725 C   0  0  0  0  0  0  0  0  0  0  0  0
   41.4288   12.8101  -15.3174 C   0  0  0  0  0  0  0  0  0  0  0  0
   38.6548   11.0810  -18.3908 H   0  0  0  0  0  0  0  0  0  0  0  0
   36.7556   11.6293  -16.2927 C   0  0  0  0  0  0  0  0  0  0  0  0
   36.0920   10.7950  -17.1662 C   0  0  0  0  0  0  0  0  0  0  0  0
   34.7306   10.6153  -17.0463 C   0  0  0  0  0  0  0  0  0  0  0  0
   33.9889   11.2457  -16.0715 C   0  0  0  0  0  0  0  0  0  0  0  0
   32.6539   11.0861  -15.9313 F   0  0  0  0  0  0  0  0  0  0  0  0
   34.6847   12.0790  -15.2073 C   0  0  0  0  0  0  0  0  0  0  0  0
   36.0397   12.2725  -15.3087 C   0  0  0  0  0  0  0  0  0  0  0  0
   46.1608   14.0995  -14.1426 C   0  0  0  0  0  0  0  0  0  0  0  0
   46.2197   13.2256  -15.2213 C   0  0  0  0  0  0  0  0  0  0  0  0
   45.0780   12.7717  -15.8346 C   0  0  0  0  0  0  0  0  0  0  0  0
   43.8367   13.2064  -15.3535 C   0  0  0  0  0  0  0  0  0  0  0  0
   43.8105   14.0793  -14.2747 C   0  0  0  0  0  0  0  0  0  0  0  0
   44.9529   14.5389  -13.6539 C   0  0  0  0  0  0  0  0  0  0  0  0
   48.4181   13.2875  -12.7069 N   0  0  0  0  0  0  0  0  0  0  0  0
   47.6226   14.6675  -13.3775 S   0  0  0  0  0  0  0  0  0  0  0  0
   47.3373   15.6400  -12.2797 O   0  0  0  0  0  0  0  0  0  0  0  0
   48.5113   15.2425  -14.4307 O   0  0  0  0  0  0  0  0  0  0  0  0
   48.8015   12.6509  -13.4272 H   0  0  0  0  0  0  0  0  0  0  0  0
   47.7424   12.8006  -12.0522 H   0  0  0  0  0  0  0  0  0  0  0  0
 24 25  1  0  0  0
 25 26  2  0  0  0
 25 27  2  0  0  0
 25 18  1  0  0  0
 18 19  2  0  0  0
 19 20  1  0  0  0
 20 21  2  0  0  0
 21 22  1  0  0  0
 22 23  2  0  0  0
 21  1  1  0  0  0
  1  2  2  0  0  0
  2  3  1  0  0  0
  3  4  2  0  0  0
  4  5  1  0  0  0
  5  6  1  0  0  0
  6  7  2  0  0  0
  7  8  1  0  0  0
  8  9  2  0  0  0
  6 11  1  0  0  0
 11 12  2  0  0  0
 12 13  1  0  0  0
 13 14  2  0  0  0
 14 15  1  0  0  0
 14 16  1  0  0  0
 16 17  2  0  0  0
 23 18  1  0  0  0
  9  1  1  0  0  0
 17 11  1  0  0  0
  8  4  1  0  0  0
 24 28  1  0  0  0
 24 29  1  0  0  0
  5 10  1  0  0  0
M  END
> <minimizedAffinity>
-7.88539

> <CNNscore>
0.1643498242

> <CNNaffinity>
6.0599884987

> <CNN_VS>
0.9959580302

> <CNNaffinity_variance>
0.0414920300

$$$$
[H]c1c([H])c(-c2nc3c([H])c(-c4c([H])c([H])c(S(=O)(=O)N([H])[H])c([H])c4[H])c([H])c([H])c3n2[H])c([H])c([H])c1F


 29 32  0  0  0  0  0  0  0  0999 V2000
   42.1636   14.5162  -13.0404 C   0  0  0  0  0  0  0  0  0  0  0  0
   41.4975   15.5800  -12.4843 C   0  0  0  0  0  0  0  0  0  0  0  0
   42.0400   16.1905  -11.3578 C   0  0  0  0  0  0  0  0  0  0  0  0
   43.2138   15.7618  -10.7913 C   0  0  0  0  0  0  0  0  0  0  0  0
   43.9292   16.1904   -9.7104 N   0  0  0  0  0  0  0  0  0  0  0  0
   45.0080   15.3962   -9.6191 C   0  0  0  0  0  0  0  0  0  0  0  0
   44.9627   14.4977  -10.6180 N   0  0  0  0  0  0  0  0  0  0  0  0
   43.8801   14.6884  -11.3573 C   0  0  0  0  0  0  0  0  0  0  0  0
   43.3391   14.0853  -12.4744 C   0  0  0  0  0  0  0  0  0  0  0  0
   43.6911   16.9856   -9.0693 H   0  0  0  0  0  0  0  0  0  0  0  0
   46.0878   15.4452   -8.6301 C   0  0  0  0  0  0  0  0  0  0  0  0
   47.0670   14.4757   -8.6530 C   0  0  0  0  0  0  0  0  0  0  0  0
   48.0889   14.5076   -7.7285 C   0  0  0  0  0  0  0  0  0  0  0  0
   48.1764   15.4861   -6.7628 C   0  0  0  0  0  0  0  0  0  0  0  0
   49.1679   15.5411   -5.8456 F   0  0  0  0  0  0  0  0  0  0  0  0
   47.1763   16.4480   -6.7650 C   0  0  0  0  0  0  0  0  0  0  0  0
   46.1498   16.4353   -7.6759 C   0  0  0  0  0  0  0  0  0  0  0  0
   40.6605   12.5522  -16.4625 C   0  0  0  0  0  0  0  0  0  0  0  0
   39.7944   13.1105  -15.5304 C   0  0  0  0  0  0  0  0  0  0  0  0
   40.2673   13.7524  -14.4124 C   0  0  0  0  0  0  0  0  0  0  0  0
   41.6518   13.8391  -14.2206 C   0  0  0  0  0  0  0  0  0  0  0  0
   42.4912   13.2718  -15.1693 C   0  0  0  0  0  0  0  0  0  0  0  0
   42.0232   12.6255  -16.2940 C   0  0  0  0  0  0  0  0  0  0  0  0
   40.0571   12.8892  -19.1714 N   0  0  0  0  0  0  0  0  0  0  0  0
   40.0410   11.7423  -17.8786 S   0  0  0  0  0  0  0  0  0  0  0  0
   38.6408   11.2606  -17.6793 O   0  0  0  0  0  0  0  0  0  0  0  0
   40.9784   10.6361  -18.2350 O   0  0  0  0  0  0  0  0  0  0  0  0
   41.0129   13.1364  -19.4821 H   0  0  0  0  0  0  0  0  0  0  0  0
   39.4958   13.7359  -18.8709 H   0  0  0  0  0  0  0  0  0  0  0  0
 24 25  1  0  0  0
 25 26  2  0  0  0
 25 27  2  0  0  0
 25 18  1  0  0  0
 18 19  2  0  0  0
 19 20  1  0  0  0
 20 21  2  0  0  0
 21 22  1  0  0  0
 22 23  2  0  0  0
 21  1  1  0  0  0
  1  2  2  0  0  0
  2  3  1  0  0  0
  3  4  2  0  0  0
  4  5  1  0  0  0
  5  6  1  0  0  0
  6  7  2  0  0  0
  7  8  1  0  0  0
  8  9  2  0  0  0
  6 11  1  0  0  0
 11 12  2  0  0  0
 12 13  1  0  0  0
 13 14  2  0  0  0
 14 15  1  0  0  0
 14 16  1  0  0  0
 16 17  2  0  0  0
 23 18  1  0  0  0
  9  1  1  0  0  0
 17 11  1  0  0  0
  8  4  1  0  0  0
 24 28  1  0  0  0
 24 29  1  0  0  0
  5 10  1  0  0  0
M  END
> <minimizedAffinity>
-5.39951

> <CNNscore>
0.1596422344

> <CNNaffinity>
5.3411798477

> <CNN_VS>
0.8526778817

> <CNNaffinity_variance>
0.1281570047

$$$$
[H]c1c([H])c(-c2nc3c([H])c(-c4c([H])c([H])c(S(=O)(=O)N([H])[H])c([H])c4[H])c([H])c([H])c3n2[H])c([H])c([H])c1F


 29 32  0  0  0  0  0  0  0  0999 V2000
   41.8088   13.7493  -14.3983 C   0  0  0  0  0  0  0  0  0  0  0  0
   41.2135   14.6884  -13.5932 C   0  0  0  0  0  0  0  0  0  0  0  0
   39.8239   14.7330  -13.5369 C   0  0  0  0  0  0  0  0  0  0  0  0
   39.0379   13.8706  -14.2585 C   0  0  0  0  0  0  0  0  0  0  0  0
   37.6848   13.7222  -14.3649 N   0  0  0  0  0  0  0  0  0  0  0  0
   37.4714   12.7097  -15.2206 C   0  0  0  0  0  0  0  0  0  0  0  0
   38.6618   12.2421  -15.6344 N   0  0  0  0  0  0  0  0  0  0  0  0
   39.6450   12.9263  -15.0683 C   0  0  0  0  0  0  0  0  0  0  0  0
   41.0233   12.8850  -15.1219 C   0  0  0  0  0  0  0  0  0  0  0  0
   36.9466   14.2847  -13.8765 H   0  0  0  0  0  0  0  0  0  0  0  0
   36.1906   12.1568  -15.6681 C   0  0  0  0  0  0  0  0  0  0  0  0
   35.0653   12.3547  -14.8975 C   0  0  0  0  0  0  0  0  0  0  0  0
   33.8531   11.8399  -15.3046 C   0  0  0  0  0  0  0  0  0  0  0  0
   33.7141   11.1217  -16.4720 C   0  0  0  0  0  0  0  0  0  0  0  0
   32.5376   10.6072  -16.8944 F   0  0  0  0  0  0  0  0  0  0  0  0
   34.8644   10.9392  -17.2262 C   0  0  0  0  0  0  0  0  0  0  0  0
   36.0813   11.4426  -16.8397 C   0  0  0  0  0  0  0  0  0  0  0  0
   46.0095   13.4453  -14.6983 C   0  0  0  0  0  0  0  0  0  0  0  0
   45.1900   12.9153  -15.6873 C   0  0  0  0  0  0  0  0  0  0  0  0
   43.8223   13.0059  -15.6046 C   0  0  0  0  0  0  0  0  0  0  0  0
   43.2557   13.6479  -14.4965 C   0  0  0  0  0  0  0  0  0  0  0  0
   44.1004   14.1672  -13.5252 C   0  0  0  0  0  0  0  0  0  0  0  0
   45.4745   14.0795  -13.6017 C   0  0  0  0  0  0  0  0  0  0  0  0
   48.2352   11.9880  -13.8390 N   0  0  0  0  0  0  0  0  0  0  0  0
   47.7457   13.3227  -14.8219 S   0  0  0  0  0  0  0  0  0  0  0  0
   48.4294   14.5577  -14.3326 O   0  0  0  0  0  0  0  0  0  0  0  0
   48.0945   13.0019  -16.2379 O   0  0  0  0  0  0  0  0  0  0  0  0
   47.9404   11.0729  -14.2221 H   0  0  0  0  0  0  0  0  0  0  0  0
   47.8771   12.1513  -12.8555 H   0  0  0  0  0  0  0  0  0  0  0  0
 24 25  1  0  0  0
 25 26  2  0  0  0
 25 27  2  0  0  0
 25 18  1  0  0  0
 18 19  2  0  0  0
 19 20  1  0  0  0
 20 21  2  0  0  0
 21 22  1  0  0  0
 22 23  2  0  0  0
 21  1  1  0  0  0
  1  2  2  0  0  0
  2  3  1  0  0  0
  3  4  2  0  0  0
  4  5  1  0  0  0
  5  6  1  0  0  0
  6  7  2  0  0  0
  7  8  1  0  0  0
  8  9  2  0  0  0
  6 11  1  0  0  0
 11 12  2  0  0  0
 12 13  1  0  0  0
 13 14  2  0  0  0
 14 15  1  0  0  0
 14 16  1  0  0  0
 16 17  2  0  0  0
 23 18  1  0  0  0
  9  1  1  0  0  0
 17 11  1  0  0  0
  8  4  1  0  0  0
 24 28  1  0  0  0
 24 29  1  0  0  0
  5 10  1  0  0  0
M  END
> <minimizedAffinity>
-8.64714

> <CNNscore>
0.1522855610

> <CNNaffinity>
5.9897470474

> <CNN_VS>
0.9121519923

> <CNNaffinity_variance>
0.0323185660

$$$$
[H]c1c([H])c(-c2nc3c([H])c(-c4c([H])c([H])c(S(=O)(=O)N([H])[H])c([H])c4[H])c([H])c([H])c3n2[H])c([H])c([H])c1F


 29 32  0  0  0  0  0  0  0  0999 V2000
   41.2977   14.6748  -13.4949 C   0  0  0  0  0  0  0  0  0  0  0  0
   40.5014   15.4498  -12.6888 C   0  0  0  0  0  0  0  0  0  0  0  0
   39.1214   15.2876  -12.7615 C   0  0  0  0  0  0  0  0  0  0  0  0
   38.5385   14.3810  -13.6104 C   0  0  0  0  0  0  0  0  0  0  0  0
   37.2374   14.0468  -13.8541 N   0  0  0  0  0  0  0  0  0  0  0  0
   37.2525   13.0861  -14.7920 C   0  0  0  0  0  0  0  0  0  0  0  0
   38.5304   12.8310  -15.1217 N   0  0  0  0  0  0  0  0  0  0  0  0
   39.3475   13.6029  -14.4205 C   0  0  0  0  0  0  0  0  0  0  0  0
   40.7158   13.7665  -14.3459 C   0  0  0  0  0  0  0  0  0  0  0  0
   36.3841   14.4552  -13.4013 H   0  0  0  0  0  0  0  0  0  0  0  0
   36.1124   12.3909  -15.3949 C   0  0  0  0  0  0  0  0  0  0  0  0
   36.2943   11.6893  -16.5671 C   0  0  0  0  0  0  0  0  0  0  0  0
   35.2313   11.0308  -17.1472 C   0  0  0  0  0  0  0  0  0  0  0  0
   33.9691   11.0433  -16.5953 C   0  0  0  0  0  0  0  0  0  0  0  0
   32.9104   10.4056  -17.1428 F   0  0  0  0  0  0  0  0  0  0  0  0
   33.8172   11.7578  -15.4156 C   0  0  0  0  0  0  0  0  0  0  0  0
   34.8616   12.4207  -14.8210 C   0  0  0  0  0  0  0  0  0  0  0  0
   45.5035   15.0318  -13.3897 C   0  0  0  0  0  0  0  0  0  0  0  0
   44.7014   15.9110  -12.6728 C   0  0  0  0  0  0  0  0  0  0  0  0
   43.3323   15.8084  -12.6966 C   0  0  0  0  0  0  0  0  0  0  0  0
   42.7462   14.7927  -13.4622 C   0  0  0  0  0  0  0  0  0  0  0  0
   43.5740   13.9299  -14.1672 C   0  0  0  0  0  0  0  0  0  0  0  0
   44.9494   14.0274  -14.1481 C   0  0  0  0  0  0  0  0  0  0  0  0
   47.7938   15.2130  -14.9827 N   0  0  0  0  0  0  0  0  0  0  0  0
   47.2420   15.1763  -13.3453 S   0  0  0  0  0  0  0  0  0  0  0  0
   47.8812   14.0204  -12.6472 O   0  0  0  0  0  0  0  0  0  0  0  0
   47.5887   16.4847  -12.7149 O   0  0  0  0  0  0  0  0  0  0  0  0
   47.5316   16.0822  -15.4795 H   0  0  0  0  0  0  0  0  0  0  0  0
   47.4395   14.3427  -15.4719 H   0  0  0  0  0  0  0  0  0  0  0  0
 24 25  1  0  0  0
 25 26  2  0  0  0
 25 27  2  0  0  0
 25 18  1  0  0  0
 18 19  2  0  0  0
 19 20  1  0  0  0
 20 21  2  0  0  0
 21 22  1  0  0  0
 22 23  2  0  0  0
 21  1  1  0  0  0
  1  2  2  0  0  0
  2  3  1  0  0  0
  3  4  2  0  0  0
  4  5  1  0  0  0
  5  6  1  0  0  0
  6  7  2  0  0  0
  7  8  1  0  0  0
  8  9  2  0  0  0
  6 11  1  0  0  0
 11 12  2  0  0  0
 12 13  1  0  0  0
 13 14  2  0  0  0
 14 15  1  0  0  0
 14 16  1  0  0  0
 16 17  2  0  0  0
 23 18  1  0  0  0
  9  1  1  0  0  0
 17 11  1  0  0  0
  8  4  1  0  0  0
 24 28  1  0  0  0
 24 29  1  0  0  0
  5 10  1  0  0  0
M  END
> <minimizedAffinity>
-8.00611

> <CNNscore>
0.1180704907

> <CNNaffinity>
5.8102369308

> <CNN_VS>
0.6860175133

> <CNNaffinity_variance>
0.0522503033

$$$$
[H]c1c([H])c(C(F)(F)F)c([H])c([H])c1N1C([H])([H])C([H])([H])N(c2nc3c([H])c(N4C([H])([H])C([H])([H])OC([H])([H])C4([H])[H])c([H])c([H])c3n2[H])C([H])([H])[C@@]1([H])C([H])([H])[H]


 33 37  0  0  0  0  0  0  0  0999 V2000
   36.5544   14.5314   -8.3220 C   0  0  0  0  0  0  0  0  0  0  0  0
   35.8966   15.6271   -7.5107 C   0  0  0  0  0  0  0  0  0  0  0  0
   36.9635   16.5509   -6.9107 C   0  0  0  0  0  0  0  0  0  0  0  0
   37.7207   15.8244   -5.9310 N   0  0  0  0  0  0  0  0  0  0  0  0
   37.1439   14.8378   -5.0830 C   0  0  0  0  0  0  0  0  0  0  0  0
   35.6620   14.8003   -5.1253 C   0  0  0  0  0  0  0  0  0  0  0  0
   35.1141   15.0691   -6.4130 N   0  0  0  0  0  0  0  0  0  0  0  0
   39.1299   16.1072   -5.8406 C   0  0  0  0  0  0  0  0  0  0  0  0
   40.0101   16.2899   -6.8442 N   0  0  0  0  0  0  0  0  0  0  0  0
   41.2454   16.5712   -6.3840 C   0  0  0  0  0  0  0  0  0  0  0  0
   42.4469   16.8554   -7.0241 C   0  0  0  0  0  0  0  0  0  0  0  0
   43.5720   17.1407   -6.3035 C   0  0  0  0  0  0  0  0  0  0  0  0
   43.4487   17.1281   -4.9044 C   0  0  0  0  0  0  0  0  0  0  0  0
   42.2512   16.8440   -4.2895 C   0  0  0  0  0  0  0  0  0  0  0  0
   41.1310   16.5623   -5.0285 C   0  0  0  0  0  0  0  0  0  0  0  0
   39.8562   16.2812   -4.7192 N   0  0  0  0  0  0  0  0  0  0  0  0
   39.4407   16.1992   -3.7671 H   0  0  0  0  0  0  0  0  0  0  0  0
   44.8031   17.4749   -6.8843 N   0  0  0  0  0  0  0  0  0  0  0  0
   44.9627   17.5948   -8.3030 C   0  0  0  0  0  0  0  0  0  0  0  0
   46.4015   17.8618   -8.6902 C   0  0  0  0  0  0  0  0  0  0  0  0
   47.1063   18.6759   -7.8645 O   0  0  0  0  0  0  0  0  0  0  0  0
   46.6021   18.9910   -6.6460 C   0  0  0  0  0  0  0  0  0  0  0  0
   45.9511   17.7429   -6.0382 C   0  0  0  0  0  0  0  0  0  0  0  0
   33.7406   14.8159   -6.6723 C   0  0  0  0  0  0  0  0  0  0  0  0
   33.1273   15.4262   -7.7763 C   0  0  0  0  0  0  0  0  0  0  0  0
   31.8119   15.2194   -8.1084 C   0  0  0  0  0  0  0  0  0  0  0  0
   31.0101   14.3774   -7.3466 C   0  0  0  0  0  0  0  0  0  0  0  0
   31.5978   13.7720   -6.2578 C   0  0  0  0  0  0  0  0  0  0  0  0
   32.9400   13.9853   -5.9242 C   0  0  0  0  0  0  0  0  0  0  0  0
   29.5817   14.1762   -7.7243 C   0  0  0  0  0  0  0  0  0  0  0  0
   28.9780   13.1827   -6.9378 F   0  0  0  0  0  0  0  0  0  0  0  0
   29.4461   13.7261   -9.0315 F   0  0  0  0  0  0  0  0  0  0  0  0
   28.8658   15.3148   -7.5155 F   0  0  0  0  0  0  0  0  0  0  0  0
  1  2  1  0  0  0
  2  3  1  0  0  0
  3  4  1  0  0  0
  4  5  1  0  0  0
  5  6  1  0  0  0
  6  7  1  0  0  0
  7 24  1  0  0  0
 24 25  2  0  0  0
 25 26  1  0  0  0
 26 27  2  0  0  0
 27 28  1  0  0  0
 28 29  2  0  0  0
 27 30  1  0  0  0
 30 31  1  0  0  0
 30 32  1  0  0  0
 30 33  1  0  0  0
  4  8  1  0  0  0
  8  9  2  0  0  0
  9 10  1  0  0  0
 10 11  2  0  0  0
 11 12  1  0  0  0
 12 13  2  0  0  0
 13 14  1  0  0  0
 14 15  2  0  0  0
 15 16  1  0  0  0
 12 18  1  0  0  0
 18 19  1  0  0  0
 19 20  1  0  0  0
 20 21  1  0  0  0
 21 22  1  0  0  0
 22 23  1  0  0  0
  7  2  1  0  0  0
 29 24  1  0  0  0
 16  8  1  0  0  0
 23 18  1  0  0  0
 15 10  1  0  0  0
 16 17  1  0  0  0
M  END
> <minimizedAffinity>
-5.10298

> <CNNscore>
0.2263600826

> <CNNaffinity>
4.8236279488

> <CNN_VS>
1.0918768644

> <CNNaffinity_variance>
0.4284981191

$$$$
[H]c1c([H])c(C(F)(F)F)c([H])c([H])c1N1C([H])([H])C([H])([H])N(c2nc3c([H])c(N4C([H])([H])C([H])([H])OC([H])([H])C4([H])[H])c([H])c([H])c3n2[H])C([H])([H])[C@@]1([H])C([H])([H])[H]


 33 37  0  0  0  0  0  0  0  0999 V2000
   36.0076   16.5996   -8.5084 C   0  0  0  0  0  0  0  0  0  0  0  0
   35.8868   16.7380   -7.0058 C   0  0  0  0  0  0  0  0  0  0  0  0
   37.1657   16.2338   -6.3261 C   0  0  0  0  0  0  0  0  0  0  0  0
   37.2754   14.8154   -6.5189 N   0  0  0  0  0  0  0  0  0  0  0  0
   36.1477   13.9476   -6.5386 C   0  0  0  0  0  0  0  0  0  0  0  0
   34.8857   14.5916   -6.1007 C   0  0  0  0  0  0  0  0  0  0  0  0
   34.7662   15.9556   -6.4954 N   0  0  0  0  0  0  0  0  0  0  0  0
   38.5946   14.2756   -6.7252 C   0  0  0  0  0  0  0  0  0  0  0  0
   39.4996   14.6199   -7.6621 N   0  0  0  0  0  0  0  0  0  0  0  0
   40.6465   13.9235   -7.5323 C   0  0  0  0  0  0  0  0  0  0  0  0
   41.8477   13.9483   -8.2328 C   0  0  0  0  0  0  0  0  0  0  0  0
   42.8863   13.1391   -7.8675 C   0  0  0  0  0  0  0  0  0  0  0  0
   42.6743   12.2944   -6.7656 C   0  0  0  0  0  0  0  0  0  0  0  0
   41.4783   12.2841   -6.0856 C   0  0  0  0  0  0  0  0  0  0  0  0
   40.4472   13.1048   -6.4645 C   0  0  0  0  0  0  0  0  0  0  0  0
   39.2112   13.3276   -5.9928 N   0  0  0  0  0  0  0  0  0  0  0  0
   38.7512   12.8619   -5.1820 H   0  0  0  0  0  0  0  0  0  0  0  0
   44.1353   13.1429   -8.5035 N   0  0  0  0  0  0  0  0  0  0  0  0
   44.4674   14.1033   -9.5133 C   0  0  0  0  0  0  0  0  0  0  0  0
   45.8291   13.8394  -10.1196 C   0  0  0  0  0  0  0  0  0  0  0  0
   46.7913   13.3985   -9.2705 O   0  0  0  0  0  0  0  0  0  0  0  0
   46.4459   12.9799   -8.0279 C   0  0  0  0  0  0  0  0  0  0  0  0
   45.1444   12.1742   -8.1174 C   0  0  0  0  0  0  0  0  0  0  0  0
   33.5192   16.6262   -6.3806 C   0  0  0  0  0  0  0  0  0  0  0  0
   32.6695   16.6894   -7.4948 C   0  0  0  0  0  0  0  0  0  0  0  0
   31.4408   17.2999   -7.4630 C   0  0  0  0  0  0  0  0  0  0  0  0
   30.9738   17.8977   -6.2983 C   0  0  0  0  0  0  0  0  0  0  0  0
   31.7979   17.8454   -5.1958 C   0  0  0  0  0  0  0  0  0  0  0  0
   33.0495   17.2206   -5.2331 C   0  0  0  0  0  0  0  0  0  0  0  0
   29.6386   18.5615   -6.2927 C   0  0  0  0  0  0  0  0  0  0  0  0
   28.8059   18.0478   -7.2991 F   0  0  0  0  0  0  0  0  0  0  0  0
   29.7304   19.9204   -6.5663 F   0  0  0  0  0  0  0  0  0  0  0  0
   28.9960   18.3357   -5.1143 F   0  0  0  0  0  0  0  0  0  0  0  0
  1  2  1  0  0  0
  2  3  1  0  0  0
  3  4  1  0  0  0
  4  5  1  0  0  0
  5  6  1  0  0  0
  6  7  1  0  0  0
  7 24  1  0  0  0
 24 25  2  0  0  0
 25 26  1  0  0  0
 26 27  2  0  0  0
 27 28  1  0  0  0
 28 29  2  0  0  0
 27 30  1  0  0  0
 30 31  1  0  0  0
 30 32  1  0  0  0
 30 33  1  0  0  0
  4  8  1  0  0  0
  8  9  2  0  0  0
  9 10  1  0  0  0
 10 11  2  0  0  0
 11 12  1  0  0  0
 12 13  2  0  0  0
 13 14  1  0  0  0
 14 15  2  0  0  0
 15 16  1  0  0  0
 12 18  1  0  0  0
 18 19  1  0  0  0
 19 20  1  0  0  0
 20 21  1  0  0  0
 21 22  1  0  0  0
 22 23  1  0  0  0
  7  2  1  0  0  0
 29 24  1  0  0  0
 16  8  1  0  0  0
 23 18  1  0  0  0
 15 10  1  0  0  0
 16 17  1  0  0  0
M  END
> <minimizedAffinity>
-5.39014

> <CNNscore>
0.2186982483

> <CNNaffinity>
4.9509296417

> <CNN_VS>
1.0827596188

> <CNNaffinity_variance>
0.4474768043

$$$$
[H]c1c([H])c(C(F)(F)F)c([H])c([H])c1N1C([H])([H])C([H])([H])N(c2nc3c([H])c(N4C([H])([H])C([H])([H])OC([H])([H])C4([H])[H])c([H])c([H])c3n2[H])C([H])([H])[C@@]1([H])C([H])([H])[H]


 33 37  0  0  0  0  0  0  0  0999 V2000
   40.4693   16.3123   -9.8465 C   0  0  0  0  0  0  0  0  0  0  0  0
   41.2450   15.3958   -8.9246 C   0  0  0  0  0  0  0  0  0  0  0  0
   40.2783   14.5819   -8.0558 C   0  0  0  0  0  0  0  0  0  0  0  0
   39.6004   15.4648   -7.1492 N   0  0  0  0  0  0  0  0  0  0  0  0
   40.2259   16.6001   -6.5616 C   0  0  0  0  0  0  0  0  0  0  0  0
   41.6934   16.6524   -6.7686 C   0  0  0  0  0  0  0  0  0  0  0  0
   42.1156   16.1592   -8.0370 N   0  0  0  0  0  0  0  0  0  0  0  0
   38.2186   15.1813   -6.8585 C   0  0  0  0  0  0  0  0  0  0  0  0
   37.1358   15.4453   -7.6155 N   0  0  0  0  0  0  0  0  0  0  0  0
   35.9998   15.0060   -7.0377 C   0  0  0  0  0  0  0  0  0  0  0  0
   34.6690   15.0272   -7.4407 C   0  0  0  0  0  0  0  0  0  0  0  0
   33.6937   14.4739   -6.6602 C   0  0  0  0  0  0  0  0  0  0  0  0
   34.1043   13.8951   -5.4481 C   0  0  0  0  0  0  0  0  0  0  0  0
   35.4261   13.8845   -5.0665 C   0  0  0  0  0  0  0  0  0  0  0  0
   36.3924   14.4424   -5.8636 C   0  0  0  0  0  0  0  0  0  0  0  0
   37.7259   14.5570   -5.7709 N   0  0  0  0  0  0  0  0  0  0  0  0
   38.3355   14.2271   -4.9929 H   0  0  0  0  0  0  0  0  0  0  0  0
   32.3411   14.4250   -7.0245 N   0  0  0  0  0  0  0  0  0  0  0  0
   31.8048   15.2612   -8.0567 C   0  0  0  0  0  0  0  0  0  0  0  0
   30.3062   15.0989   -8.1953 C   0  0  0  0  0  0  0  0  0  0  0  0
   29.8180   13.8441   -8.0268 O   0  0  0  0  0  0  0  0  0  0  0  0
   30.6172   12.8800   -7.5069 C   0  0  0  0  0  0  0  0  0  0  0  0
   31.4514   13.4835   -6.3707 C   0  0  0  0  0  0  0  0  0  0  0  0
   43.4456   16.3818   -8.4837 C   0  0  0  0  0  0  0  0  0  0  0  0
   43.7448   16.2360   -9.8462 C   0  0  0  0  0  0  0  0  0  0  0  0
   44.9979   16.4516  -10.3626 C   0  0  0  0  0  0  0  0  0  0  0  0
   46.0509   16.8316   -9.5386 C   0  0  0  0  0  0  0  0  0  0  0  0
   45.7730   16.9772   -8.1973 C   0  0  0  0  0  0  0  0  0  0  0  0
   44.4931   16.7573   -7.6760 C   0  0  0  0  0  0  0  0  0  0  0  0
   47.4046   17.0517  -10.1237 C   0  0  0  0  0  0  0  0  0  0  0  0
   47.6236   18.4071  -10.4150 F   0  0  0  0  0  0  0  0  0  0  0  0
   47.5605   16.3970  -11.3391 F   0  0  0  0  0  0  0  0  0  0  0  0
   48.3737   16.6908   -9.2387 F   0  0  0  0  0  0  0  0  0  0  0  0
  1  2  1  0  0  0
  2  3  1  0  0  0
  3  4  1  0  0  0
  4  5  1  0  0  0
  5  6  1  0  0  0
  6  7  1  0  0  0
  7 24  1  0  0  0
 24 25  2  0  0  0
 25 26  1  0  0  0
 26 27  2  0  0  0
 27 28  1  0  0  0
 28 29  2  0  0  0
 27 30  1  0  0  0
 30 31  1  0  0  0
 30 32  1  0  0  0
 30 33  1  0  0  0
  4  8  1  0  0  0
  8  9  2  0  0  0
  9 10  1  0  0  0
 10 11  2  0  0  0
 11 12  1  0  0  0
 12 13  2  0  0  0
 13 14  1  0  0  0
 14 15  2  0  0  0
 15 16  1  0  0  0
 12 18  1  0  0  0
 18 19  1  0  0  0
 19 20  1  0  0  0
 20 21  1  0  0  0
 21 22  1  0  0  0
 22 23  1  0  0  0
  7  2  1  0  0  0
 29 24  1  0  0  0
 16  8  1  0  0  0
 23 18  1  0  0  0
 15 10  1  0  0  0
 16 17  1  0  0  0
M  END
> <minimizedAffinity>
-5.38504

> <CNNscore>
0.1982416362

> <CNNaffinity>
5.0521364212

> <CNN_VS>
1.0015437603

> <CNNaffinity_variance>
0.1742798388

$$$$
[H]c1c([H])c(C(F)(F)F)c([H])c([H])c1N1C([H])([H])C([H])([H])N(c2nc3c([H])c(N4C([H])([H])C([H])([H])OC([H])([H])C4([H])[H])c([H])c([H])c3n2[H])C([H])([H])[C@@]1([H])C([H])([H])[H]


 33 37  0  0  0  0  0  0  0  0999 V2000
   37.1359   14.3763   -7.7863 C   0  0  0  0  0  0  0  0  0  0  0  0
   37.0351   15.8431   -8.1468 C   0  0  0  0  0  0  0  0  0  0  0  0
   38.2850   16.2827   -8.9190 C   0  0  0  0  0  0  0  0  0  0  0  0
   39.4219   16.2356   -8.0437 N   0  0  0  0  0  0  0  0  0  0  0  0
   39.3474   16.5613   -6.6603 C   0  0  0  0  0  0  0  0  0  0  0  0
   38.0638   17.1853   -6.2577 C   0  0  0  0  0  0  0  0  0  0  0  0
   36.9295   16.6713   -6.9504 N   0  0  0  0  0  0  0  0  0  0  0  0
   40.6763   15.8117   -8.6102 C   0  0  0  0  0  0  0  0  0  0  0  0
   41.3427   14.6609   -8.3941 N   0  0  0  0  0  0  0  0  0  0  0  0
   42.4734   14.5904   -9.1246 C   0  0  0  0  0  0  0  0  0  0  0  0
   43.4516   13.6103   -9.2539 C   0  0  0  0  0  0  0  0  0  0  0  0
   44.5052   13.7830  -10.1063 C   0  0  0  0  0  0  0  0  0  0  0  0
   44.5445   14.9863  -10.8297 C   0  0  0  0  0  0  0  0  0  0  0  0
   43.5673   15.9442  -10.6877 C   0  0  0  0  0  0  0  0  0  0  0  0
   42.5152   15.7532   -9.8291 C   0  0  0  0  0  0  0  0  0  0  0  0
   41.4308   16.4749   -9.5081 N   0  0  0  0  0  0  0  0  0  0  0  0
   41.1669   17.4146   -9.8730 H   0  0  0  0  0  0  0  0  0  0  0  0
   45.5023   12.8202  -10.3145 N   0  0  0  0  0  0  0  0  0  0  0  0
   45.8926   12.4071  -11.6295 C   0  0  0  0  0  0  0  0  0  0  0  0
   46.9107   11.2875  -11.5925 C   0  0  0  0  0  0  0  0  0  0  0  0
   47.8400   11.3508  -10.6056 O   0  0  0  0  0  0  0  0  0  0  0  0
   47.6712   12.2256   -9.5835 C   0  0  0  0  0  0  0  0  0  0  0  0
   46.1925   12.2389   -9.1781 C   0  0  0  0  0  0  0  0  0  0  0  0
   35.6177   16.9758   -6.4984 C   0  0  0  0  0  0  0  0  0  0  0  0
   35.1838   16.4717   -5.2635 C   0  0  0  0  0  0  0  0  0  0  0  0
   33.9405   16.7346   -4.7452 C   0  0  0  0  0  0  0  0  0  0  0  0
   33.0348   17.5294   -5.4380 C   0  0  0  0  0  0  0  0  0  0  0  0
   33.4459   18.0305   -6.6535 C   0  0  0  0  0  0  0  0  0  0  0  0
   34.7153   17.7604   -7.1770 C   0  0  0  0  0  0  0  0  0  0  0  0
   31.6873   17.7929   -4.8564 C   0  0  0  0  0  0  0  0  0  0  0  0
   30.7929   16.7490   -5.1398 F   0  0  0  0  0  0  0  0  0  0  0  0
   31.0961   18.9256   -5.4018 F   0  0  0  0  0  0  0  0  0  0  0  0
   31.7587   17.8758   -3.4998 F   0  0  0  0  0  0  0  0  0  0  0  0
  1  2  1  0  0  0
  2  3  1  0  0  0
  3  4  1  0  0  0
  4  5  1  0  0  0
  5  6  1  0  0  0
  6  7  1  0  0  0
  7 24  1  0  0  0
 24 25  2  0  0  0
 25 26  1  0  0  0
 26 27  2  0  0  0
 27 28  1  0  0  0
 28 29  2  0  0  0
 27 30  1  0  0  0
 30 31  1  0  0  0
 30 32  1  0  0  0
 30 33  1  0  0  0
  4  8  1  0  0  0
  8  9  2  0  0  0
  9 10  1  0  0  0
 10 11  2  0  0  0
 11 12  1  0  0  0
 12 13  2  0  0  0
 13 14  1  0  0  0
 14 15  2  0  0  0
 15 16  1  0  0  0
 12 18  1  0  0  0
 18 19  1  0  0  0
 19 20  1  0  0  0
 20 21  1  0  0  0
 21 22  1  0  0  0
 22 23  1  0  0  0
  7  2  1  0  0  0
 29 24  1  0  0  0
 16  8  1  0  0  0
 23 18  1  0  0  0
 15 10  1  0  0  0
 16 17  1  0  0  0
M  END
> <minimizedAffinity>
-5.27061

> <CNNscore>
0.1619844288

> <CNNaffinity>
4.8456296921

> <CNN_VS>
0.7849165797

> <CNNaffinity_variance>
0.3746674955

$$$$
[H]c1c([H])c(C(F)(F)F)c([H])c([H])c1N1C([H])([H])C([H])([H])N(c2nc3c([H])c(N4C([H])([H])C([H])([H])OC([H])([H])C4([H])[H])c([H])c([H])c3n2[H])C([H])([H])[C@@]1([H])C([H])([H])[H]


 33 37  0  0  0  0  0  0  0  0999 V2000
   36.6197   17.1232  -10.3301 C   0  0  0  0  0  0  0  0  0  0  0  0
   36.0359   16.0273   -9.4644 C   0  0  0  0  0  0  0  0  0  0  0  0
   36.0868   14.6864  -10.2068 C   0  0  0  0  0  0  0  0  0  0  0  0
   35.1917   14.7330  -11.3282 N   0  0  0  0  0  0  0  0  0  0  0  0
   33.9508   15.4292  -11.2993 C   0  0  0  0  0  0  0  0  0  0  0  0
   33.5507   15.8893   -9.9475 C   0  0  0  0  0  0  0  0  0  0  0  0
   34.6428   16.3067   -9.1329 N   0  0  0  0  0  0  0  0  0  0  0  0
   35.6036   14.0587  -12.5322 C   0  0  0  0  0  0  0  0  0  0  0  0
   36.8219   14.0483  -13.1073 N   0  0  0  0  0  0  0  0  0  0  0  0
   36.8487   13.2784  -14.2135 C   0  0  0  0  0  0  0  0  0  0  0  0
   37.8624   12.9471  -15.1061 C   0  0  0  0  0  0  0  0  0  0  0  0
   37.6231   12.1022  -16.1528 C   0  0  0  0  0  0  0  0  0  0  0  0
   36.3177   11.5984  -16.2749 C   0  0  0  0  0  0  0  0  0  0  0  0
   35.3281   11.9383  -15.3817 C   0  0  0  0  0  0  0  0  0  0  0  0
   35.5865   12.7860  -14.3353 C   0  0  0  0  0  0  0  0  0  0  0  0
   34.8520   13.2647  -13.3197 N   0  0  0  0  0  0  0  0  0  0  0  0
   33.8454   13.0781  -13.1255 H   0  0  0  0  0  0  0  0  0  0  0  0
   38.6074   11.6956  -17.0641 N   0  0  0  0  0  0  0  0  0  0  0  0
   38.2786   11.0013  -18.2733 C   0  0  0  0  0  0  0  0  0  0  0  0
   39.5150   10.5800  -19.0383 C   0  0  0  0  0  0  0  0  0  0  0  0
   40.5564   11.4498  -19.0260 O   0  0  0  0  0  0  0  0  0  0  0  0
   40.5486   12.4899  -18.1561 C   0  0  0  0  0  0  0  0  0  0  0  0
   40.0012   12.0074  -16.8075 C   0  0  0  0  0  0  0  0  0  0  0  0
   34.4034   17.0108   -7.9226 C   0  0  0  0  0  0  0  0  0  0  0  0
   35.3493   17.9441   -7.4737 C   0  0  0  0  0  0  0  0  0  0  0  0
   35.1858   18.6802   -6.3271 C   0  0  0  0  0  0  0  0  0  0  0  0
   34.0496   18.5287   -5.5408 C   0  0  0  0  0  0  0  0  0  0  0  0
   33.1121   17.6143   -5.9678 C   0  0  0  0  0  0  0  0  0  0  0  0
   33.2831   16.8671   -7.1385 C   0  0  0  0  0  0  0  0  0  0  0  0
   33.9002   19.3348   -4.2952 C   0  0  0  0  0  0  0  0  0  0  0  0
   34.0139   20.7091   -4.5567 F   0  0  0  0  0  0  0  0  0  0  0  0
   34.9047   19.0636   -3.3746 F   0  0  0  0  0  0  0  0  0  0  0  0
   32.6664   19.1513   -3.7507 F   0  0  0  0  0  0  0  0  0  0  0  0
  1  2  1  0  0  0
  2  3  1  0  0  0
  3  4  1  0  0  0
  4  5  1  0  0  0
  5  6  1  0  0  0
  6  7  1  0  0  0
  7 24  1  0  0  0
 24 25  2  0  0  0
 25 26  1  0  0  0
 26 27  2  0  0  0
 27 28  1  0  0  0
 28 29  2  0  0  0
 27 30  1  0  0  0
 30 31  1  0  0  0
 30 32  1  0  0  0
 30 33  1  0  0  0
  4  8  1  0  0  0
  8  9  2  0  0  0
  9 10  1  0  0  0
 10 11  2  0  0  0
 11 12  1  0  0  0
 12 13  2  0  0  0
 13 14  1  0  0  0
 14 15  2  0  0  0
 15 16  1  0  0  0
 12 18  1  0  0  0
 18 19  1  0  0  0
 19 20  1  0  0  0
 20 21  1  0  0  0
 21 22  1  0  0  0
 22 23  1  0  0  0
  7  2  1  0  0  0
 29 24  1  0  0  0
 16  8  1  0  0  0
 23 18  1  0  0  0
 15 10  1  0  0  0
 16 17  1  0  0  0
M  END
> <minimizedAffinity>
-7.88475

> <CNNscore>
0.1534196734

> <CNNaffinity>
6.2393288612

> <CNN_VS>
0.9572358131

> <CNNaffinity_variance>
0.6737865210

$$$$
[H]c1c([H])c(C(F)(F)F)c([H])c([H])c1N1C([H])([H])C([H])([H])N(c2nc3c([H])c(N4C([H])([H])C([H])([H])OC([H])([H])C4([H])[H])c([H])c([H])c3n2[H])C([H])([H])[C@@]1([H])C([H])([H])[H]


 33 37  0  0  0  0  0  0  0  0999 V2000
   35.9071   14.7615   -8.8631 C   0  0  0  0  0  0  0  0  0  0  0  0
   35.8215   15.4692   -7.5277 C   0  0  0  0  0  0  0  0  0  0  0  0
   37.2009   15.4989   -6.8582 C   0  0  0  0  0  0  0  0  0  0  0  0
   37.5806   14.1618   -6.4992 N   0  0  0  0  0  0  0  0  0  0  0  0
   36.6464   13.1857   -6.0519 C   0  0  0  0  0  0  0  0  0  0  0  0
   35.3006   13.7332   -5.7547 C   0  0  0  0  0  0  0  0  0  0  0  0
   34.8986   14.7840   -6.6292 N   0  0  0  0  0  0  0  0  0  0  0  0
   38.9710   13.8106   -6.6313 C   0  0  0  0  0  0  0  0  0  0  0  0
   39.7736   13.9702   -7.7016 N   0  0  0  0  0  0  0  0  0  0  0  0
   41.0320   13.5562   -7.4520 C   0  0  0  0  0  0  0  0  0  0  0  0
   42.1903   13.5463   -8.2217 C   0  0  0  0  0  0  0  0  0  0  0  0
   43.3688   13.0876   -7.7046 C   0  0  0  0  0  0  0  0  0  0  0  0
   43.3434   12.6325   -6.3761 C   0  0  0  0  0  0  0  0  0  0  0  0
   42.1871   12.6499   -5.6308 C   0  0  0  0  0  0  0  0  0  0  0  0
   41.0134   13.1161   -6.1651 C   0  0  0  0  0  0  0  0  0  0  0  0
   39.7696   13.2744   -5.6878 N   0  0  0  0  0  0  0  0  0  0  0  0
   39.4235   13.0340   -4.7347 H   0  0  0  0  0  0  0  0  0  0  0  0
   44.5795   13.0875   -8.4107 N   0  0  0  0  0  0  0  0  0  0  0  0
   45.5976   12.1095   -8.1669 C   0  0  0  0  0  0  0  0  0  0  0  0
   46.8474   12.3791   -8.9773 C   0  0  0  0  0  0  0  0  0  0  0  0
   46.6592   12.8526  -10.2350 O   0  0  0  0  0  0  0  0  0  0  0  0
   45.4322   13.2939  -10.6066 C   0  0  0  0  0  0  0  0  0  0  0  0
   44.8119   14.0788   -9.4446 C   0  0  0  0  0  0  0  0  0  0  0  0
   33.5494   15.2282   -6.6396 C   0  0  0  0  0  0  0  0  0  0  0  0
   33.2762   16.5860   -6.8612 C   0  0  0  0  0  0  0  0  0  0  0  0
   32.0020   17.0935   -6.9066 C   0  0  0  0  0  0  0  0  0  0  0  0
   30.9000   16.2650   -6.7295 C   0  0  0  0  0  0  0  0  0  0  0  0
   31.1522   14.9288   -6.5091 C   0  0  0  0  0  0  0  0  0  0  0  0
   32.4536   14.4163   -6.4649 C   0  0  0  0  0  0  0  0  0  0  0  0
   29.5262   16.8429   -6.7753 C   0  0  0  0  0  0  0  0  0  0  0  0
   28.7543   16.2517   -7.7877 F   0  0  0  0  0  0  0  0  0  0  0  0
   29.5400   18.1974   -7.0838 F   0  0  0  0  0  0  0  0  0  0  0  0
   28.8679   16.6074   -5.6076 F   0  0  0  0  0  0  0  0  0  0  0  0
  1  2  1  0  0  0
  2  3  1  0  0  0
  3  4  1  0  0  0
  4  5  1  0  0  0
  5  6  1  0  0  0
  6  7  1  0  0  0
  7 24  1  0  0  0
 24 25  2  0  0  0
 25 26  1  0  0  0
 26 27  2  0  0  0
 27 28  1  0  0  0
 28 29  2  0  0  0
 27 30  1  0  0  0
 30 31  1  0  0  0
 30 32  1  0  0  0
 30 33  1  0  0  0
  4  8  1  0  0  0
  8  9  2  0  0  0
  9 10  1  0  0  0
 10 11  2  0  0  0
 11 12  1  0  0  0
 12 13  2  0  0  0
 13 14  1  0  0  0
 14 15  2  0  0  0
 15 16  1  0  0  0
 12 18  1  0  0  0
 18 19  1  0  0  0
 19 20  1  0  0  0
 20 21  1  0  0  0
 21 22  1  0  0  0
 22 23  1  0  0  0
  7  2  1  0  0  0
 29 24  1  0  0  0
 16  8  1  0  0  0
 23 18  1  0  0  0
 15 10  1  0  0  0
 16 17  1  0  0  0
M  END
> <minimizedAffinity>
-5.73482

> <CNNscore>
0.1166485474

> <CNNaffinity>
4.7878866196

> <CNN_VS>
0.5584999919

> <CNNaffinity_variance>
0.3512287736

$$$$
[H]c1c([H])c(C(F)(F)F)c([H])c([H])c1N1C([H])([H])C([H])([H])N(c2nc3c([H])c(N4C([H])([H])C([H])([H])OC([H])([H])C4([H])[H])c([H])c([H])c3n2[H])C([H])([H])[C@@]1([H])C([H])([H])[H]


 33 37  0  0  0  0  0  0  0  0999 V2000
   43.6602   13.5995   -9.5856 C   0  0  0  0  0  0  0  0  0  0  0  0
   44.1139   15.0352   -9.7413 C   0  0  0  0  0  0  0  0  0  0  0  0
   43.3120   15.9456   -8.8033 C   0  0  0  0  0  0  0  0  0  0  0  0
   41.9440   15.9832   -9.2369 N   0  0  0  0  0  0  0  0  0  0  0  0
   41.5656   15.9446  -10.6083 C   0  0  0  0  0  0  0  0  0  0  0  0
   42.6993   16.1108  -11.5498 C   0  0  0  0  0  0  0  0  0  0  0  0
   43.9107   15.5043  -11.1078 N   0  0  0  0  0  0  0  0  0  0  0  0
   40.9279   16.0360   -8.2177 C   0  0  0  0  0  0  0  0  0  0  0  0
   39.7557   15.3732   -8.1733 N   0  0  0  0  0  0  0  0  0  0  0  0
   39.0684   15.6432   -7.0456 C   0  0  0  0  0  0  0  0  0  0  0  0
   37.8496   15.1883   -6.5537 C   0  0  0  0  0  0  0  0  0  0  0  0
   37.3853   15.6092   -5.3397 C   0  0  0  0  0  0  0  0  0  0  0  0
   38.1935   16.5131   -4.6307 C   0  0  0  0  0  0  0  0  0  0  0  0
   39.3962   16.9519   -5.1345 C   0  0  0  0  0  0  0  0  0  0  0  0
   39.8482   16.5171   -6.3539 C   0  0  0  0  0  0  0  0  0  0  0  0
   40.9591   16.7432   -7.0713 N   0  0  0  0  0  0  0  0  0  0  0  0
   41.7570   17.3649   -6.8208 H   0  0  0  0  0  0  0  0  0  0  0  0
   36.1871   15.1601   -4.7677 N   0  0  0  0  0  0  0  0  0  0  0  0
   35.3423   16.0276   -4.0020 C   0  0  0  0  0  0  0  0  0  0  0  0
   34.1637   15.2884   -3.4056 C   0  0  0  0  0  0  0  0  0  0  0  0
   33.6082   14.3191   -4.1759 O   0  0  0  0  0  0  0  0  0  0  0  0
   34.2602   13.8909   -5.2850 C   0  0  0  0  0  0  0  0  0  0  0  0
   35.7582   13.7893   -4.9743 C   0  0  0  0  0  0  0  0  0  0  0  0
   45.0020   15.3518  -12.0041 C   0  0  0  0  0  0  0  0  0  0  0  0
   44.9403   14.3639  -12.9979 C   0  0  0  0  0  0  0  0  0  0  0  0
   45.9413   14.1640  -13.9151 C   0  0  0  0  0  0  0  0  0  0  0  0
   47.0882   14.9492  -13.8984 C   0  0  0  0  0  0  0  0  0  0  0  0
   47.1644   15.9228  -12.9269 C   0  0  0  0  0  0  0  0  0  0  0  0
   46.1401   16.1233  -11.9947 C   0  0  0  0  0  0  0  0  0  0  0  0
   48.1648   14.7060  -14.9010 C   0  0  0  0  0  0  0  0  0  0  0  0
   49.3476   14.2649  -14.2872 F   0  0  0  0  0  0  0  0  0  0  0  0
   48.5245   15.8677  -15.5725 F   0  0  0  0  0  0  0  0  0  0  0  0
   47.7977   13.7248  -15.7700 F   0  0  0  0  0  0  0  0  0  0  0  0
  1  2  1  0  0  0
  2  3  1  0  0  0
  3  4  1  0  0  0
  4  5  1  0  0  0
  5  6  1  0  0  0
  6  7  1  0  0  0
  7 24  1  0  0  0
 24 25  2  0  0  0
 25 26  1  0  0  0
 26 27  2  0  0  0
 27 28  1  0  0  0
 28 29  2  0  0  0
 27 30  1  0  0  0
 30 31  1  0  0  0
 30 32  1  0  0  0
 30 33  1  0  0  0
  4  8  1  0  0  0
  8  9  2  0  0  0
  9 10  1  0  0  0
 10 11  2  0  0  0
 11 12  1  0  0  0
 12 13  2  0  0  0
 13 14  1  0  0  0
 14 15  2  0  0  0
 15 16  1  0  0  0
 12 18  1  0  0  0
 18 19  1  0  0  0
 19 20  1  0  0  0
 20 21  1  0  0  0
 21 22  1  0  0  0
 22 23  1  0  0  0
  7  2  1  0  0  0
 29 24  1  0  0  0
 16  8  1  0  0  0
 23 18  1  0  0  0
 15 10  1  0  0  0
 16 17  1  0  0  0
M  END
> <minimizedAffinity>
-5.46571

> <CNNscore>
0.1088927686

> <CNNaffinity>
4.9750337601

> <CNN_VS>
0.5417451859

> <CNNaffinity_variance>
0.3775582314

$$$$
[H]c1c([H])c(C(F)(F)F)c([H])c([H])c1N1C([H])([H])C([H])([H])N(c2nc3c([H])c(N4C([H])([H])C([H])([H])OC([H])([H])C4([H])[H])c([H])c([H])c3n2[H])C([H])([H])[C@@]1([H])C([H])([H])[H]


 33 37  0  0  0  0  0  0  0  0999 V2000
   35.7090   11.6384  -12.7619 C   0  0  0  0  0  0  0  0  0  0  0  0
   36.3758   12.9442  -13.1386 C   0  0  0  0  0  0  0  0  0  0  0  0
   35.7370   14.1040  -12.3650 C   0  0  0  0  0  0  0  0  0  0  0  0
   34.3849   14.2828  -12.8131 N   0  0  0  0  0  0  0  0  0  0  0  0
   33.9854   14.0866  -14.1649 C   0  0  0  0  0  0  0  0  0  0  0  0
   35.1174   13.9250  -15.1091 C   0  0  0  0  0  0  0  0  0  0  0  0
   36.2274   13.2169  -14.5641 N   0  0  0  0  0  0  0  0  0  0  0  0
   33.4037   14.6521  -11.8257 C   0  0  0  0  0  0  0  0  0  0  0  0
   33.5354   15.5184  -10.8022 N   0  0  0  0  0  0  0  0  0  0  0  0
   32.3924   15.6418  -10.0984 C   0  0  0  0  0  0  0  0  0  0  0  0
   32.0429   16.4177   -8.9984 C   0  0  0  0  0  0  0  0  0  0  0  0
   30.7770   16.3737   -8.4864 C   0  0  0  0  0  0  0  0  0  0  0  0
   29.8660   15.5137   -9.1214 C   0  0  0  0  0  0  0  0  0  0  0  0
   30.2311   14.7536  -10.2085 C   0  0  0  0  0  0  0  0  0  0  0  0
   31.5056   14.8120  -10.7110 C   0  0  0  0  0  0  0  0  0  0  0  0
   32.1284   14.2251  -11.7442 N   0  0  0  0  0  0  0  0  0  0  0  0
   31.7273   13.5349  -12.4139 H   0  0  0  0  0  0  0  0  0  0  0  0
   30.3475   17.1580   -7.4070 N   0  0  0  0  0  0  0  0  0  0  0  0
   28.9638   17.2623   -7.0507 C   0  0  0  0  0  0  0  0  0  0  0  0
   28.7427   18.2443   -5.9202 C   0  0  0  0  0  0  0  0  0  0  0  0
   29.6894   18.2670   -4.9483 O   0  0  0  0  0  0  0  0  0  0  0  0
   30.8699   17.6311   -5.1498 C   0  0  0  0  0  0  0  0  0  0  0  0
   31.3214   17.8651   -6.5963 C   0  0  0  0  0  0  0  0  0  0  0  0
   37.2693   12.7582  -15.4137 C   0  0  0  0  0  0  0  0  0  0  0  0
   36.9699   11.8420  -16.4327 C   0  0  0  0  0  0  0  0  0  0  0  0
   37.9128   11.3647  -17.3082 C   0  0  0  0  0  0  0  0  0  0  0  0
   39.2374   11.7769  -17.2210 C   0  0  0  0  0  0  0  0  0  0  0  0
   39.5474   12.6754  -16.2240 C   0  0  0  0  0  0  0  0  0  0  0  0
   38.5819   13.1599  -15.3344 C   0  0  0  0  0  0  0  0  0  0  0  0
   40.2439   11.2369  -18.1795 C   0  0  0  0  0  0  0  0  0  0  0  0
   39.8347   11.4186  -19.5098 F   0  0  0  0  0  0  0  0  0  0  0  0
   40.4105    9.8645  -18.0431 F   0  0  0  0  0  0  0  0  0  0  0  0
   41.4285   11.8950  -18.0520 F   0  0  0  0  0  0  0  0  0  0  0  0
  1  2  1  0  0  0
  2  3  1  0  0  0
  3  4  1  0  0  0
  4  5  1  0  0  0
  5  6  1  0  0  0
  6  7  1  0  0  0
  7 24  1  0  0  0
 24 25  2  0  0  0
 25 26  1  0  0  0
 26 27  2  0  0  0
 27 28  1  0  0  0
 28 29  2  0  0  0
 27 30  1  0  0  0
 30 31  1  0  0  0
 30 32  1  0  0  0
 30 33  1  0  0  0
  4  8  1  0  0  0
  8  9  2  0  0  0
  9 10  1  0  0  0
 10 11  2  0  0  0
 11 12  1  0  0  0
 12 13  2  0  0  0
 13 14  1  0  0  0
 14 15  2  0  0  0
 15 16  1  0  0  0
 12 18  1  0  0  0
 18 19  1  0  0  0
 19 20  1  0  0  0
 20 21  1  0  0  0
 21 22  1  0  0  0
 22 23  1  0  0  0
  7  2  1  0  0  0
 29 24  1  0  0  0
 16  8  1  0  0  0
 23 18  1  0  0  0
 15 10  1  0  0  0
 16 17  1  0  0  0
M  END
> <minimizedAffinity>
-8.34656

> <CNNscore>
0.1079180092

> <CNNaffinity>
5.9504165649

> <CNN_VS>
0.6421571374

> <CNNaffinity_variance>
0.1800562292

$$$$
[H]c1c([H])c(C(F)(F)F)c([H])c([H])c1N1C([H])([H])C([H])([H])N(c2nc3c([H])c(N4C([H])([H])C([H])([H])OC([H])([H])C4([H])[H])c([H])c([H])c3n2[H])C([H])([H])[C@@]1([H])C([H])([H])[H]


 33 37  0  0  0  0  0  0  0  0999 V2000
   37.6643   15.0555  -10.2659 C   0  0  0  0  0  0  0  0  0  0  0  0
   37.6665   15.8866   -9.0006 C   0  0  0  0  0  0  0  0  0  0  0  0
   39.0117   16.6066   -8.8459 C   0  0  0  0  0  0  0  0  0  0  0  0
   40.0419   15.6363   -8.6050 N   0  0  0  0  0  0  0  0  0  0  0  0
   39.8291   14.4554   -7.8397 C   0  0  0  0  0  0  0  0  0  0  0  0
   38.5366   14.4347   -7.1129 C   0  0  0  0  0  0  0  0  0  0  0  0
   37.4649   15.0495   -7.8229 N   0  0  0  0  0  0  0  0  0  0  0  0
   41.3319   15.8798   -9.1971 C   0  0  0  0  0  0  0  0  0  0  0  0
   41.7189   15.6678  -10.4702 N   0  0  0  0  0  0  0  0  0  0  0  0
   42.9963   16.0455  -10.6764 C   0  0  0  0  0  0  0  0  0  0  0  0
   43.8085   16.0434  -11.8053 C   0  0  0  0  0  0  0  0  0  0  0  0
   45.0877   16.5197  -11.7466 C   0  0  0  0  0  0  0  0  0  0  0  0
   45.5285   17.0005  -10.5026 C   0  0  0  0  0  0  0  0  0  0  0  0
   44.7099   16.9937   -9.3969 C   0  0  0  0  0  0  0  0  0  0  0  0
   43.4276   16.5142   -9.4744 C   0  0  0  0  0  0  0  0  0  0  0  0
   42.4177   16.4066   -8.5978 N   0  0  0  0  0  0  0  0  0  0  0  0
   42.4232   16.6775   -7.5917 H   0  0  0  0  0  0  0  0  0  0  0  0
   45.9447   16.5839  -12.8538 N   0  0  0  0  0  0  0  0  0  0  0  0
   45.9189   17.6869  -13.7676 C   0  0  0  0  0  0  0  0  0  0  0  0
   46.8617   17.4785  -14.9334 C   0  0  0  0  0  0  0  0  0  0  0  0
   48.0401   16.8668  -14.6531 O   0  0  0  0  0  0  0  0  0  0  0  0
   48.2091   16.2592  -13.4528 C   0  0  0  0  0  0  0  0  0  0  0  0
   46.9146   15.5281  -13.0778 C   0  0  0  0  0  0  0  0  0  0  0  0
   36.1254   14.8809   -7.3811 C   0  0  0  0  0  0  0  0  0  0  0  0
   35.0818   15.4556   -8.1213 C   0  0  0  0  0  0  0  0  0  0  0  0
   33.7604   15.3238   -7.7752 C   0  0  0  0  0  0  0  0  0  0  0  0
   33.3892   14.5991   -6.6487 C   0  0  0  0  0  0  0  0  0  0  0  0
   34.4033   14.0299   -5.9103 C   0  0  0  0  0  0  0  0  0  0  0  0
   35.7492   14.1663   -6.2682 C   0  0  0  0  0  0  0  0  0  0  0  0
   31.9469   14.4779   -6.2902 C   0  0  0  0  0  0  0  0  0  0  0  0
   31.1328   14.4708   -7.4335 F   0  0  0  0  0  0  0  0  0  0  0  0
   31.5021   15.5618   -5.5436 F   0  0  0  0  0  0  0  0  0  0  0  0
   31.7102   13.3023   -5.6464 F   0  0  0  0  0  0  0  0  0  0  0  0
  1  2  1  0  0  0
  2  3  1  0  0  0
  3  4  1  0  0  0
  4  5  1  0  0  0
  5  6  1  0  0  0
  6  7  1  0  0  0
  7 24  1  0  0  0
 24 25  2  0  0  0
 25 26  1  0  0  0
 26 27  2  0  0  0
 27 28  1  0  0  0
 28 29  2  0  0  0
 27 30  1  0  0  0
 30 31  1  0  0  0
 30 32  1  0  0  0
 30 33  1  0  0  0
  4  8  1  0  0  0
  8  9  2  0  0  0
  9 10  1  0  0  0
 10 11  2  0  0  0
 11 12  1  0  0  0
 12 13  2  0  0  0
 13 14  1  0  0  0
 14 15  2  0  0  0
 15 16  1  0  0  0
 12 18  1  0  0  0
 18 19  1  0  0  0
 19 20  1  0  0  0
 20 21  1  0  0  0
 21 22  1  0  0  0
 22 23  1  0  0  0
  7  2  1  0  0  0
 29 24  1  0  0  0
 16  8  1  0  0  0
 23 18  1  0  0  0
 15 10  1  0  0  0
 16 17  1  0  0  0
M  END
> <minimizedAffinity>
-6.28493

> <CNNscore>
0.0871987641

> <CNNaffinity>
4.8752813339

> <CNN_VS>
0.4251185060

> <CNNaffinity_variance>
0.2862804532

$$$$
[H]c1c([H])c(Oc2c([H])c([H])c(C#N)c([H])c2[H])c(N2C([H])([H])C([H])([H])N(c3c([H])c([H])c(C#N)c([H])c3[H])[C@]([H])(C([H])([H])[H])C2([H])[H])c([H])c1F


 31 34  0  0  0  0  0  0  0  0999 V2000
   40.0348   12.3784  -16.3093 C   0  0  0  0  0  0  0  0  0  0  0  0
   40.4800   11.9745  -17.5824 C   0  0  0  0  0  0  0  0  0  0  0  0
   39.7374   11.1856  -18.4200 C   0  0  0  0  0  0  0  0  0  0  0  0
   40.1979   10.8082  -19.6551 F   0  0  0  0  0  0  0  0  0  0  0  0
   38.4951   10.7708  -17.9894 C   0  0  0  0  0  0  0  0  0  0  0  0
   38.0344   11.1385  -16.7740 C   0  0  0  0  0  0  0  0  0  0  0  0
   38.8031   11.9533  -15.9107 C   0  0  0  0  0  0  0  0  0  0  0  0
   44.5565   13.7312  -14.9741 C   0  0  0  0  0  0  0  0  0  0  0  0
   43.1682   13.2400  -14.6529 C   0  0  0  0  0  0  0  0  0  0  0  0
   42.2913   13.4621  -15.8731 C   0  0  0  0  0  0  0  0  0  0  0  0
   40.9370   13.1891  -15.5836 N   0  0  0  0  0  0  0  0  0  0  0  0
   40.3791   13.8193  -14.3738 C   0  0  0  0  0  0  0  0  0  0  0  0
   41.4101   14.6712  -13.6581 C   0  0  0  0  0  0  0  0  0  0  0  0
   42.6255   13.9269  -13.4888 N   0  0  0  0  0  0  0  0  0  0  0  0
   43.2645   13.8590  -12.2207 C   0  0  0  0  0  0  0  0  0  0  0  0
   43.2028   14.9484  -11.3507 C   0  0  0  0  0  0  0  0  0  0  0  0
   43.7928   14.9067  -10.1289 C   0  0  0  0  0  0  0  0  0  0  0  0
   44.4677   13.7901   -9.7141 C   0  0  0  0  0  0  0  0  0  0  0  0
   44.5436   12.7139  -10.5416 C   0  0  0  0  0  0  0  0  0  0  0  0
   43.9384   12.7557  -11.7958 C   0  0  0  0  0  0  0  0  0  0  0  0
   45.1049   13.7256   -8.4128 C   0  0  0  0  0  0  0  0  0  0  0  0
   45.6108   13.6627   -7.3708 N   0  0  0  0  0  0  0  0  0  0  0  0
   38.2789   12.2764  -14.7041 O   0  0  0  0  0  0  0  0  0  0  0  0
   37.0888   12.7499  -14.2789 C   0  0  0  0  0  0  0  0  0  0  0  0
   36.2649   13.6153  -14.9939 C   0  0  0  0  0  0  0  0  0  0  0  0
   35.0577   14.0586  -14.5002 C   0  0  0  0  0  0  0  0  0  0  0  0
   34.6093   13.6543  -13.2539 C   0  0  0  0  0  0  0  0  0  0  0  0
   35.4153   12.7962  -12.5331 C   0  0  0  0  0  0  0  0  0  0  0  0
   36.6225   12.3501  -13.0213 C   0  0  0  0  0  0  0  0  0  0  0  0
   33.3498   14.1085  -12.7235 C   0  0  0  0  0  0  0  0  0  0  0  0
   32.3548   14.4869  -12.2949 N   0  0  0  0  0  0  0  0  0  0  0  0
  8  9  1  0  0  0
  9 10  1  0  0  0
 10 11  1  0  0  0
 11 12  1  0  0  0
 12 13  1  0  0  0
 13 14  1  0  0  0
 14 15  1  0  0  0
 15 16  2  0  0  0
 16 17  1  0  0  0
 17 18  2  0  0  0
 18 19  1  0  0  0
 19 20  2  0  0  0
 18 21  1  0  0  0
 21 22  3  0  0  0
 11  1  1  0  0  0
  1  2  2  0  0  0
  2  3  1  0  0  0
  3  4  1  0  0  0
  3  5  2  0  0  0
  5  6  1  0  0  0
  6  7  2  0  0  0
  7 23  1  0  0  0
 23 24  1  0  0  0
 24 25  2  0  0  0
 25 26  1  0  0  0
 26 27  2  0  0  0
 27 28  1  0  0  0
 28 29  2  0  0  0
 27 30  1  0  0  0
 30 31  3  0  0  0
 14  9  1  0  0  0
 20 15  1  0  0  0
  7  1  1  0  0  0
 29 24  1  0  0  0
M  END
> <minimizedAffinity>
-8.18633

> <CNNscore>
0.3729270399

> <CNNaffinity>
6.7655172348

> <CNN_VS>
2.5230443478

> <CNNaffinity_variance>
0.0489773080

$$$$
[H]c1c([H])c(Oc2c([H])c([H])c(C#N)c([H])c2[H])c(N2C([H])([H])C([H])([H])N(c3c([H])c([H])c(C#N)c([H])c3[H])[C@]([H])(C([H])([H])[H])C2([H])[H])c([H])c1F


 31 34  0  0  0  0  0  0  0  0999 V2000
   38.3685   11.9612  -16.6545 C   0  0  0  0  0  0  0  0  0  0  0  0
   37.8547   11.1331  -17.6705 C   0  0  0  0  0  0  0  0  0  0  0  0
   38.5635   10.7975  -18.7933 C   0  0  0  0  0  0  0  0  0  0  0  0
   38.0363    9.9883  -19.7664 F   0  0  0  0  0  0  0  0  0  0  0  0
   39.8410   11.2983  -18.9283 C   0  0  0  0  0  0  0  0  0  0  0  0
   40.3675   12.0961  -17.9739 C   0  0  0  0  0  0  0  0  0  0  0  0
   39.6336   12.4412  -16.8153 C   0  0  0  0  0  0  0  0  0  0  0  0
   34.4902   14.1541  -14.6032 C   0  0  0  0  0  0  0  0  0  0  0  0
   35.9615   13.8307  -14.6506 C   0  0  0  0  0  0  0  0  0  0  0  0
   36.1629   12.6727  -15.6127 C   0  0  0  0  0  0  0  0  0  0  0  0
   37.4928   12.2015  -15.5714 N   0  0  0  0  0  0  0  0  0  0  0  0
   38.0546   11.9226  -14.2377 C   0  0  0  0  0  0  0  0  0  0  0  0
   37.0511   12.2040  -13.1356 C   0  0  0  0  0  0  0  0  0  0  0  0
   36.4689   13.5020  -13.3255 N   0  0  0  0  0  0  0  0  0  0  0  0
   36.4046   14.4328  -12.2528 C   0  0  0  0  0  0  0  0  0  0  0  0
   37.5573   15.1051  -11.8443 C   0  0  0  0  0  0  0  0  0  0  0  0
   37.5227   16.0084  -10.8316 C   0  0  0  0  0  0  0  0  0  0  0  0
   36.3512   16.2863  -10.1799 C   0  0  0  0  0  0  0  0  0  0  0  0
   35.2128   15.6457  -10.5573 C   0  0  0  0  0  0  0  0  0  0  0  0
   35.2472   14.7185  -11.5966 C   0  0  0  0  0  0  0  0  0  0  0  0
   36.2932   17.2477   -9.0955 C   0  0  0  0  0  0  0  0  0  0  0  0
   36.2425   18.0249   -8.2359 N   0  0  0  0  0  0  0  0  0  0  0  0
   40.2241   13.2511  -15.9039 O   0  0  0  0  0  0  0  0  0  0  0  0
   41.4494   13.3186  -15.3426 C   0  0  0  0  0  0  0  0  0  0  0  0
   42.6404   12.9501  -15.9628 C   0  0  0  0  0  0  0  0  0  0  0  0
   43.8605   13.0477  -15.3309 C   0  0  0  0  0  0  0  0  0  0  0  0
   43.9517   13.5235  -14.0336 C   0  0  0  0  0  0  0  0  0  0  0  0
   42.7793   13.8928  -13.4055 C   0  0  0  0  0  0  0  0  0  0  0  0
   41.5574   13.7975  -14.0319 C   0  0  0  0  0  0  0  0  0  0  0  0
   45.2195   13.6317  -13.3591 C   0  0  0  0  0  0  0  0  0  0  0  0
   46.2270   13.7371  -12.8198 N   0  0  0  0  0  0  0  0  0  0  0  0
  8  9  1  0  0  0
  9 10  1  0  0  0
 10 11  1  0  0  0
 11 12  1  0  0  0
 12 13  1  0  0  0
 13 14  1  0  0  0
 14 15  1  0  0  0
 15 16  2  0  0  0
 16 17  1  0  0  0
 17 18  2  0  0  0
 18 19  1  0  0  0
 19 20  2  0  0  0
 18 21  1  0  0  0
 21 22  3  0  0  0
 11  1  1  0  0  0
  1  2  2  0  0  0
  2  3  1  0  0  0
  3  4  1  0  0  0
  3  5  2  0  0  0
  5  6  1  0  0  0
  6  7  2  0  0  0
  7 23  1  0  0  0
 23 24  1  0  0  0
 24 25  2  0  0  0
 25 26  1  0  0  0
 26 27  2  0  0  0
 27 28  1  0  0  0
 28 29  2  0  0  0
 27 30  1  0  0  0
 30 31  3  0  0  0
 14  9  1  0  0  0
 20 15  1  0  0  0
  7  1  1  0  0  0
 29 24  1  0  0  0
M  END
> <minimizedAffinity>
-8.77154

> <CNNscore>
0.2540942729

> <CNNaffinity>
6.9020423889

> <CNN_VS>
1.7537693977

> <CNNaffinity_variance>
0.1601441205

$$$$
[H]c1c([H])c(Oc2c([H])c([H])c(C#N)c([H])c2[H])c(N2C([H])([H])C([H])([H])N(c3c([H])c([H])c(C#N)c([H])c3[H])[C@]([H])(C([H])([H])[H])C2([H])[H])c([H])c1F


 31 34  0  0  0  0  0  0  0  0999 V2000
   35.4745   12.3742  -14.8948 C   0  0  0  0  0  0  0  0  0  0  0  0
   34.3984   11.6801  -15.4800 C   0  0  0  0  0  0  0  0  0  0  0  0
   34.4712   11.0871  -16.7123 C   0  0  0  0  0  0  0  0  0  0  0  0
   33.4059   10.4175  -17.2567 F   0  0  0  0  0  0  0  0  0  0  0  0
   35.6584   11.1781  -17.4075 C   0  0  0  0  0  0  0  0  0  0  0  0
   36.7126   11.8361  -16.8778 C   0  0  0  0  0  0  0  0  0  0  0  0
   36.6351   12.4476  -15.6051 C   0  0  0  0  0  0  0  0  0  0  0  0
   33.1294   15.4525  -11.8810 C   0  0  0  0  0  0  0  0  0  0  0  0
   34.3888   14.9009  -12.4987 C   0  0  0  0  0  0  0  0  0  0  0  0
   34.0496   13.5826  -13.1726 C   0  0  0  0  0  0  0  0  0  0  0  0
   35.2155   12.9237  -13.6186 N   0  0  0  0  0  0  0  0  0  0  0  0
   36.3114   12.7855  -12.6428 C   0  0  0  0  0  0  0  0  0  0  0  0
   35.9507   13.3980  -11.3028 C   0  0  0  0  0  0  0  0  0  0  0  0
   35.4294   14.7212  -11.4956 N   0  0  0  0  0  0  0  0  0  0  0  0
   35.9266   15.8152  -10.7360 C   0  0  0  0  0  0  0  0  0  0  0  0
   35.3580   16.1191   -9.4983 C   0  0  0  0  0  0  0  0  0  0  0  0
   35.8209   17.1498   -8.7460 C   0  0  0  0  0  0  0  0  0  0  0  0
   36.8629   17.9233   -9.1821 C   0  0  0  0  0  0  0  0  0  0  0  0
   37.4359   17.6496  -10.3844 C   0  0  0  0  0  0  0  0  0  0  0  0
   36.9616   16.5919  -11.1573 C   0  0  0  0  0  0  0  0  0  0  0  0
   37.3720   19.0290   -8.3935 C   0  0  0  0  0  0  0  0  0  0  0  0
   37.7769   19.9208   -7.7720 N   0  0  0  0  0  0  0  0  0  0  0  0
   37.7304   13.0957  -15.1410 O   0  0  0  0  0  0  0  0  0  0  0  0
   39.0533   13.0362  -15.4011 C   0  0  0  0  0  0  0  0  0  0  0  0
   39.6254   12.4746  -16.5396 C   0  0  0  0  0  0  0  0  0  0  0  0
   40.9875   12.4501  -16.7436 C   0  0  0  0  0  0  0  0  0  0  0  0
   41.8547   12.9916  -15.8095 C   0  0  0  0  0  0  0  0  0  0  0  0
   41.3023   13.5522  -14.6755 C   0  0  0  0  0  0  0  0  0  0  0  0
   39.9421   13.5795  -14.4664 C   0  0  0  0  0  0  0  0  0  0  0  0
   43.2810   12.9740  -16.0079 C   0  0  0  0  0  0  0  0  0  0  0  0
   44.4154   12.9720  -16.1811 N   0  0  0  0  0  0  0  0  0  0  0  0
  8  9  1  0  0  0
  9 10  1  0  0  0
 10 11  1  0  0  0
 11 12  1  0  0  0
 12 13  1  0  0  0
 13 14  1  0  0  0
 14 15  1  0  0  0
 15 16  2  0  0  0
 16 17  1  0  0  0
 17 18  2  0  0  0
 18 19  1  0  0  0
 19 20  2  0  0  0
 18 21  1  0  0  0
 21 22  3  0  0  0
 11  1  1  0  0  0
  1  2  2  0  0  0
  2  3  1  0  0  0
  3  4  1  0  0  0
  3  5  2  0  0  0
  5  6  1  0  0  0
  6  7  2  0  0  0
  7 23  1  0  0  0
 23 24  1  0  0  0
 24 25  2  0  0  0
 25 26  1  0  0  0
 26 27  2  0  0  0
 27 28  1  0  0  0
 28 29  2  0  0  0
 27 30  1  0  0  0
 30 31  3  0  0  0
 14  9  1  0  0  0
 20 15  1  0  0  0
  7  1  1  0  0  0
 29 24  1  0  0  0
M  END
> <minimizedAffinity>
-8.28780

> <CNNscore>
0.2408238202

> <CNNaffinity>
6.6979012489

> <CNN_VS>
1.6130142212

> <CNNaffinity_variance>
0.2104337662

$$$$
[H]c1c([H])c(Oc2c([H])c([H])c(C#N)c([H])c2[H])c(N2C([H])([H])C([H])([H])N(c3c([H])c([H])c(C#N)c([H])c3[H])[C@]([H])(C([H])([H])[H])C2([H])[H])c([H])c1F


 31 34  0  0  0  0  0  0  0  0999 V2000
   36.4671   13.5761  -13.9993 C   0  0  0  0  0  0  0  0  0  0  0  0
   35.2108   12.9491  -14.1038 C   0  0  0  0  0  0  0  0  0  0  0  0
   34.9229   12.0020  -15.0503 C   0  0  0  0  0  0  0  0  0  0  0  0
   33.6894   11.4085  -15.1275 F   0  0  0  0  0  0  0  0  0  0  0  0
   35.9157   11.6506  -15.9401 C   0  0  0  0  0  0  0  0  0  0  0  0
   37.1336   12.2308  -15.8703 C   0  0  0  0  0  0  0  0  0  0  0  0
   37.4286   13.2085  -14.8921 C   0  0  0  0  0  0  0  0  0  0  0  0
   38.9505   15.8411  -10.4271 C   0  0  0  0  0  0  0  0  0  0  0  0
   37.7780   15.0348  -10.9239 C   0  0  0  0  0  0  0  0  0  0  0  0
   37.7540   15.1157  -12.4405 C   0  0  0  0  0  0  0  0  0  0  0  0
   36.5806   14.5309  -12.9633 N   0  0  0  0  0  0  0  0  0  0  0  0
   35.3044   14.9573  -12.3619 C   0  0  0  0  0  0  0  0  0  0  0  0
   35.5160   15.9817  -11.2633 C   0  0  0  0  0  0  0  0  0  0  0  0
   36.5285   15.5221  -10.3560 N   0  0  0  0  0  0  0  0  0  0  0  0
   36.3053   15.5353   -8.9520 C   0  0  0  0  0  0  0  0  0  0  0  0
   35.9237   16.7189   -8.3188 C   0  0  0  0  0  0  0  0  0  0  0  0
   35.6916   16.7578   -6.9819 C   0  0  0  0  0  0  0  0  0  0  0  0
   35.8258   15.6323   -6.2140 C   0  0  0  0  0  0  0  0  0  0  0  0
   36.1965   14.4652   -6.8050 C   0  0  0  0  0  0  0  0  0  0  0  0
   36.4350   14.4242   -8.1771 C   0  0  0  0  0  0  0  0  0  0  0  0
   35.5827   15.6529   -4.7844 C   0  0  0  0  0  0  0  0  0  0  0  0
   35.3973   15.6773   -3.6396 N   0  0  0  0  0  0  0  0  0  0  0  0
   38.6696   13.7516  -14.8870 O   0  0  0  0  0  0  0  0  0  0  0  0
   39.8820   13.3602  -15.3323 C   0  0  0  0  0  0  0  0  0  0  0  0
   40.1275   12.7298  -16.5493 C   0  0  0  0  0  0  0  0  0  0  0  0
   41.3940   12.3588  -16.9440 C   0  0  0  0  0  0  0  0  0  0  0  0
   42.4898   12.6022  -16.1330 C   0  0  0  0  0  0  0  0  0  0  0  0
   42.2622   13.2267  -14.9232 C   0  0  0  0  0  0  0  0  0  0  0  0
   40.9989   13.5996  -14.5236 C   0  0  0  0  0  0  0  0  0  0  0  0
   43.8202   12.2207  -16.5311 C   0  0  0  0  0  0  0  0  0  0  0  0
   44.8739   11.8987  -16.8521 N   0  0  0  0  0  0  0  0  0  0  0  0
  8  9  1  0  0  0
  9 10  1  0  0  0
 10 11  1  0  0  0
 11 12  1  0  0  0
 12 13  1  0  0  0
 13 14  1  0  0  0
 14 15  1  0  0  0
 15 16  2  0  0  0
 16 17  1  0  0  0
 17 18  2  0  0  0
 18 19  1  0  0  0
 19 20  2  0  0  0
 18 21  1  0  0  0
 21 22  3  0  0  0
 11  1  1  0  0  0
  1  2  2  0  0  0
  2  3  1  0  0  0
  3  4  1  0  0  0
  3  5  2  0  0  0
  5  6  1  0  0  0
  6  7  2  0  0  0
  7 23  1  0  0  0
 23 24  1  0  0  0
 24 25  2  0  0  0
 25 26  1  0  0  0
 26 27  2  0  0  0
 27 28  1  0  0  0
 28 29  2  0  0  0
 27 30  1  0  0  0
 30 31  3  0  0  0
 14  9  1  0  0  0
 20 15  1  0  0  0
  7  1  1  0  0  0
 29 24  1  0  0  0
M  END
> <minimizedAffinity>
-8.52402

> <CNNscore>
0.2289490998

> <CNNaffinity>
6.3678293228

> <CNN_VS>
1.4579087496

> <CNNaffinity_variance>
0.2047071904

$$$$
[H]c1c([H])c(Oc2c([H])c([H])c(C#N)c([H])c2[H])c(N2C([H])([H])C([H])([H])N(c3c([H])c([H])c(C#N)c([H])c3[H])[C@]([H])(C([H])([H])[H])C2([H])[H])c([H])c1F


 31 34  0  0  0  0  0  0  0  0999 V2000
   36.5620   13.4661  -14.0310 C   0  0  0  0  0  0  0  0  0  0  0  0
   35.3640   12.7989  -14.3499 C   0  0  0  0  0  0  0  0  0  0  0  0
   35.2497   11.9246  -15.3979 C   0  0  0  0  0  0  0  0  0  0  0  0
   34.0690   11.2893  -15.6842 F   0  0  0  0  0  0  0  0  0  0  0  0
   36.3655   11.6915  -16.1735 C   0  0  0  0  0  0  0  0  0  0  0  0
   37.5324   12.3135  -15.8977 C   0  0  0  0  0  0  0  0  0  0  0  0
   37.6481   13.2159  -14.8150 C   0  0  0  0  0  0  0  0  0  0  0  0
   38.4459   15.5219   -9.9958 C   0  0  0  0  0  0  0  0  0  0  0  0
   37.3907   14.7119  -10.7045 C   0  0  0  0  0  0  0  0  0  0  0  0
   37.5561   14.9206  -12.1999 C   0  0  0  0  0  0  0  0  0  0  0  0
   36.4916   14.3332  -12.9170 N   0  0  0  0  0  0  0  0  0  0  0  0
   35.1283   14.6525  -12.4568 C   0  0  0  0  0  0  0  0  0  0  0  0
   35.1435   15.5877  -11.2626 C   0  0  0  0  0  0  0  0  0  0  0  0
   36.0549   15.0957  -10.2691 N   0  0  0  0  0  0  0  0  0  0  0  0
   35.6540   14.9800   -8.9101 C   0  0  0  0  0  0  0  0  0  0  0  0
   34.5332   15.6746   -8.4531 C   0  0  0  0  0  0  0  0  0  0  0  0
   34.1202   15.5728   -7.1640 C   0  0  0  0  0  0  0  0  0  0  0  0
   34.7944   14.7824   -6.2723 C   0  0  0  0  0  0  0  0  0  0  0  0
   35.8900   14.0943   -6.6905 C   0  0  0  0  0  0  0  0  0  0  0  0
   36.3147   14.1981   -8.0134 C   0  0  0  0  0  0  0  0  0  0  0  0
   34.3695   14.6603   -4.8910 C   0  0  0  0  0  0  0  0  0  0  0  0
   34.0191   14.5581   -3.7900 N   0  0  0  0  0  0  0  0  0  0  0  0
   38.8482   13.8074  -14.6029 O   0  0  0  0  0  0  0  0  0  0  0  0
   40.1224   13.5260  -14.9470 C   0  0  0  0  0  0  0  0  0  0  0  0
   41.2385   13.7336  -14.1408 C   0  0  0  0  0  0  0  0  0  0  0  0
   42.5144   13.4202  -14.5548 C   0  0  0  0  0  0  0  0  0  0  0  0
   42.7404   12.8779  -15.8088 C   0  0  0  0  0  0  0  0  0  0  0  0
   41.6435   12.6661  -16.6196 C   0  0  0  0  0  0  0  0  0  0  0  0
   40.3664   12.9774  -16.2113 C   0  0  0  0  0  0  0  0  0  0  0  0
   44.0680   12.5447  -16.2565 C   0  0  0  0  0  0  0  0  0  0  0  0
   45.1185   12.2736  -16.6305 N   0  0  0  0  0  0  0  0  0  0  0  0
  8  9  1  0  0  0
  9 10  1  0  0  0
 10 11  1  0  0  0
 11 12  1  0  0  0
 12 13  1  0  0  0
 13 14  1  0  0  0
 14 15  1  0  0  0
 15 16  2  0  0  0
 16 17  1  0  0  0
 17 18  2  0  0  0
 18 19  1  0  0  0
 19 20  2  0  0  0
 18 21  1  0  0  0
 21 22  3  0  0  0
 11  1  1  0  0  0
  1  2  2  0  0  0
  2  3  1  0  0  0
  3  4  1  0  0  0
  3  5  2  0  0  0
  5  6  1  0  0  0
  6  7  2  0  0  0
  7 23  1  0  0  0
 23 24  1  0  0  0
 24 25  2  0  0  0
 25 26  1  0  0  0
 26 27  2  0  0  0
 27 28  1  0  0  0
 28 29  2  0  0  0
 27 30  1  0  0  0
 30 31  3  0  0  0
 14  9  1  0  0  0
 20 15  1  0  0  0
  7  1  1  0  0  0
 29 24  1  0  0  0
M  END
> <minimizedAffinity>
-8.85844

> <CNNscore>
0.2214711756

> <CNNaffinity>
6.3466272354

> <CNN_VS>
1.4055949450

> <CNNaffinity_variance>
0.2123205662

$$$$
[H]c1c([H])c(Oc2c([H])c([H])c(C#N)c([H])c2[H])c(N2C([H])([H])C([H])([H])N(c3c([H])c([H])c(C#N)c([H])c3[H])[C@]([H])(C([H])([H])[H])C2([H])[H])c([H])c1F


 31 34  0  0  0  0  0  0  0  0999 V2000
   39.1331   12.2145  -16.3358 C   0  0  0  0  0  0  0  0  0  0  0  0
   38.3257   11.4471  -17.1968 C   0  0  0  0  0  0  0  0  0  0  0  0
   38.7168   11.0734  -18.4550 C   0  0  0  0  0  0  0  0  0  0  0  0
   37.9082   10.3252  -19.2712 F   0  0  0  0  0  0  0  0  0  0  0  0
   39.9621   11.4712  -18.8928 C   0  0  0  0  0  0  0  0  0  0  0  0
   40.7646   12.2084  -18.0945 C   0  0  0  0  0  0  0  0  0  0  0  0
   40.3587   12.5931  -16.7956 C   0  0  0  0  0  0  0  0  0  0  0  0
   36.2862   11.1262  -12.4927 C   0  0  0  0  0  0  0  0  0  0  0  0
   36.6758   12.0126  -13.6478 C   0  0  0  0  0  0  0  0  0  0  0  0
   38.0628   11.6043  -14.1135 C   0  0  0  0  0  0  0  0  0  0  0  0
   38.5633   12.5074  -15.0759 N   0  0  0  0  0  0  0  0  0  0  0  0
   38.4870   13.9407  -14.7408 C   0  0  0  0  0  0  0  0  0  0  0  0
   37.8667   14.1657  -13.3750 C   0  0  0  0  0  0  0  0  0  0  0  0
   36.6473   13.4172  -13.2635 N   0  0  0  0  0  0  0  0  0  0  0  0
   35.4540   14.0379  -12.8031 C   0  0  0  0  0  0  0  0  0  0  0  0
   34.2230   13.6702  -13.3481 C   0  0  0  0  0  0  0  0  0  0  0  0
   33.0667   14.2370  -12.9187 C   0  0  0  0  0  0  0  0  0  0  0  0
   33.0757   15.1891  -11.9350 C   0  0  0  0  0  0  0  0  0  0  0  0
   34.2612   15.5664  -11.3863 C   0  0  0  0  0  0  0  0  0  0  0  0
   35.4486   14.9852  -11.8262 C   0  0  0  0  0  0  0  0  0  0  0  0
   31.8515   15.8068  -11.4626 C   0  0  0  0  0  0  0  0  0  0  0  0
   30.8675   16.2899  -11.0831 N   0  0  0  0  0  0  0  0  0  0  0  0
   41.2138   13.3378  -16.0544 O   0  0  0  0  0  0  0  0  0  0  0  0
   42.4897   13.1919  -15.6397 C   0  0  0  0  0  0  0  0  0  0  0  0
   43.0071   13.6772  -14.4415 C   0  0  0  0  0  0  0  0  0  0  0  0
   44.3224   13.4895  -14.0778 C   0  0  0  0  0  0  0  0  0  0  0  0
   45.1952   12.8000  -14.9027 C   0  0  0  0  0  0  0  0  0  0  0  0
   44.6968   12.3127  -16.0942 C   0  0  0  0  0  0  0  0  0  0  0  0
   43.3835   12.4972  -16.4628 C   0  0  0  0  0  0  0  0  0  0  0  0
   46.5730   12.5952  -14.5371 C   0  0  0  0  0  0  0  0  0  0  0  0
   47.6724   12.4182  -14.2594 N   0  0  0  0  0  0  0  0  0  0  0  0
  8  9  1  0  0  0
  9 10  1  0  0  0
 10 11  1  0  0  0
 11 12  1  0  0  0
 12 13  1  0  0  0
 13 14  1  0  0  0
 14 15  1  0  0  0
 15 16  2  0  0  0
 16 17  1  0  0  0
 17 18  2  0  0  0
 18 19  1  0  0  0
 19 20  2  0  0  0
 18 21  1  0  0  0
 21 22  3  0  0  0
 11  1  1  0  0  0
  1  2  2  0  0  0
  2  3  1  0  0  0
  3  4  1  0  0  0
  3  5  2  0  0  0
  5  6  1  0  0  0
  6  7  2  0  0  0
  7 23  1  0  0  0
 23 24  1  0  0  0
 24 25  2  0  0  0
 25 26  1  0  0  0
 26 27  2  0  0  0
 27 28  1  0  0  0
 28 29  2  0  0  0
 27 30  1  0  0  0
 30 31  3  0  0  0
 14  9  1  0  0  0
 20 15  1  0  0  0
  7  1  1  0  0  0
 29 24  1  0  0  0
M  END
> <minimizedAffinity>
-7.05722

> <CNNscore>
0.1821470112

> <CNNaffinity>
6.6241025925

> <CNN_VS>
1.2065604925

> <CNNaffinity_variance>
0.0234262608

$$$$
[H]c1c([H])c(Oc2c([H])c([H])c(C#N)c([H])c2[H])c(N2C([H])([H])C([H])([H])N(c3c([H])c([H])c(C#N)c([H])c3[H])[C@]([H])(C([H])([H])[H])C2([H])[H])c([H])c1F


 31 34  0  0  0  0  0  0  0  0999 V2000
   38.5956   12.5892  -15.8769 C   0  0  0  0  0  0  0  0  0  0  0  0
   38.7302   11.5968  -16.8665 C   0  0  0  0  0  0  0  0  0  0  0  0
   37.6771   10.8547  -17.3310 C   0  0  0  0  0  0  0  0  0  0  0  0
   37.8390    9.8945  -18.2961 F   0  0  0  0  0  0  0  0  0  0  0  0
   36.4280   11.0965  -16.7996 C   0  0  0  0  0  0  0  0  0  0  0  0
   36.2604   12.0409  -15.8485 C   0  0  0  0  0  0  0  0  0  0  0  0
   37.3494   12.8061  -15.3704 C   0  0  0  0  0  0  0  0  0  0  0  0
   43.4172   13.3845  -16.2992 C   0  0  0  0  0  0  0  0  0  0  0  0
   42.1983   13.0122  -15.4945 C   0  0  0  0  0  0  0  0  0  0  0  0
   40.9655   13.4083  -16.2886 C   0  0  0  0  0  0  0  0  0  0  0  0
   39.7923   13.2513  -15.5197 N   0  0  0  0  0  0  0  0  0  0  0  0
   39.8011   13.8449  -14.1707 C   0  0  0  0  0  0  0  0  0  0  0  0
   41.1176   14.5357  -13.8699 C   0  0  0  0  0  0  0  0  0  0  0  0
   42.2110   13.6637  -14.1920 N   0  0  0  0  0  0  0  0  0  0  0  0
   43.2608   13.4410  -13.2596 C   0  0  0  0  0  0  0  0  0  0  0  0
   44.5103   13.0099  -13.7077 C   0  0  0  0  0  0  0  0  0  0  0  0
   45.5343   12.8015  -12.8413 C   0  0  0  0  0  0  0  0  0  0  0  0
   45.3695   13.0092  -11.4981 C   0  0  0  0  0  0  0  0  0  0  0  0
   44.1625   13.4292  -11.0339 C   0  0  0  0  0  0  0  0  0  0  0  0
   43.1108   13.6435  -11.9223 C   0  0  0  0  0  0  0  0  0  0  0  0
   46.4508   12.7921  -10.5563 C   0  0  0  0  0  0  0  0  0  0  0  0
   47.3087   12.6229   -9.7941 N   0  0  0  0  0  0  0  0  0  0  0  0
   37.1067   13.7310  -14.4108 O   0  0  0  0  0  0  0  0  0  0  0  0
   36.0185   14.1128  -13.7099 C   0  0  0  0  0  0  0  0  0  0  0  0
   36.0404   14.8314  -12.5175 C   0  0  0  0  0  0  0  0  0  0  0  0
   34.8884   15.1918  -11.8538 C   0  0  0  0  0  0  0  0  0  0  0  0
   33.6439   14.8482  -12.3546 C   0  0  0  0  0  0  0  0  0  0  0  0
   33.6060   14.1357  -13.5362 C   0  0  0  0  0  0  0  0  0  0  0  0
   34.7538   13.7727  -14.2037 C   0  0  0  0  0  0  0  0  0  0  0  0
   32.4302   15.2175  -11.6730 C   0  0  0  0  0  0  0  0  0  0  0  0
   31.4549   15.5160  -11.1470 N   0  0  0  0  0  0  0  0  0  0  0  0
  8  9  1  0  0  0
  9 10  1  0  0  0
 10 11  1  0  0  0
 11 12  1  0  0  0
 12 13  1  0  0  0
 13 14  1  0  0  0
 14 15  1  0  0  0
 15 16  2  0  0  0
 16 17  1  0  0  0
 17 18  2  0  0  0
 18 19  1  0  0  0
 19 20  2  0  0  0
 18 21  1  0  0  0
 21 22  3  0  0  0
 11  1  1  0  0  0
  1  2  2  0  0  0
  2  3  1  0  0  0
  3  4  1  0  0  0
  3  5  2  0  0  0
  5  6  1  0  0  0
  6  7  2  0  0  0
  7 23  1  0  0  0
 23 24  1  0  0  0
 24 25  2  0  0  0
 25 26  1  0  0  0
 26 27  2  0  0  0
 27 28  1  0  0  0
 28 29  2  0  0  0
 27 30  1  0  0  0
 30 31  3  0  0  0
 14  9  1  0  0  0
 20 15  1  0  0  0
  7  1  1  0  0  0
 29 24  1  0  0  0
M  END
> <minimizedAffinity>
-8.12760

> <CNNscore>
0.1682359129

> <CNNaffinity>
6.5228338242

> <CNN_VS>
1.0973749161

> <CNNaffinity_variance>
0.0719131082

$$$$
[H]c1c([H])c(Oc2c([H])c([H])c(C#N)c([H])c2[H])c(N2C([H])([H])C([H])([H])N(c3c([H])c([H])c(C#N)c([H])c3[H])[C@]([H])(C([H])([H])[H])C2([H])[H])c([H])c1F


 31 34  0  0  0  0  0  0  0  0999 V2000
   40.7620   13.0402  -15.2943 C   0  0  0  0  0  0  0  0  0  0  0  0
   41.2675   12.6573  -16.5513 C   0  0  0  0  0  0  0  0  0  0  0  0
   40.5355   11.9533  -17.4701 C   0  0  0  0  0  0  0  0  0  0  0  0
   41.0552   11.5944  -18.6870 F   0  0  0  0  0  0  0  0  0  0  0  0
   39.2422   11.6064  -17.1417 C   0  0  0  0  0  0  0  0  0  0  0  0
   38.7231   11.9564  -15.9447 C   0  0  0  0  0  0  0  0  0  0  0  0
   39.4808   12.6834  -14.9975 C   0  0  0  0  0  0  0  0  0  0  0  0
   44.9583   13.4869  -12.7943 C   0  0  0  0  0  0  0  0  0  0  0  0
   43.4531   13.4898  -12.8736 C   0  0  0  0  0  0  0  0  0  0  0  0
   43.0544   13.5736  -14.3369 C   0  0  0  0  0  0  0  0  0  0  0  0
   41.6621   13.7594  -14.4756 N   0  0  0  0  0  0  0  0  0  0  0  0
   41.0545   14.8334  -13.6696 C   0  0  0  0  0  0  0  0  0  0  0  0
   42.0876   15.5540  -12.8244 C   0  0  0  0  0  0  0  0  0  0  0  0
   42.8904   14.5988  -12.1155 N   0  0  0  0  0  0  0  0  0  0  0  0
   43.1137   14.7330  -10.7179 C   0  0  0  0  0  0  0  0  0  0  0  0
   43.1114   15.9991  -10.1309 C   0  0  0  0  0  0  0  0  0  0  0  0
   43.3092   16.1560   -8.7971 C   0  0  0  0  0  0  0  0  0  0  0  0
   43.5173   15.0721   -7.9870 C   0  0  0  0  0  0  0  0  0  0  0  0
   43.5246   13.8267   -8.5324 C   0  0  0  0  0  0  0  0  0  0  0  0
   43.3217   13.6645   -9.9013 C   0  0  0  0  0  0  0  0  0  0  0  0
   43.7307   15.2185   -6.5600 C   0  0  0  0  0  0  0  0  0  0  0  0
   43.9122   15.3303   -5.4197 N   0  0  0  0  0  0  0  0  0  0  0  0
   38.8962   12.9937  -13.8155 O   0  0  0  0  0  0  0  0  0  0  0  0
   37.6561   13.3666  -13.4356 C   0  0  0  0  0  0  0  0  0  0  0  0
   36.6241   12.4973  -13.0916 C   0  0  0  0  0  0  0  0  0  0  0  0
   35.3796   12.9469  -12.7089 C   0  0  0  0  0  0  0  0  0  0  0  0
   35.1018   14.3023  -12.6504 C   0  0  0  0  0  0  0  0  0  0  0  0
   36.1151   15.1766  -12.9885 C   0  0  0  0  0  0  0  0  0  0  0  0
   37.3606   14.7331  -13.3717 C   0  0  0  0  0  0  0  0  0  0  0  0
   33.8060   14.7885  -12.2523 C   0  0  0  0  0  0  0  0  0  0  0  0
   32.7767   15.1923  -11.9451 N   0  0  0  0  0  0  0  0  0  0  0  0
  8  9  1  0  0  0
  9 10  1  0  0  0
 10 11  1  0  0  0
 11 12  1  0  0  0
 12 13  1  0  0  0
 13 14  1  0  0  0
 14 15  1  0  0  0
 15 16  2  0  0  0
 16 17  1  0  0  0
 17 18  2  0  0  0
 18 19  1  0  0  0
 19 20  2  0  0  0
 18 21  1  0  0  0
 21 22  3  0  0  0
 11  1  1  0  0  0
  1  2  2  0  0  0
  2  3  1  0  0  0
  3  4  1  0  0  0
  3  5  2  0  0  0
  5  6  1  0  0  0
  6  7  2  0  0  0
  7 23  1  0  0  0
 23 24  1  0  0  0
 24 25  2  0  0  0
 25 26  1  0  0  0
 26 27  2  0  0  0
 27 28  1  0  0  0
 28 29  2  0  0  0
 27 30  1  0  0  0
 30 31  3  0  0  0
 14  9  1  0  0  0
 20 15  1  0  0  0
  7  1  1  0  0  0
 29 24  1  0  0  0
M  END
> <minimizedAffinity>
-7.58052

> <CNNscore>
0.1595522165

> <CNNaffinity>
6.0358171463

> <CNN_VS>
0.9630280137

> <CNNaffinity_variance>
0.1408216208

$$$$
[H]c1c([H])c(Oc2c([H])c([H])c(C#N)c([H])c2[H])c(N2C([H])([H])C([H])([H])N(c3c([H])c([H])c(C#N)c([H])c3[H])[C@]([H])(C([H])([H])[H])C2([H])[H])c([H])c1F


 31 34  0  0  0  0  0  0  0  0999 V2000
   36.6613   14.5037   -8.2056 C   0  0  0  0  0  0  0  0  0  0  0  0
   35.3347   14.5397   -7.7355 C   0  0  0  0  0  0  0  0  0  0  0  0
   34.9870   14.2214   -6.4496 C   0  0  0  0  0  0  0  0  0  0  0  0
   33.6856   14.2658   -6.0204 F   0  0  0  0  0  0  0  0  0  0  0  0
   35.9892   13.8487   -5.5793 C   0  0  0  0  0  0  0  0  0  0  0  0
   37.2738   13.8026   -5.9947 C   0  0  0  0  0  0  0  0  0  0  0  0
   37.6305   14.1318   -7.3229 C   0  0  0  0  0  0  0  0  0  0  0  0
   35.3357   14.4015  -12.9269 C   0  0  0  0  0  0  0  0  0  0  0  0
   36.3317   14.1593  -11.8218 C   0  0  0  0  0  0  0  0  0  0  0  0
   35.8562   14.8986  -10.5831 C   0  0  0  0  0  0  0  0  0  0  0  0
   36.8305   14.8616   -9.5625 N   0  0  0  0  0  0  0  0  0  0  0  0
   38.2032   15.2387   -9.9444 C   0  0  0  0  0  0  0  0  0  0  0  0
   38.2958   15.6095  -11.4123 C   0  0  0  0  0  0  0  0  0  0  0  0
   37.6644   14.5985  -12.2118 N   0  0  0  0  0  0  0  0  0  0  0  0
   38.3306   14.0426  -13.3380 C   0  0  0  0  0  0  0  0  0  0  0  0
   37.9808   12.7718  -13.7965 C   0  0  0  0  0  0  0  0  0  0  0  0
   38.5911   12.2216  -14.8770 C   0  0  0  0  0  0  0  0  0  0  0  0
   39.5710   12.9007  -15.5500 C   0  0  0  0  0  0  0  0  0  0  0  0
   39.9317   14.1409  -15.1249 C   0  0  0  0  0  0  0  0  0  0  0  0
   39.3059   14.7065  -14.0161 C   0  0  0  0  0  0  0  0  0  0  0  0
   40.2353   12.3304  -16.7063 C   0  0  0  0  0  0  0  0  0  0  0  0
   40.7574   11.8665  -17.6324 N   0  0  0  0  0  0  0  0  0  0  0  0
   38.9379   14.0565   -7.6696 O   0  0  0  0  0  0  0  0  0  0  0  0
   40.0668   13.6589   -7.0462 C   0  0  0  0  0  0  0  0  0  0  0  0
   40.8849   14.4722   -6.2663 C   0  0  0  0  0  0  0  0  0  0  0  0
   42.0248   13.9994   -5.6544 C   0  0  0  0  0  0  0  0  0  0  0  0
   42.4078   12.6758   -5.7933 C   0  0  0  0  0  0  0  0  0  0  0  0
   41.6068   11.8571   -6.5635 C   0  0  0  0  0  0  0  0  0  0  0  0
   40.4666   12.3240   -7.1773 C   0  0  0  0  0  0  0  0  0  0  0  0
   43.5966   12.1660   -5.1601 C   0  0  0  0  0  0  0  0  0  0  0  0
   44.5343   11.7433   -4.6511 N   0  0  0  0  0  0  0  0  0  0  0  0
  8  9  1  0  0  0
  9 10  1  0  0  0
 10 11  1  0  0  0
 11 12  1  0  0  0
 12 13  1  0  0  0
 13 14  1  0  0  0
 14 15  1  0  0  0
 15 16  2  0  0  0
 16 17  1  0  0  0
 17 18  2  0  0  0
 18 19  1  0  0  0
 19 20  2  0  0  0
 18 21  1  0  0  0
 21 22  3  0  0  0
 11  1  1  0  0  0
  1  2  2  0  0  0
  2  3  1  0  0  0
  3  4  1  0  0  0
  3  5  2  0  0  0
  5  6  1  0  0  0
  6  7  2  0  0  0
  7 23  1  0  0  0
 23 24  1  0  0  0
 24 25  2  0  0  0
 25 26  1  0  0  0
 26 27  2  0  0  0
 27 28  1  0  0  0
 28 29  2  0  0  0
 27 30  1  0  0  0
 30 31  3  0  0  0
 14  9  1  0  0  0
 20 15  1  0  0  0
  7  1  1  0  0  0
 29 24  1  0  0  0
M  END
> <minimizedAffinity>
-7.55740

> <CNNscore>
0.1468643397

> <CNNaffinity>
5.7376551628

> <CNN_VS>
0.8426569104

> <CNNaffinity_variance>
0.1428979039

$$$$
[H]c1c([H])c(Oc2c([H])c([H])c(C#N)c([H])c2[H])c(N2C([H])([H])C([H])([H])N(c3c([H])c([H])c(C#N)c([H])c3[H])[C@@]([H])(C([H])([H])[H])C2([H])[H])c([H])c1F


 31 34  0  0  0  0  0  0  0  0999 V2000
   38.2902   12.1858  -16.0437 C   0  0  0  0  0  0  0  0  0  0  0  0
   37.6045   11.3640  -16.9418 C   0  0  0  0  0  0  0  0  0  0  0  0
   38.2221   10.8710  -18.0728 C   0  0  0  0  0  0  0  0  0  0  0  0
   37.4989   10.0807  -18.8997 F   0  0  0  0  0  0  0  0  0  0  0  0
   39.5368   11.1726  -18.3549 C   0  0  0  0  0  0  0  0  0  0  0  0
   40.2179   11.9828  -17.4725 C   0  0  0  0  0  0  0  0  0  0  0  0
   39.6053   12.4883  -16.3249 C   0  0  0  0  0  0  0  0  0  0  0  0
   35.2171   12.1885  -13.0928 C   0  0  0  0  0  0  0  0  0  0  0  0
   36.5973   12.5959  -12.7240 C   0  0  0  0  0  0  0  0  0  0  0  0
   37.6562   12.0094  -13.6411 C   0  0  0  0  0  0  0  0  0  0  0  0
   37.6793   12.6929  -14.8935 N   0  0  0  0  0  0  0  0  0  0  0  0
   37.0309   13.9878  -14.9767 C   0  0  0  0  0  0  0  0  0  0  0  0
   37.3086   14.7932  -13.7189 C   0  0  0  0  0  0  0  0  0  0  0  0
   36.7494   14.0414  -12.6128 N   0  0  0  0  0  0  0  0  0  0  0  0
   36.3634   14.7679  -11.4531 C   0  0  0  0  0  0  0  0  0  0  0  0
   35.0930   15.3132  -11.3742 C   0  0  0  0  0  0  0  0  0  0  0  0
   34.6908   16.0130  -10.2649 C   0  0  0  0  0  0  0  0  0  0  0  0
   35.5251   16.2029   -9.1899 C   0  0  0  0  0  0  0  0  0  0  0  0
   36.7888   15.6556   -9.2782 C   0  0  0  0  0  0  0  0  0  0  0  0
   37.2156   14.9419  -10.3959 C   0  0  0  0  0  0  0  0  0  0  0  0
   35.0740   16.9421   -8.0396 C   0  0  0  0  0  0  0  0  0  0  0  0
   34.7202   17.5361   -7.1139 N   0  0  0  0  0  0  0  0  0  0  0  0
   40.2780   13.3053  -15.4268 O   0  0  0  0  0  0  0  0  0  0  0  0
   41.6578   13.1724  -15.3528 C   0  0  0  0  0  0  0  0  0  0  0  0
   42.4021   12.6473  -16.3994 C   0  0  0  0  0  0  0  0  0  0  0  0
   43.7703   12.5197  -16.3156 C   0  0  0  0  0  0  0  0  0  0  0  0
   44.4612   12.9117  -15.1793 C   0  0  0  0  0  0  0  0  0  0  0  0
   43.7201   13.4316  -14.1446 C   0  0  0  0  0  0  0  0  0  0  0  0
   42.3521   13.5591  -14.2282 C   0  0  0  0  0  0  0  0  0  0  0  0
   45.8952   12.7661  -15.1202 C   0  0  0  0  0  0  0  0  0  0  0  0
   47.0518   12.6289  -15.0763 N   0  0  0  0  0  0  0  0  0  0  0  0
  8  9  1  0  0  0
  9 10  1  0  0  0
 10 11  1  0  0  0
 11 12  1  0  0  0
 12 13  1  0  0  0
 13 14  1  0  0  0
 14 15  1  0  0  0
 15 16  2  0  0  0
 16 17  1  0  0  0
 17 18  2  0  0  0
 18 19  1  0  0  0
 19 20  2  0  0  0
 18 21  1  0  0  0
 21 22  3  0  0  0
 11  1  1  0  0  0
  1  2  2  0  0  0
  2  3  1  0  0  0
  3  4  1  0  0  0
  3  5  2  0  0  0
  5  6  1  0  0  0
  6  7  2  0  0  0
  7 23  1  0  0  0
 23 24  1  0  0  0
 24 25  2  0  0  0
 25 26  1  0  0  0
 26 27  2  0  0  0
 27 28  1  0  0  0
 28 29  2  0  0  0
 27 30  1  0  0  0
 30 31  3  0  0  0
 14  9  1  0  0  0
 20 15  1  0  0  0
  7  1  1  0  0  0
 29 24  1  0  0  0
M  END
> <minimizedAffinity>
-9.11859

> <CNNscore>
0.3260583580

> <CNNaffinity>
6.8298807144

> <CNN_VS>
2.2269396782

> <CNNaffinity_variance>
0.1586208194

$$$$
[H]c1c([H])c(Oc2c([H])c([H])c(C#N)c([H])c2[H])c(N2C([H])([H])C([H])([H])N(c3c([H])c([H])c(C#N)c([H])c3[H])[C@@]([H])(C([H])([H])[H])C2([H])[H])c([H])c1F


 31 34  0  0  0  0  0  0  0  0999 V2000
   37.6981   12.5461  -15.2003 C   0  0  0  0  0  0  0  0  0  0  0  0
   36.8489   11.7240  -15.9453 C   0  0  0  0  0  0  0  0  0  0  0  0
   37.3005   11.0615  -17.0681 C   0  0  0  0  0  0  0  0  0  0  0  0
   36.4241   10.2815  -17.7426 F   0  0  0  0  0  0  0  0  0  0  0  0
   38.6053   11.1884  -17.4929 C   0  0  0  0  0  0  0  0  0  0  0  0
   39.4474   11.9979  -16.7619 C   0  0  0  0  0  0  0  0  0  0  0  0
   39.0036   12.6737  -15.6244 C   0  0  0  0  0  0  0  0  0  0  0  0
   34.6303   13.9692  -12.6091 C   0  0  0  0  0  0  0  0  0  0  0  0
   35.9464   13.5695  -12.0477 C   0  0  0  0  0  0  0  0  0  0  0  0
   36.6895   12.5752  -12.9227 C   0  0  0  0  0  0  0  0  0  0  0  0
   37.2564   13.2235  -14.0605 N   0  0  0  0  0  0  0  0  0  0  0  0
   37.3805   14.6685  -14.0316 C   0  0  0  0  0  0  0  0  0  0  0  0
   37.8251   15.1275  -12.6534 C   0  0  0  0  0  0  0  0  0  0  0  0
   36.7932   14.7110  -11.7243 N   0  0  0  0  0  0  0  0  0  0  0  0
   36.6520   15.4567  -10.5219 C   0  0  0  0  0  0  0  0  0  0  0  0
   36.2300   14.8232   -9.3652 C   0  0  0  0  0  0  0  0  0  0  0  0
   36.0914   15.5158   -8.1891 C   0  0  0  0  0  0  0  0  0  0  0  0
   36.3634   16.8600   -8.1071 C   0  0  0  0  0  0  0  0  0  0  0  0
   36.7832   17.4821   -9.2651 C   0  0  0  0  0  0  0  0  0  0  0  0
   36.9300   16.7960  -10.4687 C   0  0  0  0  0  0  0  0  0  0  0  0
   36.2084   17.5595   -6.8582 C   0  0  0  0  0  0  0  0  0  0  0  0
   36.0869   18.1281   -5.8598 N   0  0  0  0  0  0  0  0  0  0  0  0
   39.8396   13.4925  -14.8778 O   0  0  0  0  0  0  0  0  0  0  0  0
   41.2080   13.3106  -15.0239 C   0  0  0  0  0  0  0  0  0  0  0  0
   41.7629   12.8258  -16.1995 C   0  0  0  0  0  0  0  0  0  0  0  0
   43.1216   12.6491  -16.3339 C   0  0  0  0  0  0  0  0  0  0  0  0
   43.9922   12.9492  -15.2974 C   0  0  0  0  0  0  0  0  0  0  0  0
   43.4383   13.4294  -14.1343 C   0  0  0  0  0  0  0  0  0  0  0  0
   42.0799   13.6061  -13.9998 C   0  0  0  0  0  0  0  0  0  0  0  0
   45.4113   12.7538  -15.4673 C   0  0  0  0  0  0  0  0  0  0  0  0
   46.5584   12.5861  -15.5871 N   0  0  0  0  0  0  0  0  0  0  0  0
  8  9  1  0  0  0
  9 10  1  0  0  0
 10 11  1  0  0  0
 11 12  1  0  0  0
 12 13  1  0  0  0
 13 14  1  0  0  0
 14 15  1  0  0  0
 15 16  2  0  0  0
 16 17  1  0  0  0
 17 18  2  0  0  0
 18 19  1  0  0  0
 19 20  2  0  0  0
 18 21  1  0  0  0
 21 22  3  0  0  0
 11  1  1  0  0  0
  1  2  2  0  0  0
  2  3  1  0  0  0
  3  4  1  0  0  0
  3  5  2  0  0  0
  5  6  1  0  0  0
  6  7  2  0  0  0
  7 23  1  0  0  0
 23 24  1  0  0  0
 24 25  2  0  0  0
 25 26  1  0  0  0
 26 27  2  0  0  0
 27 28  1  0  0  0
 28 29  2  0  0  0
 27 30  1  0  0  0
 30 31  3  0  0  0
 14  9  1  0  0  0
 20 15  1  0  0  0
  7  1  1  0  0  0
 29 24  1  0  0  0
M  END
> <minimizedAffinity>
-8.96983

> <CNNscore>
0.3003659546

> <CNNaffinity>
6.6037483215

> <CNN_VS>
1.9835411310

> <CNNaffinity_variance>
0.1853241026

$$$$
[H]c1c([H])c(Oc2c([H])c([H])c(C#N)c([H])c2[H])c(N2C([H])([H])C([H])([H])N(c3c([H])c([H])c(C#N)c([H])c3[H])[C@@]([H])(C([H])([H])[H])C2([H])[H])c([H])c1F


 31 34  0  0  0  0  0  0  0  0999 V2000
   36.6916   12.3265  -15.3390 C   0  0  0  0  0  0  0  0  0  0  0  0
   35.6987   11.4140  -15.7043 C   0  0  0  0  0  0  0  0  0  0  0  0
   35.8266   10.6344  -16.8355 C   0  0  0  0  0  0  0  0  0  0  0  0
   34.8268    9.7713  -17.1301 F   0  0  0  0  0  0  0  0  0  0  0  0
   36.9388   10.7295  -17.6436 C   0  0  0  0  0  0  0  0  0  0  0  0
   37.9214   11.6279  -17.2880 C   0  0  0  0  0  0  0  0  0  0  0  0
   37.8046   12.4225  -16.1466 C   0  0  0  0  0  0  0  0  0  0  0  0
   38.1943   15.2056  -12.5815 C   0  0  0  0  0  0  0  0  0  0  0  0
   36.7390   15.1515  -12.8749 C   0  0  0  0  0  0  0  0  0  0  0  0
   36.4274   14.5416  -14.2304 C   0  0  0  0  0  0  0  0  0  0  0  0
   36.5774   13.1230  -14.1963 N   0  0  0  0  0  0  0  0  0  0  0  0
   36.6140   12.4712  -12.9009 C   0  0  0  0  0  0  0  0  0  0  0  0
   35.5949   13.1037  -11.9686 C   0  0  0  0  0  0  0  0  0  0  0  0
   35.9740   14.4952  -11.8219 N   0  0  0  0  0  0  0  0  0  0  0  0
   35.5777   15.1620  -10.6303 C   0  0  0  0  0  0  0  0  0  0  0  0
   36.5002   15.3690   -9.6185 C   0  0  0  0  0  0  0  0  0  0  0  0
   36.1480   16.0154   -8.4608 C   0  0  0  0  0  0  0  0  0  0  0  0
   34.8726   16.4831   -8.2550 C   0  0  0  0  0  0  0  0  0  0  0  0
   33.9608   16.2719   -9.2690 C   0  0  0  0  0  0  0  0  0  0  0  0
   34.2993   15.6178  -10.4517 C   0  0  0  0  0  0  0  0  0  0  0  0
   34.5333   17.1578   -7.0292 C   0  0  0  0  0  0  0  0  0  0  0  0
   34.2528   17.6997   -6.0481 N   0  0  0  0  0  0  0  0  0  0  0  0
   38.7855   13.3317  -15.7755 O   0  0  0  0  0  0  0  0  0  0  0  0
   40.1054   12.9869  -16.0319 C   0  0  0  0  0  0  0  0  0  0  0  0
   41.1291   13.2908  -15.1460 C   0  0  0  0  0  0  0  0  0  0  0  0
   42.4350   12.9442  -15.4100 C   0  0  0  0  0  0  0  0  0  0  0  0
   42.7807   12.2759  -16.5745 C   0  0  0  0  0  0  0  0  0  0  0  0
   41.7635   11.9766  -17.4496 C   0  0  0  0  0  0  0  0  0  0  0  0
   40.4578   12.3231  -17.1858 C   0  0  0  0  0  0  0  0  0  0  0  0
   44.1577   11.9255  -16.8242 C   0  0  0  0  0  0  0  0  0  0  0  0
   45.2669   11.6246  -17.0176 N   0  0  0  0  0  0  0  0  0  0  0  0
  8  9  1  0  0  0
  9 10  1  0  0  0
 10 11  1  0  0  0
 11 12  1  0  0  0
 12 13  1  0  0  0
 13 14  1  0  0  0
 14 15  1  0  0  0
 15 16  2  0  0  0
 16 17  1  0  0  0
 17 18  2  0  0  0
 18 19  1  0  0  0
 19 20  2  0  0  0
 18 21  1  0  0  0
 21 22  3  0  0  0
 11  1  1  0  0  0
  1  2  2  0  0  0
  2  3  1  0  0  0
  3  4  1  0  0  0
  3  5  2  0  0  0
  5  6  1  0  0  0
  6  7  2  0  0  0
  7 23  1  0  0  0
 23 24  1  0  0  0
 24 25  2  0  0  0
 25 26  1  0  0  0
 26 27  2  0  0  0
 27 28  1  0  0  0
 28 29  2  0  0  0
 27 30  1  0  0  0
 30 31  3  0  0  0
 14  9  1  0  0  0
 20 15  1  0  0  0
  7  1  1  0  0  0
 29 24  1  0  0  0
M  END
> <minimizedAffinity>
-8.23748

> <CNNscore>
0.2825669050

> <CNNaffinity>
6.7297453880

> <CNN_VS>
1.9016033411

> <CNNaffinity_variance>
0.2271828204

$$$$
[H]c1c([H])c(Oc2c([H])c([H])c(C#N)c([H])c2[H])c(N2C([H])([H])C([H])([H])N(c3c([H])c([H])c(C#N)c([H])c3[H])[C@@]([H])(C([H])([H])[H])C2([H])[H])c([H])c1F


 31 34  0  0  0  0  0  0  0  0999 V2000
   33.0886   14.5175  -12.0538 C   0  0  0  0  0  0  0  0  0  0  0  0
   31.7185   14.2615  -11.9582 C   0  0  0  0  0  0  0  0  0  0  0  0
   30.9357   14.9044  -11.0213 C   0  0  0  0  0  0  0  0  0  0  0  0
   29.6156   14.6088  -10.9840 F   0  0  0  0  0  0  0  0  0  0  0  0
   31.4793   15.8212  -10.1478 C   0  0  0  0  0  0  0  0  0  0  0  0
   32.8302   16.0776  -10.2376 C   0  0  0  0  0  0  0  0  0  0  0  0
   33.6335   15.4344  -11.1804 C   0  0  0  0  0  0  0  0  0  0  0  0
   33.8242   11.4702  -14.9389 C   0  0  0  0  0  0  0  0  0  0  0  0
   34.4277   12.8163  -15.1144 C   0  0  0  0  0  0  0  0  0  0  0  0
   33.6540   13.9128  -14.4033 C   0  0  0  0  0  0  0  0  0  0  0  0
   33.8952   13.8752  -12.9973 N   0  0  0  0  0  0  0  0  0  0  0  0
   35.0430   13.1270  -12.5211 C   0  0  0  0  0  0  0  0  0  0  0  0
   36.2300   13.3478  -13.4431 C   0  0  0  0  0  0  0  0  0  0  0  0
   35.8383   12.8554  -14.7491 N   0  0  0  0  0  0  0  0  0  0  0  0
   36.8712   12.4202  -15.6240 C   0  0  0  0  0  0  0  0  0  0  0  0
   38.1772   12.8223  -15.4001 C   0  0  0  0  0  0  0  0  0  0  0  0
   39.1951   12.4124  -16.2235 C   0  0  0  0  0  0  0  0  0  0  0  0
   38.9655   11.5901  -17.3000 C   0  0  0  0  0  0  0  0  0  0  0  0
   37.6609   11.1950  -17.5146 C   0  0  0  0  0  0  0  0  0  0  0  0
   36.6139   11.6005  -16.6898 C   0  0  0  0  0  0  0  0  0  0  0  0
   40.0548   11.1768  -18.1461 C   0  0  0  0  0  0  0  0  0  0  0  0
   40.9306   10.8535  -18.8266 N   0  0  0  0  0  0  0  0  0  0  0  0
   34.9954   15.6819  -11.2831 O   0  0  0  0  0  0  0  0  0  0  0  0
   35.7153   15.7906  -10.1012 C   0  0  0  0  0  0  0  0  0  0  0  0
   36.2801   16.9904   -9.6933 C   0  0  0  0  0  0  0  0  0  0  0  0
   36.9924   17.0873   -8.5191 C   0  0  0  0  0  0  0  0  0  0  0  0
   37.1743   15.9873   -7.6950 C   0  0  0  0  0  0  0  0  0  0  0  0
   36.6130   14.8004   -8.1028 C   0  0  0  0  0  0  0  0  0  0  0  0
   35.9009   14.7033   -9.2767 C   0  0  0  0  0  0  0  0  0  0  0  0
   37.9254   16.1190   -6.4705 C   0  0  0  0  0  0  0  0  0  0  0  0
   38.5488   16.2284   -5.4918 N   0  0  0  0  0  0  0  0  0  0  0  0
  8  9  1  0  0  0
  9 10  1  0  0  0
 10 11  1  0  0  0
 11 12  1  0  0  0
 12 13  1  0  0  0
 13 14  1  0  0  0
 14 15  1  0  0  0
 15 16  2  0  0  0
 16 17  1  0  0  0
 17 18  2  0  0  0
 18 19  1  0  0  0
 19 20  2  0  0  0
 18 21  1  0  0  0
 21 22  3  0  0  0
 11  1  1  0  0  0
  1  2  2  0  0  0
  2  3  1  0  0  0
  3  4  1  0  0  0
  3  5  2  0  0  0
  5  6  1  0  0  0
  6  7  2  0  0  0
  7 23  1  0  0  0
 23 24  1  0  0  0
 24 25  2  0  0  0
 25 26  1  0  0  0
 26 27  2  0  0  0
 27 28  1  0  0  0
 28 29  2  0  0  0
 27 30  1  0  0  0
 30 31  3  0  0  0
 14  9  1  0  0  0
 20 15  1  0  0  0
  7  1  1  0  0  0
 29 24  1  0  0  0
M  END
> <minimizedAffinity>
-7.72382

> <CNNscore>
0.2583039403

> <CNNaffinity>
6.6285171509

> <CNN_VS>
1.7121721506

> <CNNaffinity_variance>
0.3732913435

$$$$
[H]c1c([H])c(Oc2c([H])c([H])c(C#N)c([H])c2[H])c(N2C([H])([H])C([H])([H])N(c3c([H])c([H])c(C#N)c([H])c3[H])[C@@]([H])(C([H])([H])[H])C2([H])[H])c([H])c1F


 31 34  0  0  0  0  0  0  0  0999 V2000
   37.9515   12.5170  -15.4385 C   0  0  0  0  0  0  0  0  0  0  0  0
   37.1419   11.6316  -16.1546 C   0  0  0  0  0  0  0  0  0  0  0  0
   37.6204   10.9638  -17.2630 C   0  0  0  0  0  0  0  0  0  0  0  0
   36.7820   10.1209  -17.9095 F   0  0  0  0  0  0  0  0  0  0  0  0
   38.9139   11.1475  -17.7014 C   0  0  0  0  0  0  0  0  0  0  0  0
   39.7169   12.0196  -16.9989 C   0  0  0  0  0  0  0  0  0  0  0  0
   39.2455   12.7015  -15.8762 C   0  0  0  0  0  0  0  0  0  0  0  0
   38.4536   15.2244  -12.1875 C   0  0  0  0  0  0  0  0  0  0  0  0
   37.1327   15.1100  -12.8578 C   0  0  0  0  0  0  0  0  0  0  0  0
   37.2321   14.6054  -14.2867 C   0  0  0  0  0  0  0  0  0  0  0  0
   37.4821   13.2007  -14.3136 N   0  0  0  0  0  0  0  0  0  0  0  0
   37.2353   12.4399  -13.1034 C   0  0  0  0  0  0  0  0  0  0  0  0
   35.9624   12.9255  -12.4314 C   0  0  0  0  0  0  0  0  0  0  0  0
   36.1772   14.3186  -12.0927 N   0  0  0  0  0  0  0  0  0  0  0  0
   35.4341   14.8522  -11.0043 C   0  0  0  0  0  0  0  0  0  0  0  0
   34.1690   15.3708  -11.2236 C   0  0  0  0  0  0  0  0  0  0  0  0
   33.4264   15.8858  -10.1915 C   0  0  0  0  0  0  0  0  0  0  0  0
   33.9016   15.9099   -8.9026 C   0  0  0  0  0  0  0  0  0  0  0  0
   35.1631   15.3908   -8.6943 C   0  0  0  0  0  0  0  0  0  0  0  0
   35.9324   14.8635   -9.7293 C   0  0  0  0  0  0  0  0  0  0  0  0
   33.0984   16.4571   -7.8403 C   0  0  0  0  0  0  0  0  0  0  0  0
   32.4609   16.8971   -6.9830 N   0  0  0  0  0  0  0  0  0  0  0  0
   40.0421   13.5830  -15.1584 O   0  0  0  0  0  0  0  0  0  0  0  0
   41.4123   13.3615  -15.1726 C   0  0  0  0  0  0  0  0  0  0  0  0
   42.0598   12.8370  -16.2820 C   0  0  0  0  0  0  0  0  0  0  0  0
   43.4195   12.6211  -16.2856 C   0  0  0  0  0  0  0  0  0  0  0  0
   44.1984   12.9199  -15.1782 C   0  0  0  0  0  0  0  0  0  0  0  0
   43.5530   13.4395  -14.0811 C   0  0  0  0  0  0  0  0  0  0  0  0
   42.1936   13.6553  -14.0773 C   0  0  0  0  0  0  0  0  0  0  0  0
   45.6211   12.6831  -15.2111 C   0  0  0  0  0  0  0  0  0  0  0  0
   46.7730   12.5065  -15.2246 N   0  0  0  0  0  0  0  0  0  0  0  0
  8  9  1  0  0  0
  9 10  1  0  0  0
 10 11  1  0  0  0
 11 12  1  0  0  0
 12 13  1  0  0  0
 13 14  1  0  0  0
 14 15  1  0  0  0
 15 16  2  0  0  0
 16 17  1  0  0  0
 17 18  2  0  0  0
 18 19  1  0  0  0
 19 20  2  0  0  0
 18 21  1  0  0  0
 21 22  3  0  0  0
 11  1  1  0  0  0
  1  2  2  0  0  0
  2  3  1  0  0  0
  3  4  1  0  0  0
  3  5  2  0  0  0
  5  6  1  0  0  0
  6  7  2  0  0  0
  7 23  1  0  0  0
 23 24  1  0  0  0
 24 25  2  0  0  0
 25 26  1  0  0  0
 26 27  2  0  0  0
 27 28  1  0  0  0
 28 29  2  0  0  0
 27 30  1  0  0  0
 30 31  3  0  0  0
 14  9  1  0  0  0
 20 15  1  0  0  0
  7  1  1  0  0  0
 29 24  1  0  0  0
M  END
> <minimizedAffinity>
-9.08615

> <CNNscore>
0.2276976854

> <CNNaffinity>
6.5243682861

> <CNN_VS>
1.4855835438

> <CNNaffinity_variance>
0.1339307129

$$$$
[H]c1c([H])c(Oc2c([H])c([H])c(C#N)c([H])c2[H])c(N2C([H])([H])C([H])([H])N(c3c([H])c([H])c(C#N)c([H])c3[H])[C@@]([H])(C([H])([H])[H])C2([H])[H])c([H])c1F


 31 34  0  0  0  0  0  0  0  0999 V2000
   37.2596   13.7776  -13.3555 C   0  0  0  0  0  0  0  0  0  0  0  0
   36.0622   13.1231  -13.6553 C   0  0  0  0  0  0  0  0  0  0  0  0
   35.9794   12.2310  -14.7046 C   0  0  0  0  0  0  0  0  0  0  0  0
   34.7885   11.6326  -14.9389 F   0  0  0  0  0  0  0  0  0  0  0  0
   37.0757   11.9554  -15.4928 C   0  0  0  0  0  0  0  0  0  0  0  0
   38.2593   12.5981  -15.2016 C   0  0  0  0  0  0  0  0  0  0  0  0
   38.3568   13.5026  -14.1433 C   0  0  0  0  0  0  0  0  0  0  0  0
   38.8157   15.0203   -9.5892 C   0  0  0  0  0  0  0  0  0  0  0  0
   38.4873   16.0337  -10.6247 C   0  0  0  0  0  0  0  0  0  0  0  0
   38.5192   15.4742  -12.0362 C   0  0  0  0  0  0  0  0  0  0  0  0
   37.3601   14.6834  -12.2960 N   0  0  0  0  0  0  0  0  0  0  0  0
   36.2217   14.8284  -11.4087 C   0  0  0  0  0  0  0  0  0  0  0  0
   36.0221   16.2908  -11.0493 C   0  0  0  0  0  0  0  0  0  0  0  0
   37.2269   16.7185  -10.3658 N   0  0  0  0  0  0  0  0  0  0  0  0
   37.1147   17.8031   -9.4533 C   0  0  0  0  0  0  0  0  0  0  0  0
   36.1646   17.7599   -8.4469 C   0  0  0  0  0  0  0  0  0  0  0  0
   36.0382   18.7886   -7.5480 C   0  0  0  0  0  0  0  0  0  0  0  0
   36.8435   19.9003   -7.6060 C   0  0  0  0  0  0  0  0  0  0  0  0
   37.7870   19.9339   -8.6124 C   0  0  0  0  0  0  0  0  0  0  0  0
   37.9307   18.8993   -9.5344 C   0  0  0  0  0  0  0  0  0  0  0  0
   36.6868   20.9638   -6.6482 C   0  0  0  0  0  0  0  0  0  0  0  0
   36.5694   21.8191   -5.8803 N   0  0  0  0  0  0  0  0  0  0  0  0
   39.5418   14.1577  -13.8377 O   0  0  0  0  0  0  0  0  0  0  0  0
   40.6917   13.7345  -14.4899 C   0  0  0  0  0  0  0  0  0  0  0  0
   40.6690   13.2894  -15.8039 C   0  0  0  0  0  0  0  0  0  0  0  0
   41.8154   12.8717  -16.4415 C   0  0  0  0  0  0  0  0  0  0  0  0
   43.0418   12.8790  -15.7948 C   0  0  0  0  0  0  0  0  0  0  0  0
   43.0600   13.3208  -14.4930 C   0  0  0  0  0  0  0  0  0  0  0  0
   41.9139   13.7384  -13.8554 C   0  0  0  0  0  0  0  0  0  0  0  0
   44.2264   12.4356  -16.4885 C   0  0  0  0  0  0  0  0  0  0  0  0
   45.1740   12.0800  -17.0663 N   0  0  0  0  0  0  0  0  0  0  0  0
  8  9  1  0  0  0
  9 10  1  0  0  0
 10 11  1  0  0  0
 11 12  1  0  0  0
 12 13  1  0  0  0
 13 14  1  0  0  0
 14 15  1  0  0  0
 15 16  2  0  0  0
 16 17  1  0  0  0
 17 18  2  0  0  0
 18 19  1  0  0  0
 19 20  2  0  0  0
 18 21  1  0  0  0
 21 22  3  0  0  0
 11  1  1  0  0  0
  1  2  2  0  0  0
  2  3  1  0  0  0
  3  4  1  0  0  0
  3  5  2  0  0  0
  5  6  1  0  0  0
  6  7  2  0  0  0
  7 23  1  0  0  0
 23 24  1  0  0  0
 24 25  2  0  0  0
 25 26  1  0  0  0
 26 27  2  0  0  0
 27 28  1  0  0  0
 28 29  2  0  0  0
 27 30  1  0  0  0
 30 31  3  0  0  0
 14  9  1  0  0  0
 20 15  1  0  0  0
  7  1  1  0  0  0
 29 24  1  0  0  0
M  END
> <minimizedAffinity>
-8.98781

> <CNNscore>
0.2219209522

> <CNNaffinity>
6.2043347359

> <CNN_VS>
1.3768718243

> <CNNaffinity_variance>
0.1449320316

$$$$
[H]c1c([H])c(Oc2c([H])c([H])c(C#N)c([H])c2[H])c(N2C([H])([H])C([H])([H])N(c3c([H])c([H])c(C#N)c([H])c3[H])[C@@]([H])(C([H])([H])[H])C2([H])[H])c([H])c1F


 31 34  0  0  0  0  0  0  0  0999 V2000
   34.4406   15.2658  -10.8506 C   0  0  0  0  0  0  0  0  0  0  0  0
   33.0561   15.3364  -10.6769 C   0  0  0  0  0  0  0  0  0  0  0  0
   32.5051   15.9782   -9.5869 C   0  0  0  0  0  0  0  0  0  0  0  0
   31.1563   16.0088   -9.4810 F   0  0  0  0  0  0  0  0  0  0  0  0
   33.3022   16.5716   -8.6322 C   0  0  0  0  0  0  0  0  0  0  0  0
   34.6685   16.5052   -8.7985 C   0  0  0  0  0  0  0  0  0  0  0  0
   35.2390   15.8591   -9.8962 C   0  0  0  0  0  0  0  0  0  0  0  0
   34.2416   12.6989  -14.2451 C   0  0  0  0  0  0  0  0  0  0  0  0
   35.1716   13.8574  -14.2472 C   0  0  0  0  0  0  0  0  0  0  0  0
   34.7406   14.9683  -13.3056 C   0  0  0  0  0  0  0  0  0  0  0  0
   35.0144   14.6200  -11.9492 N   0  0  0  0  0  0  0  0  0  0  0  0
   35.9412   13.5329  -11.6971 C   0  0  0  0  0  0  0  0  0  0  0  0
   37.1100   13.6075  -12.6647 C   0  0  0  0  0  0  0  0  0  0  0  0
   36.5550   13.4722  -13.9971 N   0  0  0  0  0  0  0  0  0  0  0  0
   37.4041   12.9537  -15.0129 C   0  0  0  0  0  0  0  0  0  0  0  0
   38.7607   13.2299  -14.9828 C   0  0  0  0  0  0  0  0  0  0  0  0
   39.6049   12.7373  -15.9455 C   0  0  0  0  0  0  0  0  0  0  0  0
   39.1450   11.9531  -16.9757 C   0  0  0  0  0  0  0  0  0  0  0  0
   37.7918   11.6835  -16.9968 C   0  0  0  0  0  0  0  0  0  0  0  0
   36.9187   12.1745  -16.0284 C   0  0  0  0  0  0  0  0  0  0  0  0
   40.0558   11.4508  -17.9712 C   0  0  0  0  0  0  0  0  0  0  0  0
   40.7900   11.0556  -18.7710 N   0  0  0  0  0  0  0  0  0  0  0  0
   36.6130   15.7837  -10.0775 O   0  0  0  0  0  0  0  0  0  0  0  0
   37.3521   15.1391   -9.0951 C   0  0  0  0  0  0  0  0  0  0  0  0
   36.7466   14.4719   -8.0400 C   0  0  0  0  0  0  0  0  0  0  0  0
   37.4890   13.8356   -7.0707 C   0  0  0  0  0  0  0  0  0  0  0  0
   38.8749   13.8359   -7.1101 C   0  0  0  0  0  0  0  0  0  0  0  0
   39.4709   14.4981   -8.1573 C   0  0  0  0  0  0  0  0  0  0  0  0
   38.7288   15.1342   -9.1263 C   0  0  0  0  0  0  0  0  0  0  0  0
   39.6265   13.1606   -6.0805 C   0  0  0  0  0  0  0  0  0  0  0  0
   40.2347   12.5989   -5.2602 N   0  0  0  0  0  0  0  0  0  0  0  0
  8  9  1  0  0  0
  9 10  1  0  0  0
 10 11  1  0  0  0
 11 12  1  0  0  0
 12 13  1  0  0  0
 13 14  1  0  0  0
 14 15  1  0  0  0
 15 16  2  0  0  0
 16 17  1  0  0  0
 17 18  2  0  0  0
 18 19  1  0  0  0
 19 20  2  0  0  0
 18 21  1  0  0  0
 21 22  3  0  0  0
 11  1  1  0  0  0
  1  2  2  0  0  0
  2  3  1  0  0  0
  3  4  1  0  0  0
  3  5  2  0  0  0
  5  6  1  0  0  0
  6  7  2  0  0  0
  7 23  1  0  0  0
 23 24  1  0  0  0
 24 25  2  0  0  0
 25 26  1  0  0  0
 26 27  2  0  0  0
 27 28  1  0  0  0
 28 29  2  0  0  0
 27 30  1  0  0  0
 30 31  3  0  0  0
 14  9  1  0  0  0
 20 15  1  0  0  0
  7  1  1  0  0  0
 29 24  1  0  0  0
M  END
> <minimizedAffinity>
-7.42946

> <CNNscore>
0.2049568594

> <CNNaffinity>
6.4636740685

> <CNN_VS>
1.3247743845

> <CNNaffinity_variance>
0.4083167017

$$$$
[H]c1c([H])c(Oc2c([H])c([H])c(C#N)c([H])c2[H])c(N2C([H])([H])C([H])([H])N(c3c([H])c([H])c(C#N)c([H])c3[H])[C@@]([H])(C([H])([H])[H])C2([H])[H])c([H])c1F


 31 34  0  0  0  0  0  0  0  0999 V2000
   33.9455   14.9760  -11.5742 C   0  0  0  0  0  0  0  0  0  0  0  0
   32.6419   15.0192  -12.0751 C   0  0  0  0  0  0  0  0  0  0  0  0
   31.5973   15.4917  -11.3074 C   0  0  0  0  0  0  0  0  0  0  0  0
   30.3601   15.5055  -11.8555 F   0  0  0  0  0  0  0  0  0  0  0  0
   31.8047   15.9373  -10.0200 C   0  0  0  0  0  0  0  0  0  0  0  0
   33.0885   15.8971   -9.5208 C   0  0  0  0  0  0  0  0  0  0  0  0
   34.1540   15.4215  -10.2864 C   0  0  0  0  0  0  0  0  0  0  0  0
   38.0999   14.3222  -12.2556 C   0  0  0  0  0  0  0  0  0  0  0  0
   37.1041   13.3425  -12.7612 C   0  0  0  0  0  0  0  0  0  0  0  0
   35.8000   13.3639  -11.9832 C   0  0  0  0  0  0  0  0  0  0  0  0
   35.0144   14.5008  -12.3389 N   0  0  0  0  0  0  0  0  0  0  0  0
   35.3453   15.2032  -13.5642 C   0  0  0  0  0  0  0  0  0  0  0  0
   35.6981   14.2091  -14.6575 C   0  0  0  0  0  0  0  0  0  0  0  0
   36.8576   13.4742  -14.1918 N   0  0  0  0  0  0  0  0  0  0  0  0
   37.7176   12.9124  -15.1749 C   0  0  0  0  0  0  0  0  0  0  0  0
   37.2089   12.0238  -16.1071 C   0  0  0  0  0  0  0  0  0  0  0  0
   38.0136   11.4716  -17.0713 C   0  0  0  0  0  0  0  0  0  0  0  0
   39.3513   11.7737  -17.1544 C   0  0  0  0  0  0  0  0  0  0  0  0
   39.8486   12.6601  -16.2211 C   0  0  0  0  0  0  0  0  0  0  0  0
   39.0476   13.2312  -15.2346 C   0  0  0  0  0  0  0  0  0  0  0  0
   40.1702   11.1778  -18.1779 C   0  0  0  0  0  0  0  0  0  0  0  0
   40.8218   10.6932  -18.9997 N   0  0  0  0  0  0  0  0  0  0  0  0
   35.4523   15.3747   -9.7977 O   0  0  0  0  0  0  0  0  0  0  0  0
   36.0401   16.5776   -9.4309 C   0  0  0  0  0  0  0  0  0  0  0  0
   37.0207   17.1816  -10.2046 C   0  0  0  0  0  0  0  0  0  0  0  0
   37.5973   18.3749   -9.8316 C   0  0  0  0  0  0  0  0  0  0  0  0
   37.2203   19.0226   -8.6652 C   0  0  0  0  0  0  0  0  0  0  0  0
   36.2483   18.4208   -7.9015 C   0  0  0  0  0  0  0  0  0  0  0  0
   35.6718   17.2278   -8.2742 C   0  0  0  0  0  0  0  0  0  0  0  0
   37.8421   20.2720   -8.3000 C   0  0  0  0  0  0  0  0  0  0  0  0
   38.3429   21.2764   -7.9857 N   0  0  0  0  0  0  0  0  0  0  0  0
  8  9  1  0  0  0
  9 10  1  0  0  0
 10 11  1  0  0  0
 11 12  1  0  0  0
 12 13  1  0  0  0
 13 14  1  0  0  0
 14 15  1  0  0  0
 15 16  2  0  0  0
 16 17  1  0  0  0
 17 18  2  0  0  0
 18 19  1  0  0  0
 19 20  2  0  0  0
 18 21  1  0  0  0
 21 22  3  0  0  0
 11  1  1  0  0  0
  1  2  2  0  0  0
  2  3  1  0  0  0
  3  4  1  0  0  0
  3  5  2  0  0  0
  5  6  1  0  0  0
  6  7  2  0  0  0
  7 23  1  0  0  0
 23 24  1  0  0  0
 24 25  2  0  0  0
 25 26  1  0  0  0
 26 27  2  0  0  0
 27 28  1  0  0  0
 28 29  2  0  0  0
 27 30  1  0  0  0
 30 31  3  0  0  0
 14  9  1  0  0  0
 20 15  1  0  0  0
  7  1  1  0  0  0
 29 24  1  0  0  0
M  END
> <minimizedAffinity>
-7.00909

> <CNNscore>
0.1831004471

> <CNNaffinity>
6.3418369293

> <CNN_VS>
1.1611931324

> <CNNaffinity_variance>
0.4918451309

$$$$
[H]c1c([H])c(Oc2c([H])c([H])c(C#N)c([H])c2[H])c(N2C([H])([H])C([H])([H])N(c3c([H])c([H])c(C#N)c([H])c3[H])[C@@]([H])(C([H])([H])[H])C2([H])[H])c([H])c1F


 31 34  0  0  0  0  0  0  0  0999 V2000
   38.3217   12.2461  -16.1916 C   0  0  0  0  0  0  0  0  0  0  0  0
   38.3709   11.2417  -17.1616 C   0  0  0  0  0  0  0  0  0  0  0  0
   37.2170   10.7303  -17.7189 C   0  0  0  0  0  0  0  0  0  0  0  0
   37.3378    9.7587  -18.6532 F   0  0  0  0  0  0  0  0  0  0  0  0
   35.9763   11.1931  -17.3374 C   0  0  0  0  0  0  0  0  0  0  0  0
   35.9218   12.1837  -16.3811 C   0  0  0  0  0  0  0  0  0  0  0  0
   37.0811   12.7098  -15.8092 C   0  0  0  0  0  0  0  0  0  0  0  0
   40.3937   15.1622  -13.8777 C   0  0  0  0  0  0  0  0  0  0  0  0
   40.8506   13.7486  -13.8675 C   0  0  0  0  0  0  0  0  0  0  0  0
   39.7479   12.7642  -14.2160 C   0  0  0  0  0  0  0  0  0  0  0  0
   39.4810   12.7751  -15.6178 N   0  0  0  0  0  0  0  0  0  0  0  0
   40.4700   13.3700  -16.4966 C   0  0  0  0  0  0  0  0  0  0  0  0
   41.8691   12.9940  -16.0393 C   0  0  0  0  0  0  0  0  0  0  0  0
   42.0260   13.5284  -14.7009 N   0  0  0  0  0  0  0  0  0  0  0  0
   43.3458   13.8230  -14.2618 C   0  0  0  0  0  0  0  0  0  0  0  0
   43.6097   13.9424  -12.9077 C   0  0  0  0  0  0  0  0  0  0  0  0
   44.8747   14.2191  -12.4547 C   0  0  0  0  0  0  0  0  0  0  0  0
   45.9293   14.3891  -13.3188 C   0  0  0  0  0  0  0  0  0  0  0  0
   45.6562   14.2681  -14.6660 C   0  0  0  0  0  0  0  0  0  0  0  0
   44.3785   13.9875  -15.1453 C   0  0  0  0  0  0  0  0  0  0  0  0
   47.2459   14.6787  -12.8129 C   0  0  0  0  0  0  0  0  0  0  0  0
   48.3018   14.9042  -12.4019 N   0  0  0  0  0  0  0  0  0  0  0  0
   37.0425   13.7076  -14.8451 O   0  0  0  0  0  0  0  0  0  0  0  0
   35.8447   13.8964  -14.1695 C   0  0  0  0  0  0  0  0  0  0  0  0
   34.6369   13.4358  -14.6736 C   0  0  0  0  0  0  0  0  0  0  0  0
   33.4543   13.6284  -13.9955 C   0  0  0  0  0  0  0  0  0  0  0  0
   33.4226   14.2920  -12.7785 C   0  0  0  0  0  0  0  0  0  0  0  0
   34.6215   14.7468  -12.2825 C   0  0  0  0  0  0  0  0  0  0  0  0
   35.8039   14.5543  -12.9604 C   0  0  0  0  0  0  0  0  0  0  0  0
   32.1685   14.4790  -12.0907 C   0  0  0  0  0  0  0  0  0  0  0  0
   31.1485   14.6131  -11.5430 N   0  0  0  0  0  0  0  0  0  0  0  0
  8  9  1  0  0  0
  9 10  1  0  0  0
 10 11  1  0  0  0
 11 12  1  0  0  0
 12 13  1  0  0  0
 13 14  1  0  0  0
 14 15  1  0  0  0
 15 16  2  0  0  0
 16 17  1  0  0  0
 17 18  2  0  0  0
 18 19  1  0  0  0
 19 20  2  0  0  0
 18 21  1  0  0  0
 21 22  3  0  0  0
 11  1  1  0  0  0
  1  2  2  0  0  0
  2  3  1  0  0  0
  3  4  1  0  0  0
  3  5  2  0  0  0
  5  6  1  0  0  0
  6  7  2  0  0  0
  7 23  1  0  0  0
 23 24  1  0  0  0
 24 25  2  0  0  0
 25 26  1  0  0  0
 26 27  2  0  0  0
 27 28  1  0  0  0
 28 29  2  0  0  0
 27 30  1  0  0  0
 30 31  3  0  0  0
 14  9  1  0  0  0
 20 15  1  0  0  0
  7  1  1  0  0  0
 29 24  1  0  0  0
M  END
> <minimizedAffinity>
-7.63944

> <CNNscore>
0.1776691377

> <CNNaffinity>
6.6901750565

> <CNN_VS>
1.1886376143

> <CNNaffinity_variance>
0.0442109369

$$$$
[H]c1c([H])c(N2C([H])([H])C([H])([H])N(c3nc4c([H])c(C#N)c([H])c([H])c4n3[H])C([H])([H])[C@]2([H])C([H])([H])[H])c([H])c([H])c1F


 26 29  0  0  0  0  0  0  0  0999 V2000
   38.7562   11.0671  -17.6535 C   0  0  0  0  0  0  0  0  0  0  0  0
   39.1618   11.5898  -16.3159 C   0  0  0  0  0  0  0  0  0  0  0  0
   40.0289   12.8277  -16.5915 C   0  0  0  0  0  0  0  0  0  0  0  0
   40.5444   13.2715  -15.3174 N   0  0  0  0  0  0  0  0  0  0  0  0
   39.5599   13.6583  -14.3281 C   0  0  0  0  0  0  0  0  0  0  0  0
   38.4457   12.6794  -14.2072 C   0  0  0  0  0  0  0  0  0  0  0  0
   38.0981   11.9958  -15.4485 N   0  0  0  0  0  0  0  0  0  0  0  0
   41.9505   13.3259  -15.0477 C   0  0  0  0  0  0  0  0  0  0  0  0
   42.9355   12.9704  -15.8783 N   0  0  0  0  0  0  0  0  0  0  0  0
   44.1516   13.1494  -15.3035 C   0  0  0  0  0  0  0  0  0  0  0  0
   45.4478   12.9356  -15.7383 C   0  0  0  0  0  0  0  0  0  0  0  0
   46.5213   13.2128  -14.9225 C   0  0  0  0  0  0  0  0  0  0  0  0
   46.2539   13.7085  -13.6635 C   0  0  0  0  0  0  0  0  0  0  0  0
   44.9671   13.9261  -13.2177 C   0  0  0  0  0  0  0  0  0  0  0  0
   43.8881   13.6448  -14.0449 C   0  0  0  0  0  0  0  0  0  0  0  0
   42.5558   13.7399  -13.9206 N   0  0  0  0  0  0  0  0  0  0  0  0
   42.0765   14.0873  -13.0650 H   0  0  0  0  0  0  0  0  0  0  0  0
   47.8884   12.9923  -15.3680 C   0  0  0  0  0  0  0  0  0  0  0  0
   48.9749   12.8228  -15.7288 N   0  0  0  0  0  0  0  0  0  0  0  0
   36.7284   11.7186  -15.7579 C   0  0  0  0  0  0  0  0  0  0  0  0
   35.7718   12.2345  -14.8983 C   0  0  0  0  0  0  0  0  0  0  0  0
   34.4175   12.0045  -15.0852 C   0  0  0  0  0  0  0  0  0  0  0  0
   34.0651   11.2407  -16.1630 C   0  0  0  0  0  0  0  0  0  0  0  0
   32.7275   11.0103  -16.3528 F   0  0  0  0  0  0  0  0  0  0  0  0
   34.9809   10.7202  -17.0246 C   0  0  0  0  0  0  0  0  0  0  0  0
   36.3187   10.9598  -16.8213 C   0  0  0  0  0  0  0  0  0  0  0  0
  1  2  1  0  0  0
  2  3  1  0  0  0
  3  4  1  0  0  0
  4  5  1  0  0  0
  5  6  1  0  0  0
  6  7  1  0  0  0
  7 20  1  0  0  0
 20 21  2  0  0  0
 21 22  1  0  0  0
 22 23  2  0  0  0
 23 24  1  0  0  0
 23 25  1  0  0  0
 25 26  2  0  0  0
  4  8  1  0  0  0
  8  9  2  0  0  0
  9 10  1  0  0  0
 10 11  2  0  0  0
 11 12  1  0  0  0
 12 13  2  0  0  0
 13 14  1  0  0  0
 14 15  2  0  0  0
 15 16  1  0  0  0
 12 18  1  0  0  0
 18 19  3  0  0  0
  7  2  1  0  0  0
 26 20  1  0  0  0
 16  8  1  0  0  0
 15 10  1  0  0  0
 16 17  1  0  0  0
M  END
> <minimizedAffinity>
-8.51315

> <CNNscore>
0.4366778135

> <CNNaffinity>
6.4856729507

> <CNN_VS>
2.8321495056

> <CNNaffinity_variance>
0.0845357031

$$$$
[H]c1c([H])c(N2C([H])([H])C([H])([H])N(c3nc4c([H])c(C#N)c([H])c([H])c4n3[H])C([H])([H])[C@]2([H])C([H])([H])[H])c([H])c([H])c1F


 26 29  0  0  0  0  0  0  0  0999 V2000
   43.5191   13.9496  -11.8045 C   0  0  0  0  0  0  0  0  0  0  0  0
   43.6958   13.3272  -13.1493 C   0  0  0  0  0  0  0  0  0  0  0  0
   42.7601   14.0944  -14.0959 C   0  0  0  0  0  0  0  0  0  0  0  0
   42.8126   13.4230  -15.3735 N   0  0  0  0  0  0  0  0  0  0  0  0
   44.1097   13.3691  -16.0156 C   0  0  0  0  0  0  0  0  0  0  0  0
   45.1983   12.9604  -15.0870 C   0  0  0  0  0  0  0  0  0  0  0  0
   45.0134   13.3901  -13.7050 N   0  0  0  0  0  0  0  0  0  0  0  0
   41.6471   12.8430  -15.9719 C   0  0  0  0  0  0  0  0  0  0  0  0
   40.4317   12.7510  -15.4233 N   0  0  0  0  0  0  0  0  0  0  0  0
   39.5573   12.1441  -16.2650 C   0  0  0  0  0  0  0  0  0  0  0  0
   38.2155   11.8200  -16.1679 C   0  0  0  0  0  0  0  0  0  0  0  0
   37.5643   11.1894  -17.2037 C   0  0  0  0  0  0  0  0  0  0  0  0
   38.2986   10.8960  -18.3337 C   0  0  0  0  0  0  0  0  0  0  0  0
   39.6362   11.2132  -18.4436 C   0  0  0  0  0  0  0  0  0  0  0  0
   40.2880   11.8494  -17.3957 C   0  0  0  0  0  0  0  0  0  0  0  0
   41.5409   12.2818  -17.1893 N   0  0  0  0  0  0  0  0  0  0  0  0
   42.3090   12.1876  -17.8848 H   0  0  0  0  0  0  0  0  0  0  0  0
   36.1543   10.8435  -17.1136 C   0  0  0  0  0  0  0  0  0  0  0  0
   35.0314   10.5741  -17.0354 N   0  0  0  0  0  0  0  0  0  0  0  0
   46.1353   13.8286  -12.9317 C   0  0  0  0  0  0  0  0  0  0  0  0
   46.5060   15.1578  -13.0575 C   0  0  0  0  0  0  0  0  0  0  0  0
   47.5941   15.6832  -12.3780 C   0  0  0  0  0  0  0  0  0  0  0  0
   48.2902   14.8256  -11.5723 C   0  0  0  0  0  0  0  0  0  0  0  0
   49.3668   15.3397  -10.8979 F   0  0  0  0  0  0  0  0  0  0  0  0
   47.9510   13.5156  -11.4283 C   0  0  0  0  0  0  0  0  0  0  0  0
   46.8690   13.0144  -12.1111 C   0  0  0  0  0  0  0  0  0  0  0  0
  1  2  1  0  0  0
  2  3  1  0  0  0
  3  4  1  0  0  0
  4  5  1  0  0  0
  5  6  1  0  0  0
  6  7  1  0  0  0
  7 20  1  0  0  0
 20 21  2  0  0  0
 21 22  1  0  0  0
 22 23  2  0  0  0
 23 24  1  0  0  0
 23 25  1  0  0  0
 25 26  2  0  0  0
  4  8  1  0  0  0
  8  9  2  0  0  0
  9 10  1  0  0  0
 10 11  2  0  0  0
 11 12  1  0  0  0
 12 13  2  0  0  0
 13 14  1  0  0  0
 14 15  2  0  0  0
 15 16  1  0  0  0
 12 18  1  0  0  0
 18 19  3  0  0  0
  7  2  1  0  0  0
 26 20  1  0  0  0
 16  8  1  0  0  0
 15 10  1  0  0  0
 16 17  1  0  0  0
M  END
> <minimizedAffinity>
-7.20171

> <CNNscore>
0.4086473286

> <CNNaffinity>
6.0603728294

> <CNN_VS>
2.4765551090

> <CNNaffinity_variance>
0.1557148248

$$$$
[H]c1c([H])c(N2C([H])([H])C([H])([H])N(c3nc4c([H])c(C#N)c([H])c([H])c4n3[H])C([H])([H])[C@]2([H])C([H])([H])[H])c([H])c([H])c1F


 26 29  0  0  0  0  0  0  0  0999 V2000
   37.9302   14.1833  -14.1706 C   0  0  0  0  0  0  0  0  0  0  0  0
   36.6227   13.4715  -14.0667 C   0  0  0  0  0  0  0  0  0  0  0  0
   35.5407   14.5518  -14.2167 C   0  0  0  0  0  0  0  0  0  0  0  0
   34.2691   13.9077  -13.9845 N   0  0  0  0  0  0  0  0  0  0  0  0
   33.9205   12.8334  -14.8911 C   0  0  0  0  0  0  0  0  0  0  0  0
   35.0380   11.8754  -15.1097 C   0  0  0  0  0  0  0  0  0  0  0  0
   36.3693   12.4703  -15.0577 N   0  0  0  0  0  0  0  0  0  0  0  0
   33.4015   14.3091  -12.9172 C   0  0  0  0  0  0  0  0  0  0  0  0
   33.7110   15.1201  -11.9009 N   0  0  0  0  0  0  0  0  0  0  0  0
   32.6533   15.2897  -11.0679 C   0  0  0  0  0  0  0  0  0  0  0  0
   32.4685   16.0148   -9.9039 C   0  0  0  0  0  0  0  0  0  0  0  0
   31.2573   16.0044   -9.2499 C   0  0  0  0  0  0  0  0  0  0  0  0
   30.2433   15.2472   -9.7983 C   0  0  0  0  0  0  0  0  0  0  0  0
   30.4142   14.5199  -10.9575 C   0  0  0  0  0  0  0  0  0  0  0  0
   31.6379   14.5342  -11.6130 C   0  0  0  0  0  0  0  0  0  0  0  0
   32.1182   13.9565  -12.7243 N   0  0  0  0  0  0  0  0  0  0  0  0
   31.5614   13.3272  -13.3380 H   0  0  0  0  0  0  0  0  0  0  0  0
   31.0505   16.7623   -8.0257 C   0  0  0  0  0  0  0  0  0  0  0  0
   30.8893   17.3587   -7.0469 N   0  0  0  0  0  0  0  0  0  0  0  0
   37.3900   12.0294  -15.9591 C   0  0  0  0  0  0  0  0  0  0  0  0
   36.9863   11.2663  -17.0430 C   0  0  0  0  0  0  0  0  0  0  0  0
   37.8924   10.7623  -17.9632 C   0  0  0  0  0  0  0  0  0  0  0  0
   39.2114   11.0536  -17.7524 C   0  0  0  0  0  0  0  0  0  0  0  0
   40.1117   10.5580  -18.6591 F   0  0  0  0  0  0  0  0  0  0  0  0
   39.6388   11.7999  -16.6977 C   0  0  0  0  0  0  0  0  0  0  0  0
   38.7243   12.2899  -15.7966 C   0  0  0  0  0  0  0  0  0  0  0  0
  1  2  1  0  0  0
  2  3  1  0  0  0
  3  4  1  0  0  0
  4  5  1  0  0  0
  5  6  1  0  0  0
  6  7  1  0  0  0
  7 20  1  0  0  0
 20 21  2  0  0  0
 21 22  1  0  0  0
 22 23  2  0  0  0
 23 24  1  0  0  0
 23 25  1  0  0  0
 25 26  2  0  0  0
  4  8  1  0  0  0
  8  9  2  0  0  0
  9 10  1  0  0  0
 10 11  2  0  0  0
 11 12  1  0  0  0
 12 13  2  0  0  0
 13 14  1  0  0  0
 14 15  2  0  0  0
 15 16  1  0  0  0
 12 18  1  0  0  0
 18 19  3  0  0  0
  7  2  1  0  0  0
 26 20  1  0  0  0
 16  8  1  0  0  0
 15 10  1  0  0  0
 16 17  1  0  0  0
M  END
> <minimizedAffinity>
-8.72457

> <CNNscore>
0.3363444805

> <CNNaffinity>
6.0137376785

> <CNN_VS>
2.0226874352

> <CNNaffinity_variance>
0.2914615273

$$$$
[H]c1c([H])c(N2C([H])([H])C([H])([H])N(c3nc4c([H])c(C#N)c([H])c([H])c4n3[H])C([H])([H])[C@]2([H])C([H])([H])[H])c([H])c([H])c1F


 26 29  0  0  0  0  0  0  0  0999 V2000
   36.9816   13.9785   -9.4525 C   0  0  0  0  0  0  0  0  0  0  0  0
   38.0219   14.9074   -9.9834 C   0  0  0  0  0  0  0  0  0  0  0  0
   39.3641   14.1791   -9.8149 C   0  0  0  0  0  0  0  0  0  0  0  0
   40.3988   15.1116  -10.1966 N   0  0  0  0  0  0  0  0  0  0  0  0
   40.3514   15.5977  -11.5601 C   0  0  0  0  0  0  0  0  0  0  0  0
   38.9876   16.0244  -11.9751 C   0  0  0  0  0  0  0  0  0  0  0  0
   37.9002   15.2681  -11.3633 N   0  0  0  0  0  0  0  0  0  0  0  0
   41.4148   15.5321   -9.2779 C   0  0  0  0  0  0  0  0  0  0  0  0
   41.5930   15.0889   -8.0296 N   0  0  0  0  0  0  0  0  0  0  0  0
   42.6504   15.6997   -7.4377 C   0  0  0  0  0  0  0  0  0  0  0  0
   43.2294   15.5928   -6.1853 C   0  0  0  0  0  0  0  0  0  0  0  0
   44.3241   16.3549   -5.8458 C   0  0  0  0  0  0  0  0  0  0  0  0
   44.8165   17.2230   -6.7979 C   0  0  0  0  0  0  0  0  0  0  0  0
   44.2491   17.3394   -8.0495 C   0  0  0  0  0  0  0  0  0  0  0  0
   43.1450   16.5681   -8.3865 C   0  0  0  0  0  0  0  0  0  0  0  0
   42.3812   16.4445   -9.4823 N   0  0  0  0  0  0  0  0  0  0  0  0
   42.5305   16.9867  -10.3576 H   0  0  0  0  0  0  0  0  0  0  0  0
   44.9416   16.2517   -4.5328 C   0  0  0  0  0  0  0  0  0  0  0  0
   45.4405   16.1724   -3.4915 N   0  0  0  0  0  0  0  0  0  0  0  0
   36.7375   14.9332  -12.1281 C   0  0  0  0  0  0  0  0  0  0  0  0
   35.5102   15.3075  -11.6047 C   0  0  0  0  0  0  0  0  0  0  0  0
   34.3179   15.0095  -12.2460 C   0  0  0  0  0  0  0  0  0  0  0  0
   34.4071   14.3251  -13.4262 C   0  0  0  0  0  0  0  0  0  0  0  0
   33.2315   14.0280  -14.0647 F   0  0  0  0  0  0  0  0  0  0  0  0
   35.5971   13.9439  -13.9653 C   0  0  0  0  0  0  0  0  0  0  0  0
   36.7677   14.2489  -13.3134 C   0  0  0  0  0  0  0  0  0  0  0  0
  1  2  1  0  0  0
  2  3  1  0  0  0
  3  4  1  0  0  0
  4  5  1  0  0  0
  5  6  1  0  0  0
  6  7  1  0  0  0
  7 20  1  0  0  0
 20 21  2  0  0  0
 21 22  1  0  0  0
 22 23  2  0  0  0
 23 24  1  0  0  0
 23 25  1  0  0  0
 25 26  2  0  0  0
  4  8  1  0  0  0
  8  9  2  0  0  0
  9 10  1  0  0  0
 10 11  2  0  0  0
 11 12  1  0  0  0
 12 13  2  0  0  0
 13 14  1  0  0  0
 14 15  2  0  0  0
 15 16  1  0  0  0
 12 18  1  0  0  0
 18 19  3  0  0  0
  7  2  1  0  0  0
 26 20  1  0  0  0
 16  8  1  0  0  0
 15 10  1  0  0  0
 16 17  1  0  0  0
M  END
> <minimizedAffinity>
-0.85720

> <CNNscore>
0.3160422742

> <CNNaffinity>
5.1616315842

> <CNN_VS>
1.6312937737

> <CNNaffinity_variance>
1.2922556400

$$$$
[H]c1c([H])c(N2C([H])([H])C([H])([H])N(c3nc4c([H])c(C#N)c([H])c([H])c4n3[H])C([H])([H])[C@]2([H])C([H])([H])[H])c([H])c([H])c1F


 26 29  0  0  0  0  0  0  0  0999 V2000
   39.7705   16.4777   -9.7018 C   0  0  0  0  0  0  0  0  0  0  0  0
   38.6401   16.3736  -10.6704 C   0  0  0  0  0  0  0  0  0  0  0  0
   38.3427   14.8731  -10.8127 C   0  0  0  0  0  0  0  0  0  0  0  0
   37.3432   14.7393  -11.8468 N   0  0  0  0  0  0  0  0  0  0  0  0
   36.0770   15.3985  -11.6025 C   0  0  0  0  0  0  0  0  0  0  0  0
   36.2367   16.7939  -11.1107 C   0  0  0  0  0  0  0  0  0  0  0  0
   37.4206   17.0180  -10.2879 N   0  0  0  0  0  0  0  0  0  0  0  0
   37.5908   13.9961  -13.0465 C   0  0  0  0  0  0  0  0  0  0  0  0
   38.7241   13.9810  -13.7548 N   0  0  0  0  0  0  0  0  0  0  0  0
   38.6166   13.1689  -14.8367 C   0  0  0  0  0  0  0  0  0  0  0  0
   39.4883   12.8227  -15.8542 C   0  0  0  0  0  0  0  0  0  0  0  0
   39.1030   11.9529  -16.8490 C   0  0  0  0  0  0  0  0  0  0  0  0
   37.8221   11.4447  -16.7905 C   0  0  0  0  0  0  0  0  0  0  0  0
   36.9435   11.7814  -15.7823 C   0  0  0  0  0  0  0  0  0  0  0  0
   37.3375   12.6592  -14.7814 C   0  0  0  0  0  0  0  0  0  0  0  0
   36.7453   13.1749  -13.6939 N   0  0  0  0  0  0  0  0  0  0  0  0
   35.7687   12.9586  -13.4076 H   0  0  0  0  0  0  0  0  0  0  0  0
   40.0099   11.5813  -17.9238 C   0  0  0  0  0  0  0  0  0  0  0  0
   40.7257   11.2885  -18.7849 N   0  0  0  0  0  0  0  0  0  0  0  0
   37.3535   17.8870   -9.1524 C   0  0  0  0  0  0  0  0  0  0  0  0
   37.7720   19.1952   -9.3351 C   0  0  0  0  0  0  0  0  0  0  0  0
   37.7772   20.1151   -8.2980 C   0  0  0  0  0  0  0  0  0  0  0  0
   37.3480   19.6711   -7.0782 C   0  0  0  0  0  0  0  0  0  0  0  0
   37.3508   20.5764   -6.0492 F   0  0  0  0  0  0  0  0  0  0  0  0
   36.9312   18.3929   -6.8675 C   0  0  0  0  0  0  0  0  0  0  0  0
   36.9342   17.4964   -7.9090 C   0  0  0  0  0  0  0  0  0  0  0  0
  1  2  1  0  0  0
  2  3  1  0  0  0
  3  4  1  0  0  0
  4  5  1  0  0  0
  5  6  1  0  0  0
  6  7  1  0  0  0
  7 20  1  0  0  0
 20 21  2  0  0  0
 21 22  1  0  0  0
 22 23  2  0  0  0
 23 24  1  0  0  0
 23 25  1  0  0  0
 25 26  2  0  0  0
  4  8  1  0  0  0
  8  9  2  0  0  0
  9 10  1  0  0  0
 10 11  2  0  0  0
 11 12  1  0  0  0
 12 13  2  0  0  0
 13 14  1  0  0  0
 14 15  2  0  0  0
 15 16  1  0  0  0
 12 18  1  0  0  0
 18 19  3  0  0  0
  7  2  1  0  0  0
 26 20  1  0  0  0
 16  8  1  0  0  0
 15 10  1  0  0  0
 16 17  1  0  0  0
M  END
> <minimizedAffinity>
-8.05107

> <CNNscore>
0.2574175894

> <CNNaffinity>
6.0021677017

> <CNN_VS>
1.5450634956

> <CNNaffinity_variance>
0.4272303581

$$$$
[H]c1c([H])c(N2C([H])([H])C([H])([H])N(c3nc4c([H])c(C#N)c([H])c([H])c4n3[H])C([H])([H])[C@]2([H])C([H])([H])[H])c([H])c([H])c1F


 26 29  0  0  0  0  0  0  0  0999 V2000
   37.5909   14.8834   -9.1775 C   0  0  0  0  0  0  0  0  0  0  0  0
   36.8530   15.1375  -10.4494 C   0  0  0  0  0  0  0  0  0  0  0  0
   36.4193   13.7583  -10.9689 C   0  0  0  0  0  0  0  0  0  0  0  0
   35.8215   13.9673  -12.2669 N   0  0  0  0  0  0  0  0  0  0  0  0
   34.6502   14.8184  -12.3027 C   0  0  0  0  0  0  0  0  0  0  0  0
   34.8228   16.0732  -11.5216 C   0  0  0  0  0  0  0  0  0  0  0  0
   35.6763   15.9458  -10.3451 N   0  0  0  0  0  0  0  0  0  0  0  0
   36.3571   13.3664  -13.4521 C   0  0  0  0  0  0  0  0  0  0  0  0
   37.5988   13.5082  -13.9261 N   0  0  0  0  0  0  0  0  0  0  0  0
   37.7717   12.7999  -15.0706 C   0  0  0  0  0  0  0  0  0  0  0  0
   38.8463   12.6233  -15.9244 C   0  0  0  0  0  0  0  0  0  0  0  0
   38.7370   11.8277  -17.0423 C   0  0  0  0  0  0  0  0  0  0  0  0
   37.5215   11.2186  -17.2748 C   0  0  0  0  0  0  0  0  0  0  0  0
   36.4427   11.3862  -16.4321 C   0  0  0  0  0  0  0  0  0  0  0  0
   36.5588   12.1897  -15.3059 C   0  0  0  0  0  0  0  0  0  0  0  0
   35.7285   12.5494  -14.3156 N   0  0  0  0  0  0  0  0  0  0  0  0
   34.7406   12.2312  -14.2427 H   0  0  0  0  0  0  0  0  0  0  0  0
   39.8591   11.6342  -17.9474 C   0  0  0  0  0  0  0  0  0  0  0  0
   40.7518   11.4888  -18.6696 N   0  0  0  0  0  0  0  0  0  0  0  0
   35.3476   16.6429   -9.1389 C   0  0  0  0  0  0  0  0  0  0  0  0
   34.1965   16.2473   -8.4767 C   0  0  0  0  0  0  0  0  0  0  0  0
   33.7674   16.8713   -7.3155 C   0  0  0  0  0  0  0  0  0  0  0  0
   34.5356   17.9017   -6.8494 C   0  0  0  0  0  0  0  0  0  0  0  0
   34.1161   18.5221   -5.7017 F   0  0  0  0  0  0  0  0  0  0  0  0
   35.6707   18.3132   -7.4773 C   0  0  0  0  0  0  0  0  0  0  0  0
   36.0786   17.6814   -8.6275 C   0  0  0  0  0  0  0  0  0  0  0  0
  1  2  1  0  0  0
  2  3  1  0  0  0
  3  4  1  0  0  0
  4  5  1  0  0  0
  5  6  1  0  0  0
  6  7  1  0  0  0
  7 20  1  0  0  0
 20 21  2  0  0  0
 21 22  1  0  0  0
 22 23  2  0  0  0
 23 24  1  0  0  0
 23 25  1  0  0  0
 25 26  2  0  0  0
  4  8  1  0  0  0
  8  9  2  0  0  0
  9 10  1  0  0  0
 10 11  2  0  0  0
 11 12  1  0  0  0
 12 13  2  0  0  0
 13 14  1  0  0  0
 14 15  2  0  0  0
 15 16  1  0  0  0
 12 18  1  0  0  0
 18 19  3  0  0  0
  7  2  1  0  0  0
 26 20  1  0  0  0
 16  8  1  0  0  0
 15 10  1  0  0  0
 16 17  1  0  0  0
M  END
> <minimizedAffinity>
-6.87107

> <CNNscore>
0.2219804227

> <CNNaffinity>
5.9237036705

> <CNN_VS>
1.3149462938

> <CNNaffinity_variance>
0.8217290044

$$$$
[H]c1c([H])c(N2C([H])([H])C([H])([H])N(c3nc4c([H])c(C#N)c([H])c([H])c4n3[H])C([H])([H])[C@]2([H])C([H])([H])[H])c([H])c([H])c1F


 26 29  0  0  0  0  0  0  0  0999 V2000
   36.5138   15.7128   -8.9106 C   0  0  0  0  0  0  0  0  0  0  0  0
   36.0686   15.5099  -10.3204 C   0  0  0  0  0  0  0  0  0  0  0  0
   36.5427   14.1028  -10.7146 C   0  0  0  0  0  0  0  0  0  0  0  0
   36.2422   13.9361  -12.1175 N   0  0  0  0  0  0  0  0  0  0  0  0
   34.8454   14.0295  -12.4886 C   0  0  0  0  0  0  0  0  0  0  0  0
   34.1596   15.1968  -11.8710 C   0  0  0  0  0  0  0  0  0  0  0  0
   34.6569   15.5668  -10.5502 N   0  0  0  0  0  0  0  0  0  0  0  0
   37.2685   13.6920  -13.0871 C   0  0  0  0  0  0  0  0  0  0  0  0
   37.1309   13.0407  -14.2462 N   0  0  0  0  0  0  0  0  0  0  0  0
   38.3054   12.9907  -14.9240 C   0  0  0  0  0  0  0  0  0  0  0  0
   38.6773   12.4436  -16.1395 C   0  0  0  0  0  0  0  0  0  0  0  0
   39.9730   12.5448  -16.5928 C   0  0  0  0  0  0  0  0  0  0  0  0
   40.8785   13.2087  -15.7917 C   0  0  0  0  0  0  0  0  0  0  0  0
   40.5212   13.7583  -14.5784 C   0  0  0  0  0  0  0  0  0  0  0  0
   39.2128   13.6533  -14.1262 C   0  0  0  0  0  0  0  0  0  0  0  0
   38.5595   14.0635  -13.0287 N   0  0  0  0  0  0  0  0  0  0  0  0
   39.0056   14.5931  -12.2522 H   0  0  0  0  0  0  0  0  0  0  0  0
   40.3763   11.9741  -17.8685 C   0  0  0  0  0  0  0  0  0  0  0  0
   40.6929   11.5125  -18.8816 N   0  0  0  0  0  0  0  0  0  0  0  0
   33.7469   16.0030   -9.5350 C   0  0  0  0  0  0  0  0  0  0  0  0
   32.3939   15.8966   -9.8143 C   0  0  0  0  0  0  0  0  0  0  0  0
   31.4246   16.3152   -8.9160 C   0  0  0  0  0  0  0  0  0  0  0  0
   31.8659   16.8414   -7.7338 C   0  0  0  0  0  0  0  0  0  0  0  0
   30.9119   17.2567   -6.8419 F   0  0  0  0  0  0  0  0  0  0  0  0
   33.1874   16.9592   -7.4309 C   0  0  0  0  0  0  0  0  0  0  0  0
   34.1325   16.5385   -8.3354 C   0  0  0  0  0  0  0  0  0  0  0  0
  1  2  1  0  0  0
  2  3  1  0  0  0
  3  4  1  0  0  0
  4  5  1  0  0  0
  5  6  1  0  0  0
  6  7  1  0  0  0
  7 20  1  0  0  0
 20 21  2  0  0  0
 21 22  1  0  0  0
 22 23  2  0  0  0
 23 24  1  0  0  0
 23 25  1  0  0  0
 25 26  2  0  0  0
  4  8  1  0  0  0
  8  9  2  0  0  0
  9 10  1  0  0  0
 10 11  2  0  0  0
 11 12  1  0  0  0
 12 13  2  0  0  0
 13 14  1  0  0  0
 14 15  2  0  0  0
 15 16  1  0  0  0
 12 18  1  0  0  0
 18 19  3  0  0  0
  7  2  1  0  0  0
 26 20  1  0  0  0
 16  8  1  0  0  0
 15 10  1  0  0  0
 16 17  1  0  0  0
M  END
> <minimizedAffinity>
-7.74835

> <CNNscore>
0.1786392331

> <CNNaffinity>
5.8156819344

> <CNN_VS>
1.0389089584

> <CNNaffinity_variance>
0.7365962863

$$$$
[H]c1c([H])c(N2C([H])([H])C([H])([H])N(c3nc4c([H])c(C#N)c([H])c([H])c4n3[H])C([H])([H])[C@]2([H])C([H])([H])[H])c([H])c([H])c1F


 26 29  0  0  0  0  0  0  0  0999 V2000
   37.9715   13.7718  -14.0410 C   0  0  0  0  0  0  0  0  0  0  0  0
   36.9368   14.0699  -13.0078 C   0  0  0  0  0  0  0  0  0  0  0  0
   36.8500   15.6016  -12.9269 C   0  0  0  0  0  0  0  0  0  0  0  0
   35.9534   15.9145  -11.8387 N   0  0  0  0  0  0  0  0  0  0  0  0
   34.5973   15.4216  -11.9644 C   0  0  0  0  0  0  0  0  0  0  0  0
   34.5368   13.9971  -12.3902 C   0  0  0  0  0  0  0  0  0  0  0  0
   35.6190   13.5793  -13.2752 N   0  0  0  0  0  0  0  0  0  0  0  0
   36.3816   16.6700  -10.6990 C   0  0  0  0  0  0  0  0  0  0  0  0
   36.1793   16.3589   -9.4150 N   0  0  0  0  0  0  0  0  0  0  0  0
   36.7179   17.2939   -8.5921 C   0  0  0  0  0  0  0  0  0  0  0  0
   36.7759   17.4270   -7.2160 C   0  0  0  0  0  0  0  0  0  0  0  0
   37.4034   18.5065   -6.6365 C   0  0  0  0  0  0  0  0  0  0  0  0
   37.9677   19.4428   -7.4776 C   0  0  0  0  0  0  0  0  0  0  0  0
   37.9170   19.3222   -8.8505 C   0  0  0  0  0  0  0  0  0  0  0  0
   37.2828   18.2313   -9.4295 C   0  0  0  0  0  0  0  0  0  0  0  0
   37.0642   17.8286  -10.6902 N   0  0  0  0  0  0  0  0  0  0  0  0
   37.3851   18.3520  -11.5302 H   0  0  0  0  0  0  0  0  0  0  0  0
   37.4710   18.6578   -5.1914 C   0  0  0  0  0  0  0  0  0  0  0  0
   37.5331   18.7812   -4.0423 N   0  0  0  0  0  0  0  0  0  0  0  0
   35.3573   12.6778  -14.3558 C   0  0  0  0  0  0  0  0  0  0  0  0
   34.0525   12.2360  -14.5053 C   0  0  0  0  0  0  0  0  0  0  0  0
   33.6912   11.3397  -15.4992 C   0  0  0  0  0  0  0  0  0  0  0  0
   34.6863   10.9079  -16.3313 C   0  0  0  0  0  0  0  0  0  0  0  0
   34.3347   10.0218  -17.3159 F   0  0  0  0  0  0  0  0  0  0  0  0
   35.9766   11.3233  -16.2096 C   0  0  0  0  0  0  0  0  0  0  0  0
   36.3140   12.2120  -15.2173 C   0  0  0  0  0  0  0  0  0  0  0  0
  1  2  1  0  0  0
  2  3  1  0  0  0
  3  4  1  0  0  0
  4  5  1  0  0  0
  5  6  1  0  0  0
  6  7  1  0  0  0
  7 20  1  0  0  0
 20 21  2  0  0  0
 21 22  1  0  0  0
 22 23  2  0  0  0
 23 24  1  0  0  0
 23 25  1  0  0  0
 25 26  2  0  0  0
  4  8  1  0  0  0
  8  9  2  0  0  0
  9 10  1  0  0  0
 10 11  2  0  0  0
 11 12  1  0  0  0
 12 13  2  0  0  0
 13 14  1  0  0  0
 14 15  2  0  0  0
 15 16  1  0  0  0
 12 18  1  0  0  0
 18 19  3  0  0  0
  7  2  1  0  0  0
 26 20  1  0  0  0
 16  8  1  0  0  0
 15 10  1  0  0  0
 16 17  1  0  0  0
M  END
> <minimizedAffinity>
-7.16466

> <CNNscore>
0.1459358335

> <CNNaffinity>
5.4856896400

> <CNN_VS>
0.8005586863

> <CNNaffinity_variance>
0.1222217828

$$$$
[H]c1c([H])c(N2C([H])([H])C([H])([H])N(c3nc4c([H])c(C#N)c([H])c([H])c4n3[H])C([H])([H])[C@]2([H])C([H])([H])[H])c([H])c([H])c1F


 26 29  0  0  0  0  0  0  0  0999 V2000
   43.1883   14.1079  -12.2255 C   0  0  0  0  0  0  0  0  0  0  0  0
   42.6950   13.4246  -13.4570 C   0  0  0  0  0  0  0  0  0  0  0  0
   41.5439   14.2920  -13.9889 C   0  0  0  0  0  0  0  0  0  0  0  0
   40.9623   13.5806  -15.1032 N   0  0  0  0  0  0  0  0  0  0  0  0
   41.8420   13.3151  -16.2227 C   0  0  0  0  0  0  0  0  0  0  0  0
   43.1654   12.7788  -15.8040 C   0  0  0  0  0  0  0  0  0  0  0  0
   43.6441   13.2741  -14.5178 N   0  0  0  0  0  0  0  0  0  0  0  0
   39.5922   13.1614  -15.1010 C   0  0  0  0  0  0  0  0  0  0  0  0
   38.8881   12.7338  -16.1535 N   0  0  0  0  0  0  0  0  0  0  0  0
   37.6175   12.4161  -15.7984 C   0  0  0  0  0  0  0  0  0  0  0  0
   36.5258   11.9399  -16.5029 C   0  0  0  0  0  0  0  0  0  0  0  0
   35.3269   11.6999  -15.8706 C   0  0  0  0  0  0  0  0  0  0  0  0
   35.2591   11.9517  -14.5162 C   0  0  0  0  0  0  0  0  0  0  0  0
   36.3392   12.4264  -13.8022 C   0  0  0  0  0  0  0  0  0  0  0  0
   37.5461   12.6666  -14.4452 C   0  0  0  0  0  0  0  0  0  0  0  0
   38.7489   13.1137  -14.0546 N   0  0  0  0  0  0  0  0  0  0  0  0
   38.9785   13.3811  -13.0757 H   0  0  0  0  0  0  0  0  0  0  0  0
   34.1723   11.1994  -16.6001 C   0  0  0  0  0  0  0  0  0  0  0  0
   33.2490   10.8006  -17.1729 N   0  0  0  0  0  0  0  0  0  0  0  0
   45.0330   13.5654  -14.3308 C   0  0  0  0  0  0  0  0  0  0  0  0
   45.4461   14.8610  -14.5972 C   0  0  0  0  0  0  0  0  0  0  0  0
   46.7722   15.2470  -14.4777 C   0  0  0  0  0  0  0  0  0  0  0  0
   47.6607   14.2860  -14.0824 C   0  0  0  0  0  0  0  0  0  0  0  0
   48.9730   14.6622  -13.9624 F   0  0  0  0  0  0  0  0  0  0  0  0
   47.2856   13.0057  -13.8138 C   0  0  0  0  0  0  0  0  0  0  0  0
   45.9660   12.6433  -13.9388 C   0  0  0  0  0  0  0  0  0  0  0  0
  1  2  1  0  0  0
  2  3  1  0  0  0
  3  4  1  0  0  0
  4  5  1  0  0  0
  5  6  1  0  0  0
  6  7  1  0  0  0
  7 20  1  0  0  0
 20 21  2  0  0  0
 21 22  1  0  0  0
 22 23  2  0  0  0
 23 24  1  0  0  0
 23 25  1  0  0  0
 25 26  2  0  0  0
  4  8  1  0  0  0
  8  9  2  0  0  0
  9 10  1  0  0  0
 10 11  2  0  0  0
 11 12  1  0  0  0
 12 13  2  0  0  0
 13 14  1  0  0  0
 14 15  2  0  0  0
 15 16  1  0  0  0
 12 18  1  0  0  0
 18 19  3  0  0  0
  7  2  1  0  0  0
 26 20  1  0  0  0
 16  8  1  0  0  0
 15 10  1  0  0  0
 16 17  1  0  0  0
M  END
> <minimizedAffinity>
-7.27562

> <CNNscore>
0.1450825930

> <CNNaffinity>
5.9868364334

> <CNN_VS>
0.8685857654

> <CNNaffinity_variance>
0.1208597571

$$$$
[H]c1c([H])c(N2C([H])([H])C([H])([H])N(c3c([H])c([H])c(C(F)(F)F)c([H])c3[H])[C@]([H])(C([H])([H])[H])C2([H])[H])c([H])c([H])c1C#N


 25 27  0  0  0  0  0  0  0  0999 V2000
   39.6984   12.8951   -6.9994 C   0  0  0  0  0  0  0  0  0  0  0  0
   39.5321   14.3999   -7.1400 C   0  0  0  0  0  0  0  0  0  0  0  0
   40.8356   15.0974   -7.3191 C   0  0  0  0  0  0  0  0  0  0  0  0
   41.5651   15.4311   -6.1393 N   0  0  0  0  0  0  0  0  0  0  0  0
   40.8163   15.9795   -5.0185 C   0  0  0  0  0  0  0  0  0  0  0  0
   39.5321   15.2472   -4.7873 C   0  0  0  0  0  0  0  0  0  0  0  0
   38.8163   14.8646   -5.9938 N   0  0  0  0  0  0  0  0  0  0  0  0
   37.3695   14.9021   -5.9507 C   0  0  0  0  0  0  0  0  0  0  0  0
   36.6428   13.9215   -5.3324 C   0  0  0  0  0  0  0  0  0  0  0  0
   35.2590   13.8388   -5.3586 C   0  0  0  0  0  0  0  0  0  0  0  0
   34.5615   14.7927   -6.0445 C   0  0  0  0  0  0  0  0  0  0  0  0
   35.2632   15.7974   -6.6758 C   0  0  0  0  0  0  0  0  0  0  0  0
   36.6554   15.8632   -6.6343 C   0  0  0  0  0  0  0  0  0  0  0  0
   33.0732   14.7314   -6.1681 C   0  0  0  0  0  0  0  0  0  0  0  0
   32.5721   14.2918   -4.9263 F   0  0  0  0  0  0  0  0  0  0  0  0
   32.6691   13.8116   -7.1236 F   0  0  0  0  0  0  0  0  0  0  0  0
   32.5992   15.9867   -6.4152 F   0  0  0  0  0  0  0  0  0  0  0  0
   42.9711   15.2155   -6.0706 C   0  0  0  0  0  0  0  0  0  0  0  0
   43.5502   14.4098   -5.1310 C   0  0  0  0  0  0  0  0  0  0  0  0
   44.8986   14.2352   -5.0893 C   0  0  0  0  0  0  0  0  0  0  0  0
   45.7109   14.8781   -6.0055 C   0  0  0  0  0  0  0  0  0  0  0  0
   45.1487   15.6982   -6.9654 C   0  0  0  0  0  0  0  0  0  0  0  0
   43.7879   15.8639   -6.9968 C   0  0  0  0  0  0  0  0  0  0  0  0
   47.1510   14.7063   -5.9855 C   0  0  0  0  0  0  0  0  0  0  0  0
   48.2952   14.5936   -5.9687 N   0  0  0  0  0  0  0  0  0  0  0  0
  1  2  1  0  0  0
  2  3  1  0  0  0
  3  4  1  0  0  0
  4  5  1  0  0  0
  5  6  1  0  0  0
  6  7  1  0  0  0
  7  8  1  0  0  0
  8  9  2  0  0  0
  9 10  1  0  0  0
 10 11  2  0  0  0
 11 12  1  0  0  0
 12 13  2  0  0  0
 11 14  1  0  0  0
 14 15  1  0  0  0
 14 16  1  0  0  0
 14 17  1  0  0  0
  4 18  1  0  0  0
 18 19  2  0  0  0
 19 20  1  0  0  0
 20 21  2  0  0  0
 21 22  1  0  0  0
 22 23  2  0  0  0
 21 24  1  0  0  0
 24 25  3  0  0  0
  7  2  1  0  0  0
 13  8  1  0  0  0
 23 18  1  0  0  0
M  END
> <minimizedAffinity>
-3.66589

> <CNNscore>
0.5346946120

> <CNNaffinity>
4.5842490196

> <CNN_VS>
2.4511733055

> <CNNaffinity_variance>
0.3146079183

$$$$
[H]c1c([H])c(N2C([H])([H])C([H])([H])N(c3c([H])c([H])c(C(F)(F)F)c([H])c3[H])[C@]([H])(C([H])([H])[H])C2([H])[H])c([H])c([H])c1C#N


 25 27  0  0  0  0  0  0  0  0999 V2000
   40.3628   13.8168   -7.6945 C   0  0  0  0  0  0  0  0  0  0  0  0
   40.8489   13.6277   -6.2663 C   0  0  0  0  0  0  0  0  0  0  0  0
   39.7287   13.6209   -5.2852 C   0  0  0  0  0  0  0  0  0  0  0  0
   39.2686   14.8853   -4.8107 N   0  0  0  0  0  0  0  0  0  0  0  0
   40.2733   15.8801   -4.4662 C   0  0  0  0  0  0  0  0  0  0  0  0
   41.3744   15.9417   -5.4776 C   0  0  0  0  0  0  0  0  0  0  0  0
   41.8062   14.6538   -5.9961 N   0  0  0  0  0  0  0  0  0  0  0  0
   43.2141   14.4927   -6.2929 C   0  0  0  0  0  0  0  0  0  0  0  0
   43.7781   13.2568   -6.4554 C   0  0  0  0  0  0  0  0  0  0  0  0
   45.1360   13.0322   -6.6231 C   0  0  0  0  0  0  0  0  0  0  0  0
   45.9791   14.1074   -6.6275 C   0  0  0  0  0  0  0  0  0  0  0  0
   45.4429   15.3676   -6.4700 C   0  0  0  0  0  0  0  0  0  0  0  0
   44.0733   15.5710   -6.3056 C   0  0  0  0  0  0  0  0  0  0  0  0
   47.4597   13.9359   -6.7403 C   0  0  0  0  0  0  0  0  0  0  0  0
   47.9860   15.1637   -7.1894 F   0  0  0  0  0  0  0  0  0  0  0  0
   47.8008   12.9741   -7.6790 F   0  0  0  0  0  0  0  0  0  0  0  0
   47.9676   13.6647   -5.5034 F   0  0  0  0  0  0  0  0  0  0  0  0
   37.8747   15.1544   -4.6982 C   0  0  0  0  0  0  0  0  0  0  0  0
   37.2930   15.5643   -3.5316 C   0  0  0  0  0  0  0  0  0  0  0  0
   35.9557   15.8024   -3.4586 C   0  0  0  0  0  0  0  0  0  0  0  0
   35.1575   15.6300   -4.5746 C   0  0  0  0  0  0  0  0  0  0  0  0
   35.7226   15.2160   -5.7660 C   0  0  0  0  0  0  0  0  0  0  0  0
   37.0723   14.9811   -5.8258 C   0  0  0  0  0  0  0  0  0  0  0  0
   33.7297   15.8804   -4.5250 C   0  0  0  0  0  0  0  0  0  0  0  0
   32.5940   16.0571   -4.4938 N   0  0  0  0  0  0  0  0  0  0  0  0
  1  2  1  0  0  0
  2  3  1  0  0  0
  3  4  1  0  0  0
  4  5  1  0  0  0
  5  6  1  0  0  0
  6  7  1  0  0  0
  7  8  1  0  0  0
  8  9  2  0  0  0
  9 10  1  0  0  0
 10 11  2  0  0  0
 11 12  1  0  0  0
 12 13  2  0  0  0
 11 14  1  0  0  0
 14 15  1  0  0  0
 14 16  1  0  0  0
 14 17  1  0  0  0
  4 18  1  0  0  0
 18 19  2  0  0  0
 19 20  1  0  0  0
 20 21  2  0  0  0
 21 22  1  0  0  0
 22 23  2  0  0  0
 21 24  1  0  0  0
 24 25  3  0  0  0
  7  2  1  0  0  0
 13  8  1  0  0  0
 23 18  1  0  0  0
M  END
> <minimizedAffinity>
-3.16136

> <CNNscore>
0.5038065910

> <CNNaffinity>
4.4591379166

> <CNN_VS>
2.2465431690

> <CNNaffinity_variance>
0.2466404438

$$$$
[H]c1c([H])c(N2C([H])([H])C([H])([H])N(c3c([H])c([H])c(C(F)(F)F)c([H])c3[H])[C@]([H])(C([H])([H])[H])C2([H])[H])c([H])c([H])c1C#N


 25 27  0  0  0  0  0  0  0  0999 V2000
   36.5155   12.5170  -12.3606 C   0  0  0  0  0  0  0  0  0  0  0  0
   36.2911   13.5514  -13.4522 C   0  0  0  0  0  0  0  0  0  0  0  0
   35.3568   14.6293  -13.0246 C   0  0  0  0  0  0  0  0  0  0  0  0
   33.9599   14.3789  -13.1716 N   0  0  0  0  0  0  0  0  0  0  0  0
   33.5165   13.7470  -14.4052 C   0  0  0  0  0  0  0  0  0  0  0  0
   34.4119   12.6199  -14.8137 C   0  0  0  0  0  0  0  0  0  0  0  0
   35.8322   12.8598  -14.6154 N   0  0  0  0  0  0  0  0  0  0  0  0
   36.7446   12.3064  -15.5940 C   0  0  0  0  0  0  0  0  0  0  0  0
   38.0687   12.6506  -15.6181 C   0  0  0  0  0  0  0  0  0  0  0  0
   38.9639   12.2486  -16.5976 C   0  0  0  0  0  0  0  0  0  0  0  0
   38.5073   11.4565  -17.6131 C   0  0  0  0  0  0  0  0  0  0  0  0
   37.1788   11.0881  -17.6167 C   0  0  0  0  0  0  0  0  0  0  0  0
   36.2961   11.5016  -16.6197 C   0  0  0  0  0  0  0  0  0  0  0  0
   39.4003   11.0375  -18.7360 C   0  0  0  0  0  0  0  0  0  0  0  0
   40.4027   10.2152  -18.1834 F   0  0  0  0  0  0  0  0  0  0  0  0
   40.0351   12.1198  -19.3260 F   0  0  0  0  0  0  0  0  0  0  0  0
   38.6726   10.3060  -19.6287 F   0  0  0  0  0  0  0  0  0  0  0  0
   33.0477   14.7263  -12.1347 C   0  0  0  0  0  0  0  0  0  0  0  0
   31.7299   14.3656  -12.1583 C   0  0  0  0  0  0  0  0  0  0  0  0
   30.8848   14.7239  -11.1544 C   0  0  0  0  0  0  0  0  0  0  0  0
   31.3515   15.4671  -10.0856 C   0  0  0  0  0  0  0  0  0  0  0  0
   32.6803   15.8440  -10.0391 C   0  0  0  0  0  0  0  0  0  0  0  0
   33.5215   15.4745  -11.0572 C   0  0  0  0  0  0  0  0  0  0  0  0
   30.4726   15.8592   -9.0004 C   0  0  0  0  0  0  0  0  0  0  0  0
   29.7699   16.1474   -8.1371 N   0  0  0  0  0  0  0  0  0  0  0  0
  1  2  1  0  0  0
  2  3  1  0  0  0
  3  4  1  0  0  0
  4  5  1  0  0  0
  5  6  1  0  0  0
  6  7  1  0  0  0
  7  8  1  0  0  0
  8  9  2  0  0  0
  9 10  1  0  0  0
 10 11  2  0  0  0
 11 12  1  0  0  0
 12 13  2  0  0  0
 11 14  1  0  0  0
 14 15  1  0  0  0
 14 16  1  0  0  0
 14 17  1  0  0  0
  4 18  1  0  0  0
 18 19  2  0  0  0
 19 20  1  0  0  0
 20 21  2  0  0  0
 21 22  1  0  0  0
 22 23  2  0  0  0
 21 24  1  0  0  0
 24 25  3  0  0  0
  7  2  1  0  0  0
 13  8  1  0  0  0
 23 18  1  0  0  0
M  END
> <minimizedAffinity>
-7.73871

> <CNNscore>
0.4299002290

> <CNNaffinity>
5.8388619423

> <CNN_VS>
2.5101280212

> <CNNaffinity_variance>
0.1692020446

$$$$
[H]c1c([H])c(N2C([H])([H])C([H])([H])N(c3c([H])c([H])c(C(F)(F)F)c([H])c3[H])[C@]([H])(C([H])([H])[H])C2([H])[H])c([H])c([H])c1C#N


 25 27  0  0  0  0  0  0  0  0999 V2000
   36.6224   15.5928  -12.3736 C   0  0  0  0  0  0  0  0  0  0  0  0
   35.8703   14.3313  -11.9801 C   0  0  0  0  0  0  0  0  0  0  0  0
   36.4049   13.1199  -12.6616 C   0  0  0  0  0  0  0  0  0  0  0  0
   35.9118   12.8355  -13.9698 N   0  0  0  0  0  0  0  0  0  0  0  0
   34.4826   12.9886  -14.1974 C   0  0  0  0  0  0  0  0  0  0  0  0
   33.9431   14.2356  -13.5707 C   0  0  0  0  0  0  0  0  0  0  0  0
   34.4856   14.5490  -12.2586 N   0  0  0  0  0  0  0  0  0  0  0  0
   33.5905   15.1529  -11.2940 C   0  0  0  0  0  0  0  0  0  0  0  0
   34.0393   15.6135  -10.0864 C   0  0  0  0  0  0  0  0  0  0  0  0
   33.2177   16.0917   -9.0769 C   0  0  0  0  0  0  0  0  0  0  0  0
   31.8679   16.1092   -9.2881 C   0  0  0  0  0  0  0  0  0  0  0  0
   31.3826   15.6556  -10.4960 C   0  0  0  0  0  0  0  0  0  0  0  0
   32.2273   15.1812  -11.4989 C   0  0  0  0  0  0  0  0  0  0  0  0
   30.9184   16.5519   -8.2220 C   0  0  0  0  0  0  0  0  0  0  0  0
   31.4708   16.1595   -6.9862 F   0  0  0  0  0  0  0  0  0  0  0  0
   29.6837   15.9314   -8.3362 F   0  0  0  0  0  0  0  0  0  0  0  0
   30.8260   17.9128   -8.2511 F   0  0  0  0  0  0  0  0  0  0  0  0
   36.7995   12.4326  -15.0079 C   0  0  0  0  0  0  0  0  0  0  0  0
   36.3907   11.7009  -16.0872 C   0  0  0  0  0  0  0  0  0  0  0  0
   37.2694   11.3250  -17.0552 C   0  0  0  0  0  0  0  0  0  0  0  0
   38.6024   11.6803  -16.9593 C   0  0  0  0  0  0  0  0  0  0  0  0
   39.0400   12.4202  -15.8771 C   0  0  0  0  0  0  0  0  0  0  0  0
   38.1431   12.7937  -14.9094 C   0  0  0  0  0  0  0  0  0  0  0  0
   39.5593   11.2956  -17.9792 C   0  0  0  0  0  0  0  0  0  0  0  0
   40.3127   11.0104  -18.7997 N   0  0  0  0  0  0  0  0  0  0  0  0
  1  2  1  0  0  0
  2  3  1  0  0  0
  3  4  1  0  0  0
  4  5  1  0  0  0
  5  6  1  0  0  0
  6  7  1  0  0  0
  7  8  1  0  0  0
  8  9  2  0  0  0
  9 10  1  0  0  0
 10 11  2  0  0  0
 11 12  1  0  0  0
 12 13  2  0  0  0
 11 14  1  0  0  0
 14 15  1  0  0  0
 14 16  1  0  0  0
 14 17  1  0  0  0
  4 18  1  0  0  0
 18 19  2  0  0  0
 19 20  1  0  0  0
 20 21  2  0  0  0
 21 22  1  0  0  0
 22 23  2  0  0  0
 21 24  1  0  0  0
 24 25  3  0  0  0
  7  2  1  0  0  0
 13  8  1  0  0  0
 23 18  1  0  0  0
M  END
> <minimizedAffinity>
-7.98619

> <CNNscore>
0.3732473552

> <CNNaffinity>
5.7828035355

> <CNN_VS>
2.1584160328

> <CNNaffinity_variance>
1.0048823357

$$$$
[H]c1c([H])c(N2C([H])([H])C([H])([H])N(c3c([H])c([H])c(C(F)(F)F)c([H])c3[H])[C@]([H])(C([H])([H])[H])C2([H])[H])c([H])c([H])c1C#N


 25 27  0  0  0  0  0  0  0  0999 V2000
   39.4845   14.9018  -14.5003 C   0  0  0  0  0  0  0  0  0  0  0  0
   39.7702   13.4103  -14.4233 C   0  0  0  0  0  0  0  0  0  0  0  0
   41.1780   13.1251  -14.0303 C   0  0  0  0  0  0  0  0  0  0  0  0
   42.1565   13.1149  -15.0685 N   0  0  0  0  0  0  0  0  0  0  0  0
   41.8062   12.4522  -16.3159 C   0  0  0  0  0  0  0  0  0  0  0  0
   40.4143   12.7803  -16.7560 C   0  0  0  0  0  0  0  0  0  0  0  0
   39.4292   12.8391  -15.6881 N   0  0  0  0  0  0  0  0  0  0  0  0
   38.0919   12.3723  -15.9883 C   0  0  0  0  0  0  0  0  0  0  0  0
   37.0189   12.7169  -15.2125 C   0  0  0  0  0  0  0  0  0  0  0  0
   35.7390   12.2097  -15.3775 C   0  0  0  0  0  0  0  0  0  0  0  0
   35.5203   11.3038  -16.3768 C   0  0  0  0  0  0  0  0  0  0  0  0
   36.5796   10.9378  -17.1795 C   0  0  0  0  0  0  0  0  0  0  0  0
   37.8585   11.4626  -16.9977 C   0  0  0  0  0  0  0  0  0  0  0  0
   34.1817   10.6684  -16.5729 C   0  0  0  0  0  0  0  0  0  0  0  0
   34.3966    9.2817  -16.7041 F   0  0  0  0  0  0  0  0  0  0  0  0
   33.5673   11.1015  -17.7379 F   0  0  0  0  0  0  0  0  0  0  0  0
   33.4200   10.8934  -15.4636 F   0  0  0  0  0  0  0  0  0  0  0  0
   43.4188   13.7471  -14.8817 C   0  0  0  0  0  0  0  0  0  0  0  0
   44.5029   13.4799  -15.6696 C   0  0  0  0  0  0  0  0  0  0  0  0
   45.6967   14.0959  -15.4553 C   0  0  0  0  0  0  0  0  0  0  0  0
   45.8320   15.0095  -14.4260 C   0  0  0  0  0  0  0  0  0  0  0  0
   44.7499   15.2964  -13.6155 C   0  0  0  0  0  0  0  0  0  0  0  0
   43.5521   14.6692  -13.8438 C   0  0  0  0  0  0  0  0  0  0  0  0
   47.0924   15.6831  -14.1781 C   0  0  0  0  0  0  0  0  0  0  0  0
   48.0809   16.2307  -13.9656 N   0  0  0  0  0  0  0  0  0  0  0  0
  1  2  1  0  0  0
  2  3  1  0  0  0
  3  4  1  0  0  0
  4  5  1  0  0  0
  5  6  1  0  0  0
  6  7  1  0  0  0
  7  8  1  0  0  0
  8  9  2  0  0  0
  9 10  1  0  0  0
 10 11  2  0  0  0
 11 12  1  0  0  0
 12 13  2  0  0  0
 11 14  1  0  0  0
 14 15  1  0  0  0
 14 16  1  0  0  0
 14 17  1  0  0  0
  4 18  1  0  0  0
 18 19  2  0  0  0
 19 20  1  0  0  0
 20 21  2  0  0  0
 21 22  1  0  0  0
 22 23  2  0  0  0
 21 24  1  0  0  0
 24 25  3  0  0  0
  7  2  1  0  0  0
 13  8  1  0  0  0
 23 18  1  0  0  0
M  END
> <minimizedAffinity>
-7.18064

> <CNNscore>
0.2775500417

> <CNNaffinity>
5.9564275742

> <CNN_VS>
1.6532067060

> <CNNaffinity_variance>
0.0397087112

$$$$
[H]c1c([H])c(N2C([H])([H])C([H])([H])N(c3c([H])c([H])c(C(F)(F)F)c([H])c3[H])[C@]([H])(C([H])([H])[H])C2([H])[H])c([H])c([H])c1C#N


 25 27  0  0  0  0  0  0  0  0999 V2000
   37.2921   14.1584  -11.4934 C   0  0  0  0  0  0  0  0  0  0  0  0
   36.5318   14.8427  -12.6184 C   0  0  0  0  0  0  0  0  0  0  0  0
   35.5068   15.7953  -12.1090 C   0  0  0  0  0  0  0  0  0  0  0  0
   34.2307   15.2585  -11.7640 N   0  0  0  0  0  0  0  0  0  0  0  0
   33.6464   14.2798  -12.6687 C   0  0  0  0  0  0  0  0  0  0  0  0
   34.6526   13.2775  -13.1397 C   0  0  0  0  0  0  0  0  0  0  0  0
   35.9669   13.8208  -13.4423 N   0  0  0  0  0  0  0  0  0  0  0  0
   36.6925   13.2330  -14.5489 C   0  0  0  0  0  0  0  0  0  0  0  0
   36.0574   12.5144  -15.5247 C   0  0  0  0  0  0  0  0  0  0  0  0
   36.7070   11.8304  -16.5409 C   0  0  0  0  0  0  0  0  0  0  0  0
   38.0723   11.8668  -16.5824 C   0  0  0  0  0  0  0  0  0  0  0  0
   38.7433   12.5854  -15.6161 C   0  0  0  0  0  0  0  0  0  0  0  0
   38.0697   13.2685  -14.6042 C   0  0  0  0  0  0  0  0  0  0  0  0
   38.8410   11.1020  -17.6112 C   0  0  0  0  0  0  0  0  0  0  0  0
   37.8994   10.5130  -18.4788 F   0  0  0  0  0  0  0  0  0  0  0  0
   39.5810   10.0737  -17.0479 F   0  0  0  0  0  0  0  0  0  0  0  0
   39.6120   11.9735  -18.3236 F   0  0  0  0  0  0  0  0  0  0  0  0
   33.5725   15.6639  -10.5680 C   0  0  0  0  0  0  0  0  0  0  0  0
   34.2478   15.9658   -9.4190 C   0  0  0  0  0  0  0  0  0  0  0  0
   33.5848   16.3401   -8.2917 C   0  0  0  0  0  0  0  0  0  0  0  0
   32.2041   16.4197   -8.2919 C   0  0  0  0  0  0  0  0  0  0  0  0
   31.4989   16.1192   -9.4418 C   0  0  0  0  0  0  0  0  0  0  0  0
   32.1802   15.7449  -10.5715 C   0  0  0  0  0  0  0  0  0  0  0  0
   31.4729   16.8196   -7.1047 C   0  0  0  0  0  0  0  0  0  0  0  0
   30.8947   17.1144   -6.1556 N   0  0  0  0  0  0  0  0  0  0  0  0
  1  2  1  0  0  0
  2  3  1  0  0  0
  3  4  1  0  0  0
  4  5  1  0  0  0
  5  6  1  0  0  0
  6  7  1  0  0  0
  7  8  1  0  0  0
  8  9  2  0  0  0
  9 10  1  0  0  0
 10 11  2  0  0  0
 11 12  1  0  0  0
 12 13  2  0  0  0
 11 14  1  0  0  0
 14 15  1  0  0  0
 14 16  1  0  0  0
 14 17  1  0  0  0
  4 18  1  0  0  0
 18 19  2  0  0  0
 19 20  1  0  0  0
 20 21  2  0  0  0
 21 22  1  0  0  0
 22 23  2  0  0  0
 21 24  1  0  0  0
 24 25  3  0  0  0
  7  2  1  0  0  0
 13  8  1  0  0  0
 23 18  1  0  0  0
M  END
> <minimizedAffinity>
-7.81258

> <CNNscore>
0.2286816537

> <CNNaffinity>
5.2957143784

> <CNN_VS>
1.2110327482

> <CNNaffinity_variance>
0.3077717423

$$$$
[H]c1c([H])c(N2C([H])([H])C([H])([H])N(c3c([H])c([H])c(C(F)(F)F)c([H])c3[H])[C@]([H])(C([H])([H])[H])C2([H])[H])c([H])c([H])c1C#N


 25 27  0  0  0  0  0  0  0  0999 V2000
   35.4659   12.7934  -12.3559 C   0  0  0  0  0  0  0  0  0  0  0  0
   35.7568   14.2788  -12.4998 C   0  0  0  0  0  0  0  0  0  0  0  0
   36.5271   14.5857  -13.7368 C   0  0  0  0  0  0  0  0  0  0  0  0
   37.9466   14.4587  -13.6704 N   0  0  0  0  0  0  0  0  0  0  0  0
   38.6131   14.9764  -12.4848 C   0  0  0  0  0  0  0  0  0  0  0  0
   37.8825   14.6213  -11.2282 C   0  0  0  0  0  0  0  0  0  0  0  0
   36.4334   14.7035  -11.3149 N   0  0  0  0  0  0  0  0  0  0  0  0
   35.7197   15.1532  -10.1382 C   0  0  0  0  0  0  0  0  0  0  0  0
   36.1273   14.8147   -8.8767 C   0  0  0  0  0  0  0  0  0  0  0  0
   35.4231   15.1137   -7.7202 C   0  0  0  0  0  0  0  0  0  0  0  0
   34.2414   15.7903   -7.8328 C   0  0  0  0  0  0  0  0  0  0  0  0
   33.8037   16.1500   -9.0896 C   0  0  0  0  0  0  0  0  0  0  0  0
   34.5293   15.8415  -10.2396 C   0  0  0  0  0  0  0  0  0  0  0  0
   33.3988   16.0910   -6.6354 C   0  0  0  0  0  0  0  0  0  0  0  0
   32.5250   14.9993   -6.4591 F   0  0  0  0  0  0  0  0  0  0  0  0
   32.6149   17.2192   -6.8224 F   0  0  0  0  0  0  0  0  0  0  0  0
   34.2072   16.1897   -5.5409 F   0  0  0  0  0  0  0  0  0  0  0  0
   38.6690   13.8327  -14.7260 C   0  0  0  0  0  0  0  0  0  0  0  0
   39.8995   14.2630  -15.1359 C   0  0  0  0  0  0  0  0  0  0  0  0
   40.5563   13.6463  -16.1552 C   0  0  0  0  0  0  0  0  0  0  0  0
   39.9817   12.5653  -16.7984 C   0  0  0  0  0  0  0  0  0  0  0  0
   38.7379   12.1117  -16.4019 C   0  0  0  0  0  0  0  0  0  0  0  0
   38.0878   12.7418  -15.3720 C   0  0  0  0  0  0  0  0  0  0  0  0
   40.6620   11.8876  -17.8855 C   0  0  0  0  0  0  0  0  0  0  0  0
   41.2049   11.3712  -18.7577 N   0  0  0  0  0  0  0  0  0  0  0  0
  1  2  1  0  0  0
  2  3  1  0  0  0
  3  4  1  0  0  0
  4  5  1  0  0  0
  5  6  1  0  0  0
  6  7  1  0  0  0
  7  8  1  0  0  0
  8  9  2  0  0  0
  9 10  1  0  0  0
 10 11  2  0  0  0
 11 12  1  0  0  0
 12 13  2  0  0  0
 11 14  1  0  0  0
 14 15  1  0  0  0
 14 16  1  0  0  0
 14 17  1  0  0  0
  4 18  1  0  0  0
 18 19  2  0  0  0
 19 20  1  0  0  0
 20 21  2  0  0  0
 21 22  1  0  0  0
 22 23  2  0  0  0
 21 24  1  0  0  0
 24 25  3  0  0  0
  7  2  1  0  0  0
 13  8  1  0  0  0
 23 18  1  0  0  0
M  END
> <minimizedAffinity>
-6.90863

> <CNNscore>
0.2160210460

> <CNNaffinity>
5.4608736038

> <CNN_VS>
1.1796636581

> <CNNaffinity_variance>
0.5580629706

$$$$
[H]c1c([H])c(N2C([H])([H])C([H])([H])N(c3c([H])c([H])c(C(F)(F)F)c([H])c3[H])[C@]([H])(C([H])([H])[H])C2([H])[H])c([H])c([H])c1C#N


 25 27  0  0  0  0  0  0  0  0999 V2000
   38.8220   15.4946  -10.9048 C   0  0  0  0  0  0  0  0  0  0  0  0
   37.5229   14.7048  -10.8802 C   0  0  0  0  0  0  0  0  0  0  0  0
   37.5095   13.6091  -11.8886 C   0  0  0  0  0  0  0  0  0  0  0  0
   37.1127   13.9485  -13.2164 N   0  0  0  0  0  0  0  0  0  0  0  0
   35.9645   14.8292  -13.3704 C   0  0  0  0  0  0  0  0  0  0  0  0
   35.9973   15.9712  -12.4041 C   0  0  0  0  0  0  0  0  0  0  0  0
   36.4504   15.6310  -11.0650 N   0  0  0  0  0  0  0  0  0  0  0  0
   35.8277   16.3215   -9.9551 C   0  0  0  0  0  0  0  0  0  0  0  0
   36.4792   17.3064   -9.2641 C   0  0  0  0  0  0  0  0  0  0  0  0
   35.9845   17.9204   -8.1235 C   0  0  0  0  0  0  0  0  0  0  0  0
   34.7670   17.5249   -7.6459 C   0  0  0  0  0  0  0  0  0  0  0  0
   34.0821   16.5371   -8.3210 C   0  0  0  0  0  0  0  0  0  0  0  0
   34.5970   15.9348   -9.4682 C   0  0  0  0  0  0  0  0  0  0  0  0
   34.2006   18.0978   -6.3868 C   0  0  0  0  0  0  0  0  0  0  0  0
   32.7972   18.0246   -6.4931 F   0  0  0  0  0  0  0  0  0  0  0  0
   34.5321   19.4349   -6.2299 F   0  0  0  0  0  0  0  0  0  0  0  0
   34.6035   17.3305   -5.3330 F   0  0  0  0  0  0  0  0  0  0  0  0
   37.8325   13.4484  -14.3388 C   0  0  0  0  0  0  0  0  0  0  0  0
   37.2962   12.5542  -15.2219 C   0  0  0  0  0  0  0  0  0  0  0  0
   38.0174   12.0901  -16.2778 C   0  0  0  0  0  0  0  0  0  0  0  0
   39.3171   12.5200  -16.4738 C   0  0  0  0  0  0  0  0  0  0  0  0
   39.8816   13.4241  -15.5941 C   0  0  0  0  0  0  0  0  0  0  0  0
   39.1426   13.8848  -14.5349 C   0  0  0  0  0  0  0  0  0  0  0  0
   40.1067   12.0438  -17.5935 C   0  0  0  0  0  0  0  0  0  0  0  0
   40.7477   11.6562  -18.4659 N   0  0  0  0  0  0  0  0  0  0  0  0
  1  2  1  0  0  0
  2  3  1  0  0  0
  3  4  1  0  0  0
  4  5  1  0  0  0
  5  6  1  0  0  0
  6  7  1  0  0  0
  7  8  1  0  0  0
  8  9  2  0  0  0
  9 10  1  0  0  0
 10 11  2  0  0  0
 11 12  1  0  0  0
 12 13  2  0  0  0
 11 14  1  0  0  0
 14 15  1  0  0  0
 14 16  1  0  0  0
 14 17  1  0  0  0
  4 18  1  0  0  0
 18 19  2  0  0  0
 19 20  1  0  0  0
 20 21  2  0  0  0
 21 22  1  0  0  0
 22 23  2  0  0  0
 21 24  1  0  0  0
 24 25  3  0  0  0
  7  2  1  0  0  0
 13  8  1  0  0  0
 23 18  1  0  0  0
M  END
> <minimizedAffinity>
-6.38634

> <CNNscore>
0.2043730766

> <CNNaffinity>
5.4559755325

> <CNN_VS>
1.1150544882

> <CNNaffinity_variance>
1.0990873575

$$$$
[H]c1c([H])c(N2C([H])([H])C([H])([H])N(c3c([H])c([H])c(C(F)(F)F)c([H])c3[H])[C@]([H])(C([H])([H])[H])C2([H])[H])c([H])c([H])c1C#N


 25 27  0  0  0  0  0  0  0  0999 V2000
   40.6488   14.9662  -13.9870 C   0  0  0  0  0  0  0  0  0  0  0  0
   41.3618   13.6234  -14.0040 C   0  0  0  0  0  0  0  0  0  0  0  0
   42.6766   13.6738  -13.3066 C   0  0  0  0  0  0  0  0  0  0  0  0
   43.8006   14.1202  -14.0635 N   0  0  0  0  0  0  0  0  0  0  0  0
   43.9369   13.6198  -15.4232 C   0  0  0  0  0  0  0  0  0  0  0  0
   42.6331   13.6226  -16.1574 C   0  0  0  0  0  0  0  0  0  0  0  0
   41.4819   13.2150  -15.3682 N   0  0  0  0  0  0  0  0  0  0  0  0
   40.4472   12.4575  -16.0406 C   0  0  0  0  0  0  0  0  0  0  0  0
   40.5987   12.0183  -17.3275 C   0  0  0  0  0  0  0  0  0  0  0  0
   39.6033   11.3935  -18.0633 C   0  0  0  0  0  0  0  0  0  0  0  0
   38.3846   11.1977  -17.4773 C   0  0  0  0  0  0  0  0  0  0  0  0
   38.1996   11.6250  -16.1797 C   0  0  0  0  0  0  0  0  0  0  0  0
   39.2157   12.2488  -15.4568 C   0  0  0  0  0  0  0  0  0  0  0  0
   37.2467   10.5883  -18.2310 C   0  0  0  0  0  0  0  0  0  0  0  0
   37.5885   10.6247  -19.5978 F   0  0  0  0  0  0  0  0  0  0  0  0
   36.0757   11.3153  -18.0803 F   0  0  0  0  0  0  0  0  0  0  0  0
   37.1091    9.2868  -17.8455 F   0  0  0  0  0  0  0  0  0  0  0  0
   44.7374   15.0333  -13.5010 C   0  0  0  0  0  0  0  0  0  0  0  0
   45.8524   15.4538  -14.1698 C   0  0  0  0  0  0  0  0  0  0  0  0
   46.7313   16.3196  -13.5967 C   0  0  0  0  0  0  0  0  0  0  0  0
   46.5074   16.7903  -12.3158 C   0  0  0  0  0  0  0  0  0  0  0  0
   45.3867   16.3796  -11.6191 C   0  0  0  0  0  0  0  0  0  0  0  0
   44.5084   15.5076  -12.2096 C   0  0  0  0  0  0  0  0  0  0  0  0
   47.4265   17.7169  -11.6829 C   0  0  0  0  0  0  0  0  0  0  0  0
   48.1383   18.4682  -11.1819 N   0  0  0  0  0  0  0  0  0  0  0  0
  1  2  1  0  0  0
  2  3  1  0  0  0
  3  4  1  0  0  0
  4  5  1  0  0  0
  5  6  1  0  0  0
  6  7  1  0  0  0
  7  8  1  0  0  0
  8  9  2  0  0  0
  9 10  1  0  0  0
 10 11  2  0  0  0
 11 12  1  0  0  0
 12 13  2  0  0  0
 11 14  1  0  0  0
 14 15  1  0  0  0
 14 16  1  0  0  0
 14 17  1  0  0  0
  4 18  1  0  0  0
 18 19  2  0  0  0
 19 20  1  0  0  0
 20 21  2  0  0  0
 21 22  1  0  0  0
 22 23  2  0  0  0
 21 24  1  0  0  0
 24 25  3  0  0  0
  7  2  1  0  0  0
 13  8  1  0  0  0
 23 18  1  0  0  0
M  END
> <minimizedAffinity>
-6.98808

> <CNNscore>
0.2009988576

> <CNNaffinity>
5.3876848221

> <CNN_VS>
1.0829185247

> <CNNaffinity_variance>
0.1066214219

$$$$
[H]c1c([H])c(C(=O)N2C([H])([H])C([H])([H])N(c3c([H])c([H])c(C(F)(F)F)c([H])c3[H])[C@]([H])(C([H])([H])[H])C2([H])[H])c([H])c([H])c1C#N


 27 29  0  0  0  0  0  0  0  0999 V2000
   43.8307   13.4809   -7.3555 C   0  0  0  0  0  0  0  0  0  0  0  0
   43.2944   14.6164   -6.4956 C   0  0  0  0  0  0  0  0  0  0  0  0
   42.4127   14.0705   -5.4636 C   0  0  0  0  0  0  0  0  0  0  0  0
   41.0154   14.5294   -5.5339 N   0  0  0  0  0  0  0  0  0  0  0  0
   40.7504   15.8927   -5.8309 C   0  0  0  0  0  0  0  0  0  0  0  0
   41.8218   16.5631   -6.6300 C   0  0  0  0  0  0  0  0  0  0  0  0
   42.7444   15.6726   -7.2700 N   0  0  0  0  0  0  0  0  0  0  0  0
   39.9980   13.5688   -5.3660 C   0  0  0  0  0  0  0  0  0  0  0  0
   40.4501   12.3647   -5.2662 O   0  0  0  0  0  0  0  0  0  0  0  0
   43.0874   15.9658   -8.6403 C   0  0  0  0  0  0  0  0  0  0  0  0
   42.2039   15.6686   -9.6553 C   0  0  0  0  0  0  0  0  0  0  0  0
   42.5059   15.9814  -10.9577 C   0  0  0  0  0  0  0  0  0  0  0  0
   43.6839   16.5976  -11.3206 C   0  0  0  0  0  0  0  0  0  0  0  0
   44.5665   16.8917  -10.2848 C   0  0  0  0  0  0  0  0  0  0  0  0
   44.2771   16.5856   -8.9688 C   0  0  0  0  0  0  0  0  0  0  0  0
   43.9918   16.9425  -12.7524 C   0  0  0  0  0  0  0  0  0  0  0  0
   45.1536   17.6583  -12.7507 F   0  0  0  0  0  0  0  0  0  0  0  0
   42.9738   17.8057  -13.2113 F   0  0  0  0  0  0  0  0  0  0  0  0
   43.9999   15.8489  -13.5566 F   0  0  0  0  0  0  0  0  0  0  0  0
   38.5927   13.7519   -5.2847 C   0  0  0  0  0  0  0  0  0  0  0  0
   37.7963   13.3279   -6.3931 C   0  0  0  0  0  0  0  0  0  0  0  0
   36.4422   13.3963   -6.3607 C   0  0  0  0  0  0  0  0  0  0  0  0
   35.7722   13.8735   -5.2644 C   0  0  0  0  0  0  0  0  0  0  0  0
   36.4796   14.2881   -4.1836 C   0  0  0  0  0  0  0  0  0  0  0  0
   37.8821   14.2158   -4.2221 C   0  0  0  0  0  0  0  0  0  0  0  0
   34.3163   13.9374   -5.2337 C   0  0  0  0  0  0  0  0  0  0  0  0
   33.1770   13.9840   -5.2084 N   0  0  0  0  0  0  0  0  0  0  0  0
  1  2  1  0  0  0
  2  3  1  0  0  0
  3  4  1  0  0  0
  4  5  1  0  0  0
  5  6  1  0  0  0
  6  7  1  0  0  0
  7 10  1  0  0  0
 10 11  2  0  0  0
 11 12  1  0  0  0
 12 13  2  0  0  0
 13 14  1  0  0  0
 14 15  2  0  0  0
 13 16  1  0  0  0
 16 17  1  0  0  0
 16 18  1  0  0  0
 16 19  1  0  0  0
  4  8  1  0  0  0
  8  9  2  0  0  0
  8 20  1  0  0  0
 20 21  2  0  0  0
 21 22  1  0  0  0
 22 23  2  0  0  0
 23 24  1  0  0  0
 24 25  2  0  0  0
 23 26  1  0  0  0
 26 27  3  0  0  0
  7  2  1  0  0  0
 15 10  1  0  0  0
 25 20  1  0  0  0
M  END
> <minimizedAffinity>
-5.80754

> <CNNscore>
0.5171010494

> <CNNaffinity>
4.7221078873

> <CNN_VS>
2.4418070316

> <CNNaffinity_variance>
0.1881358922

$$$$
[H]c1c([H])c(C(=O)N2C([H])([H])C([H])([H])N(c3c([H])c([H])c(C(F)(F)F)c([H])c3[H])[C@]([H])(C([H])([H])[H])C2([H])[H])c([H])c([H])c1C#N


 27 29  0  0  0  0  0  0  0  0999 V2000
   39.1786   14.8029   -6.0398 C   0  0  0  0  0  0  0  0  0  0  0  0
   39.8573   14.7672   -7.4015 C   0  0  0  0  0  0  0  0  0  0  0  0
   41.2079   14.2237   -7.2579 C   0  0  0  0  0  0  0  0  0  0  0  0
   42.2923   15.1475   -7.6302 N   0  0  0  0  0  0  0  0  0  0  0  0
   42.1387   15.9644   -8.7817 C   0  0  0  0  0  0  0  0  0  0  0  0
   40.7164   16.2664   -9.1309 C   0  0  0  0  0  0  0  0  0  0  0  0
   39.7704   16.0090   -8.0857 N   0  0  0  0  0  0  0  0  0  0  0  0
   43.4132   15.2237   -6.7793 C   0  0  0  0  0  0  0  0  0  0  0  0
   43.2833   14.5189   -5.7066 O   0  0  0  0  0  0  0  0  0  0  0  0
   38.7618   17.0154   -7.8588 C   0  0  0  0  0  0  0  0  0  0  0  0
   38.8139   17.8080   -6.7327 C   0  0  0  0  0  0  0  0  0  0  0  0
   37.8810   18.7949   -6.5298 C   0  0  0  0  0  0  0  0  0  0  0  0
   36.8594   19.0469   -7.4197 C   0  0  0  0  0  0  0  0  0  0  0  0
   36.8195   18.2385   -8.5524 C   0  0  0  0  0  0  0  0  0  0  0  0
   37.7516   17.2425   -8.7729 C   0  0  0  0  0  0  0  0  0  0  0  0
   35.8531   20.1406   -7.1850 C   0  0  0  0  0  0  0  0  0  0  0  0
   36.1094   21.1227   -8.0970 F   0  0  0  0  0  0  0  0  0  0  0  0
   36.1055   20.6852   -5.9076 F   0  0  0  0  0  0  0  0  0  0  0  0
   34.5768   19.6782   -7.1922 F   0  0  0  0  0  0  0  0  0  0  0  0
   44.6258   15.9413   -6.9512 C   0  0  0  0  0  0  0  0  0  0  0  0
   45.6064   15.3978   -7.8374 C   0  0  0  0  0  0  0  0  0  0  0  0
   46.7563   16.0611   -8.1154 C   0  0  0  0  0  0  0  0  0  0  0  0
   47.0330   17.2839   -7.5617 C   0  0  0  0  0  0  0  0  0  0  0  0
   46.1354   17.8466   -6.7144 C   0  0  0  0  0  0  0  0  0  0  0  0
   44.9460   17.1555   -6.4291 C   0  0  0  0  0  0  0  0  0  0  0  0
   48.2677   17.9945   -7.8707 C   0  0  0  0  0  0  0  0  0  0  0  0
   49.2326   18.5533   -8.1104 N   0  0  0  0  0  0  0  0  0  0  0  0
  1  2  1  0  0  0
  2  3  1  0  0  0
  3  4  1  0  0  0
  4  5  1  0  0  0
  5  6  1  0  0  0
  6  7  1  0  0  0
  7 10  1  0  0  0
 10 11  2  0  0  0
 11 12  1  0  0  0
 12 13  2  0  0  0
 13 14  1  0  0  0
 14 15  2  0  0  0
 13 16  1  0  0  0
 16 17  1  0  0  0
 16 18  1  0  0  0
 16 19  1  0  0  0
  4  8  1  0  0  0
  8  9  2  0  0  0
  8 20  1  0  0  0
 20 21  2  0  0  0
 21 22  1  0  0  0
 22 23  2  0  0  0
 23 24  1  0  0  0
 24 25  2  0  0  0
 23 26  1  0  0  0
 26 27  3  0  0  0
  7  2  1  0  0  0
 15 10  1  0  0  0
 25 20  1  0  0  0
M  END
> <minimizedAffinity>
-3.20608

> <CNNscore>
0.5042314529

> <CNNaffinity>
4.9308013916

> <CNN_VS>
2.4862651825

> <CNNaffinity_variance>
1.0644075871

$$$$
[H]c1c([H])c(C(=O)N2C([H])([H])C([H])([H])N(c3c([H])c([H])c(C(F)(F)F)c([H])c3[H])[C@]([H])(C([H])([H])[H])C2([H])[H])c([H])c([H])c1C#N


 27 29  0  0  0  0  0  0  0  0999 V2000
   38.7157   13.1189   -6.2131 C   0  0  0  0  0  0  0  0  0  0  0  0
   39.7918   13.1787   -7.2877 C   0  0  0  0  0  0  0  0  0  0  0  0
   40.8535   12.2249   -6.9666 C   0  0  0  0  0  0  0  0  0  0  0  0
   42.1778   12.8247   -6.7330 N   0  0  0  0  0  0  0  0  0  0  0  0
   42.6139   13.8840   -7.5724 C   0  0  0  0  0  0  0  0  0  0  0  0
   41.5027   14.6827   -8.1749 C   0  0  0  0  0  0  0  0  0  0  0  0
   40.2247   14.5058   -7.5511 N   0  0  0  0  0  0  0  0  0  0  0  0
   42.9277   12.3571   -5.6352 C   0  0  0  0  0  0  0  0  0  0  0  0
   42.2849   11.5070   -4.9083 O   0  0  0  0  0  0  0  0  0  0  0  0
   39.4527   15.6983   -7.2998 C   0  0  0  0  0  0  0  0  0  0  0  0
   39.8376   16.5784   -6.3117 C   0  0  0  0  0  0  0  0  0  0  0  0
   39.1314   17.7355   -6.0935 C   0  0  0  0  0  0  0  0  0  0  0  0
   38.0202   18.0793   -6.8326 C   0  0  0  0  0  0  0  0  0  0  0  0
   37.6434   17.1808   -7.8271 C   0  0  0  0  0  0  0  0  0  0  0  0
   38.3441   16.0131   -8.0611 C   0  0  0  0  0  0  0  0  0  0  0  0
   37.2661   19.3576   -6.5856 C   0  0  0  0  0  0  0  0  0  0  0  0
   37.6572   20.2448   -7.5457 F   0  0  0  0  0  0  0  0  0  0  0  0
   37.6965   19.8735   -5.3445 F   0  0  0  0  0  0  0  0  0  0  0  0
   35.9254   19.1594   -6.5082 F   0  0  0  0  0  0  0  0  0  0  0  0
   44.2544   12.6818   -5.2484 C   0  0  0  0  0  0  0  0  0  0  0  0
   44.4965   13.9846   -4.7131 C   0  0  0  0  0  0  0  0  0  0  0  0
   45.7189   14.3443   -4.2485 C   0  0  0  0  0  0  0  0  0  0  0  0
   46.7798   13.4768   -4.2685 C   0  0  0  0  0  0  0  0  0  0  0  0
   46.6047   12.2264   -4.7649 C   0  0  0  0  0  0  0  0  0  0  0  0
   45.3368   11.8586   -5.2454 C   0  0  0  0  0  0  0  0  0  0  0  0
   48.0890   13.8678   -3.7608 C   0  0  0  0  0  0  0  0  0  0  0  0
   49.1149   14.1728   -3.3666 N   0  0  0  0  0  0  0  0  0  0  0  0
  1  2  1  0  0  0
  2  3  1  0  0  0
  3  4  1  0  0  0
  4  5  1  0  0  0
  5  6  1  0  0  0
  6  7  1  0  0  0
  7 10  1  0  0  0
 10 11  2  0  0  0
 11 12  1  0  0  0
 12 13  2  0  0  0
 13 14  1  0  0  0
 14 15  2  0  0  0
 13 16  1  0  0  0
 16 17  1  0  0  0
 16 18  1  0  0  0
 16 19  1  0  0  0
  4  8  1  0  0  0
  8  9  2  0  0  0
  8 20  1  0  0  0
 20 21  2  0  0  0
 21 22  1  0  0  0
 22 23  2  0  0  0
 23 24  1  0  0  0
 24 25  2  0  0  0
 23 26  1  0  0  0
 26 27  3  0  0  0
  7  2  1  0  0  0
 15 10  1  0  0  0
 25 20  1  0  0  0
M  END
> <minimizedAffinity>
-3.63315

> <CNNscore>
0.4869806468

> <CNNaffinity>
4.5523433685

> <CNN_VS>
2.2169032097

> <CNNaffinity_variance>
0.3652650714

$$$$
[H]c1c([H])c(C(=O)N2C([H])([H])C([H])([H])N(c3c([H])c([H])c(C(F)(F)F)c([H])c3[H])[C@]([H])(C([H])([H])[H])C2([H])[H])c([H])c([H])c1C#N


 27 29  0  0  0  0  0  0  0  0999 V2000
   41.7730   16.5994   -6.2469 C   0  0  0  0  0  0  0  0  0  0  0  0
   42.5022   15.3976   -5.6636 C   0  0  0  0  0  0  0  0  0  0  0  0
   43.8305   15.2943   -6.2677 C   0  0  0  0  0  0  0  0  0  0  0  0
   44.0699   14.0604   -7.0347 N   0  0  0  0  0  0  0  0  0  0  0  0
   43.5918   12.8251   -6.5225 C   0  0  0  0  0  0  0  0  0  0  0  0
   42.4024   12.9554   -5.6256 C   0  0  0  0  0  0  0  0  0  0  0  0
   41.7198   14.2128   -5.7066 N   0  0  0  0  0  0  0  0  0  0  0  0
   44.7111   14.1762   -8.2844 C   0  0  0  0  0  0  0  0  0  0  0  0
   44.9191   15.4002   -8.6351 O   0  0  0  0  0  0  0  0  0  0  0  0
   40.2789   14.1685   -5.7612 C   0  0  0  0  0  0  0  0  0  0  0  0
   39.6404   13.7676   -6.9148 C   0  0  0  0  0  0  0  0  0  0  0  0
   38.2707   13.6840   -6.9619 C   0  0  0  0  0  0  0  0  0  0  0  0
   37.4696   13.9890   -5.8829 C   0  0  0  0  0  0  0  0  0  0  0  0
   38.1283   14.3924   -4.7246 C   0  0  0  0  0  0  0  0  0  0  0  0
   39.5058   14.4799   -4.6598 C   0  0  0  0  0  0  0  0  0  0  0  0
   35.9704   13.8804   -5.9507 C   0  0  0  0  0  0  0  0  0  0  0  0
   35.6355   13.7826   -7.2699 F   0  0  0  0  0  0  0  0  0  0  0  0
   35.4330   15.0960   -5.4757 F   0  0  0  0  0  0  0  0  0  0  0  0
   35.4892   12.8817   -5.1672 F   0  0  0  0  0  0  0  0  0  0  0  0
   45.1505   13.1558   -9.1679 C   0  0  0  0  0  0  0  0  0  0  0  0
   46.3914   12.5081   -8.8795 C   0  0  0  0  0  0  0  0  0  0  0  0
   46.8415   11.4717   -9.6296 C   0  0  0  0  0  0  0  0  0  0  0  0
   46.1286   10.9948  -10.6986 C   0  0  0  0  0  0  0  0  0  0  0  0
   44.9428   11.5724  -11.0158 C   0  0  0  0  0  0  0  0  0  0  0  0
   44.4810   12.6460  -10.2361 C   0  0  0  0  0  0  0  0  0  0  0  0
   46.6150    9.8757  -11.4962 C   0  0  0  0  0  0  0  0  0  0  0  0
   46.9959    8.9982  -12.1172 N   0  0  0  0  0  0  0  0  0  0  0  0
  1  2  1  0  0  0
  2  3  1  0  0  0
  3  4  1  0  0  0
  4  5  1  0  0  0
  5  6  1  0  0  0
  6  7  1  0  0  0
  7 10  1  0  0  0
 10 11  2  0  0  0
 11 12  1  0  0  0
 12 13  2  0  0  0
 13 14  1  0  0  0
 14 15  2  0  0  0
 13 16  1  0  0  0
 16 17  1  0  0  0
 16 18  1  0  0  0
 16 19  1  0  0  0
  4  8  1  0  0  0
  8  9  2  0  0  0
  8 20  1  0  0  0
 20 21  2  0  0  0
 21 22  1  0  0  0
 22 23  2  0  0  0
 23 24  1  0  0  0
 24 25  2  0  0  0
 23 26  1  0  0  0
 26 27  3  0  0  0
  7  2  1  0  0  0
 15 10  1  0  0  0
 25 20  1  0  0  0
M  END
> <minimizedAffinity>
-4.94540

> <CNNscore>
0.4869434536

> <CNNaffinity>
4.5653433800

> <CNN_VS>
2.2230641842

> <CNNaffinity_variance>
0.2431910038

$$$$
[H]c1c([H])c(C(=O)N2C([H])([H])C([H])([H])N(c3c([H])c([H])c(C(F)(F)F)c([H])c3[H])[C@]([H])(C([H])([H])[H])C2([H])[H])c([H])c([H])c1C#N


 27 29  0  0  0  0  0  0  0  0999 V2000
   41.0605   16.0380   -5.1158 C   0  0  0  0  0  0  0  0  0  0  0  0
   40.9839   14.5447   -5.3997 C   0  0  0  0  0  0  0  0  0  0  0  0
   42.3337   14.0178   -5.6004 C   0  0  0  0  0  0  0  0  0  0  0  0
   42.5863   13.4481   -6.9345 N   0  0  0  0  0  0  0  0  0  0  0  0
   41.5805   12.6558   -7.5487 C   0  0  0  0  0  0  0  0  0  0  0  0
   40.1909   12.9769   -7.0995 C   0  0  0  0  0  0  0  0  0  0  0  0
   40.0499   14.2325   -6.4234 N   0  0  0  0  0  0  0  0  0  0  0  0
   43.8007   13.7751   -7.5705 C   0  0  0  0  0  0  0  0  0  0  0  0
   44.5020   14.6343   -6.9116 O   0  0  0  0  0  0  0  0  0  0  0  0
   38.9234   15.0513   -6.8001 C   0  0  0  0  0  0  0  0  0  0  0  0
   37.7543   15.0000   -6.0722 C   0  0  0  0  0  0  0  0  0  0  0  0
   36.6919   15.8057   -6.3998 C   0  0  0  0  0  0  0  0  0  0  0  0
   36.7292   16.6943   -7.4525 C   0  0  0  0  0  0  0  0  0  0  0  0
   37.9164   16.7351   -8.1786 C   0  0  0  0  0  0  0  0  0  0  0  0
   38.9956   15.9327   -7.8610 C   0  0  0  0  0  0  0  0  0  0  0  0
   35.5581   17.5770   -7.7889 C   0  0  0  0  0  0  0  0  0  0  0  0
   36.0646   18.7837   -8.1755 F   0  0  0  0  0  0  0  0  0  0  0  0
   34.8322   17.7944   -6.5982 F   0  0  0  0  0  0  0  0  0  0  0  0
   34.7178   17.0004   -8.6858 F   0  0  0  0  0  0  0  0  0  0  0  0
   44.3353   13.2892   -8.7925 C   0  0  0  0  0  0  0  0  0  0  0  0
   44.0247   14.0033   -9.9908 C   0  0  0  0  0  0  0  0  0  0  0  0
   44.5595   13.6495  -11.1859 C   0  0  0  0  0  0  0  0  0  0  0  0
   45.4238   12.5921  -11.3023 C   0  0  0  0  0  0  0  0  0  0  0  0
   45.7539   11.8806  -10.1955 C   0  0  0  0  0  0  0  0  0  0  0  0
   45.1969   12.2506   -8.9599 C   0  0  0  0  0  0  0  0  0  0  0  0
   46.0005   12.2220  -12.5889 C   0  0  0  0  0  0  0  0  0  0  0  0
   46.4529   11.9357  -13.5960 N   0  0  0  0  0  0  0  0  0  0  0  0
  1  2  1  0  0  0
  2  3  1  0  0  0
  3  4  1  0  0  0
  4  5  1  0  0  0
  5  6  1  0  0  0
  6  7  1  0  0  0
  7 10  1  0  0  0
 10 11  2  0  0  0
 11 12  1  0  0  0
 12 13  2  0  0  0
 13 14  1  0  0  0
 14 15  2  0  0  0
 13 16  1  0  0  0
 16 17  1  0  0  0
 16 18  1  0  0  0
 16 19  1  0  0  0
  4  8  1  0  0  0
  8  9  2  0  0  0
  8 20  1  0  0  0
 20 21  2  0  0  0
 21 22  1  0  0  0
 22 23  2  0  0  0
 23 24  1  0  0  0
 24 25  2  0  0  0
 23 26  1  0  0  0
 26 27  3  0  0  0
  7  2  1  0  0  0
 15 10  1  0  0  0
 25 20  1  0  0  0
M  END
> <minimizedAffinity>
-4.44569

> <CNNscore>
0.4207926989

> <CNNaffinity>
4.3262271881

> <CNN_VS>
1.8204448223

> <CNNaffinity_variance>
0.4333340526

$$$$
[H]c1c([H])c(C(=O)N2C([H])([H])C([H])([H])N(c3c([H])c([H])c(C(F)(F)F)c([H])c3[H])[C@]([H])(C([H])([H])[H])C2([H])[H])c([H])c([H])c1C#N


 27 29  0  0  0  0  0  0  0  0999 V2000
   41.9846   16.5924   -6.6055 C   0  0  0  0  0  0  0  0  0  0  0  0
   42.6303   15.2146   -6.5726 C   0  0  0  0  0  0  0  0  0  0  0  0
   43.8997   15.2548   -7.2985 C   0  0  0  0  0  0  0  0  0  0  0  0
   43.9673   14.3800   -8.4809 N   0  0  0  0  0  0  0  0  0  0  0  0
   43.4060   13.0774   -8.4092 C   0  0  0  0  0  0  0  0  0  0  0  0
   42.2964   12.9444   -7.4157 C   0  0  0  0  0  0  0  0  0  0  0  0
   41.7354   14.1845   -6.9675 N   0  0  0  0  0  0  0  0  0  0  0  0
   44.5332   14.9079   -9.6587 C   0  0  0  0  0  0  0  0  0  0  0  0
   44.8357   16.1580   -9.5588 O   0  0  0  0  0  0  0  0  0  0  0  0
   40.2965   14.2591   -6.8947 C   0  0  0  0  0  0  0  0  0  0  0  0
   39.5590   14.5485   -8.0223 C   0  0  0  0  0  0  0  0  0  0  0  0
   38.1873   14.5814   -7.9701 C   0  0  0  0  0  0  0  0  0  0  0  0
   37.4809   14.3325   -6.8132 C   0  0  0  0  0  0  0  0  0  0  0  0
   38.2392   14.0416   -5.6824 C   0  0  0  0  0  0  0  0  0  0  0  0
   39.6199   14.0024   -5.7183 C   0  0  0  0  0  0  0  0  0  0  0  0
   35.9770   14.3622   -6.7787 C   0  0  0  0  0  0  0  0  0  0  0  0
   35.6143   15.5001   -6.1187 F   0  0  0  0  0  0  0  0  0  0  0  0
   35.5470   13.2720   -5.9923 F   0  0  0  0  0  0  0  0  0  0  0  0
   35.4294   14.2228   -8.0130 F   0  0  0  0  0  0  0  0  0  0  0  0
   44.8125   14.2607  -10.8909 C   0  0  0  0  0  0  0  0  0  0  0  0
   43.8186   14.3143  -11.9164 C   0  0  0  0  0  0  0  0  0  0  0  0
   44.0403   13.7890  -13.1470 C   0  0  0  0  0  0  0  0  0  0  0  0
   45.2274   13.1831  -13.4670 C   0  0  0  0  0  0  0  0  0  0  0  0
   46.2062   13.1061  -12.5309 C   0  0  0  0  0  0  0  0  0  0  0  0
   45.9715   13.6512  -11.2575 C   0  0  0  0  0  0  0  0  0  0  0  0
   45.4615   12.6270  -14.7940 C   0  0  0  0  0  0  0  0  0  0  0  0
   45.6435   12.1887  -15.8311 N   0  0  0  0  0  0  0  0  0  0  0  0
  1  2  1  0  0  0
  2  3  1  0  0  0
  3  4  1  0  0  0
  4  5  1  0  0  0
  5  6  1  0  0  0
  6  7  1  0  0  0
  7 10  1  0  0  0
 10 11  2  0  0  0
 11 12  1  0  0  0
 12 13  2  0  0  0
 13 14  1  0  0  0
 14 15  2  0  0  0
 13 16  1  0  0  0
 16 17  1  0  0  0
 16 18  1  0  0  0
 16 19  1  0  0  0
  4  8  1  0  0  0
  8  9  2  0  0  0
  8 20  1  0  0  0
 20 21  2  0  0  0
 21 22  1  0  0  0
 22 23  2  0  0  0
 23 24  1  0  0  0
 24 25  2  0  0  0
 23 26  1  0  0  0
 26 27  3  0  0  0
  7  2  1  0  0  0
 15 10  1  0  0  0
 25 20  1  0  0  0
M  END
> <minimizedAffinity>
-4.74739

> <CNNscore>
0.3837977946

> <CNNaffinity>
4.7564253807

> <CNN_VS>
1.8255056143

> <CNNaffinity_variance>
0.3462527096

$$$$
[H]c1c([H])c(C(=O)N2C([H])([H])C([H])([H])N(c3c([H])c([H])c(C(F)(F)F)c([H])c3[H])[C@]([H])(C([H])([H])[H])C2([H])[H])c([H])c([H])c1C#N


 27 29  0  0  0  0  0  0  0  0999 V2000
   43.7854   12.7063   -7.5211 C   0  0  0  0  0  0  0  0  0  0  0  0
   43.2337   14.0787   -7.1630 C   0  0  0  0  0  0  0  0  0  0  0  0
   42.3613   13.9626   -5.9944 C   0  0  0  0  0  0  0  0  0  0  0  0
   40.9574   14.3407   -6.2271 N   0  0  0  0  0  0  0  0  0  0  0  0
   40.6723   15.4798   -7.0259 C   0  0  0  0  0  0  0  0  0  0  0  0
   41.7329   15.8032   -8.0291 C   0  0  0  0  0  0  0  0  0  0  0  0
   42.6675   14.7466   -8.2816 N   0  0  0  0  0  0  0  0  0  0  0  0
   39.9542   13.5065   -5.6943 C   0  0  0  0  0  0  0  0  0  0  0  0
   40.4239   12.4404   -5.1401 O   0  0  0  0  0  0  0  0  0  0  0  0
   43.0046   14.4920   -9.6611 C   0  0  0  0  0  0  0  0  0  0  0  0
   43.6655   13.3346  -10.0114 C   0  0  0  0  0  0  0  0  0  0  0  0
   43.9539   13.0661  -11.3267 C   0  0  0  0  0  0  0  0  0  0  0  0
   43.6077   13.9182  -12.3530 C   0  0  0  0  0  0  0  0  0  0  0  0
   42.9406   15.0832  -11.9840 C   0  0  0  0  0  0  0  0  0  0  0  0
   42.6409   15.3676  -10.6654 C   0  0  0  0  0  0  0  0  0  0  0  0
   43.9227   13.6008  -13.7895 C   0  0  0  0  0  0  0  0  0  0  0  0
   45.0179   12.7868  -13.7887 F   0  0  0  0  0  0  0  0  0  0  0  0
   44.3024   14.8057  -14.4190 F   0  0  0  0  0  0  0  0  0  0  0  0
   42.8486   13.1068  -14.4566 F   0  0  0  0  0  0  0  0  0  0  0  0
   38.5465   13.6886   -5.6806 C   0  0  0  0  0  0  0  0  0  0  0  0
   37.9649   14.3315   -4.5445 C   0  0  0  0  0  0  0  0  0  0  0  0
   36.6392   14.6125   -4.4901 C   0  0  0  0  0  0  0  0  0  0  0  0
   35.7939   14.2952   -5.5213 C   0  0  0  0  0  0  0  0  0  0  0  0
   36.2941   13.6849   -6.6249 C   0  0  0  0  0  0  0  0  0  0  0  0
   37.6679   13.3955   -6.6763 C   0  0  0  0  0  0  0  0  0  0  0  0
   34.3713   14.6067   -5.4592 C   0  0  0  0  0  0  0  0  0  0  0  0
   33.2574   14.8474   -5.4123 N   0  0  0  0  0  0  0  0  0  0  0  0
  1  2  1  0  0  0
  2  3  1  0  0  0
  3  4  1  0  0  0
  4  5  1  0  0  0
  5  6  1  0  0  0
  6  7  1  0  0  0
  7 10  1  0  0  0
 10 11  2  0  0  0
 11 12  1  0  0  0
 12 13  2  0  0  0
 13 14  1  0  0  0
 14 15  2  0  0  0
 13 16  1  0  0  0
 16 17  1  0  0  0
 16 18  1  0  0  0
 16 19  1  0  0  0
  4  8  1  0  0  0
  8  9  2  0  0  0
  8 20  1  0  0  0
 20 21  2  0  0  0
 21 22  1  0  0  0
 22 23  2  0  0  0
 23 24  1  0  0  0
 24 25  2  0  0  0
 23 26  1  0  0  0
 26 27  3  0  0  0
  7  2  1  0  0  0
 15 10  1  0  0  0
 25 20  1  0  0  0
M  END
> <minimizedAffinity>
-5.57040

> <CNNscore>
0.2918805480

> <CNNaffinity>
4.7335166931

> <CNN_VS>
1.3816214800

> <CNNaffinity_variance>
0.2613133788

$$$$
[H]c1c([H])c(C(=O)N2C([H])([H])C([H])([H])N(c3c([H])c([H])c(C(F)(F)F)c([H])c3[H])[C@]([H])(C([H])([H])[H])C2([H])[H])c([H])c([H])c1C#N


 27 29  0  0  0  0  0  0  0  0999 V2000
   42.5608   16.4220   -5.9261 C   0  0  0  0  0  0  0  0  0  0  0  0
   42.1767   14.9591   -5.7566 C   0  0  0  0  0  0  0  0  0  0  0  0
   43.3888   14.1442   -5.6748 C   0  0  0  0  0  0  0  0  0  0  0  0
   43.5439   13.1516   -6.7512 N   0  0  0  0  0  0  0  0  0  0  0  0
   42.4069   12.4192   -7.1844 C   0  0  0  0  0  0  0  0  0  0  0  0
   41.1071   13.1273   -6.9718 C   0  0  0  0  0  0  0  0  0  0  0  0
   41.2200   14.5328   -6.7162 N   0  0  0  0  0  0  0  0  0  0  0  0
   44.8133   13.0228   -7.3498 C   0  0  0  0  0  0  0  0  0  0  0  0
   45.6660   13.8903   -6.9201 O   0  0  0  0  0  0  0  0  0  0  0  0
   40.3001   15.3971   -7.4149 C   0  0  0  0  0  0  0  0  0  0  0  0
   40.4777   15.6598   -8.7561 C   0  0  0  0  0  0  0  0  0  0  0  0
   39.5839   16.4485   -9.4374 C   0  0  0  0  0  0  0  0  0  0  0  0
   38.4800   17.0125   -8.8352 C   0  0  0  0  0  0  0  0  0  0  0  0
   38.3136   16.7385   -7.4804 C   0  0  0  0  0  0  0  0  0  0  0  0
   39.2025   15.9451   -6.7805 C   0  0  0  0  0  0  0  0  0  0  0  0
   37.5057   17.8651   -9.6017 C   0  0  0  0  0  0  0  0  0  0  0  0
   38.1240   19.0563   -9.8483 F   0  0  0  0  0  0  0  0  0  0  0  0
   36.4128   18.1340   -8.7501 F   0  0  0  0  0  0  0  0  0  0  0  0
   37.0252   17.2358  -10.7044 F   0  0  0  0  0  0  0  0  0  0  0  0
   45.2593   12.0881   -8.3206 C   0  0  0  0  0  0  0  0  0  0  0  0
   45.0989   12.4263   -9.6998 C   0  0  0  0  0  0  0  0  0  0  0  0
   45.5695   11.6232  -10.6862 C   0  0  0  0  0  0  0  0  0  0  0  0
   46.2221   10.4503  -10.4087 C   0  0  0  0  0  0  0  0  0  0  0  0
   46.4031   10.0819   -9.1157 C   0  0  0  0  0  0  0  0  0  0  0  0
   45.9133   10.9169   -8.0975 C   0  0  0  0  0  0  0  0  0  0  0  0
   46.7317    9.5955  -11.4739 C   0  0  0  0  0  0  0  0  0  0  0  0
   47.1330    8.9292  -12.3081 N   0  0  0  0  0  0  0  0  0  0  0  0
  1  2  1  0  0  0
  2  3  1  0  0  0
  3  4  1  0  0  0
  4  5  1  0  0  0
  5  6  1  0  0  0
  6  7  1  0  0  0
  7 10  1  0  0  0
 10 11  2  0  0  0
 11 12  1  0  0  0
 12 13  2  0  0  0
 13 14  1  0  0  0
 14 15  2  0  0  0
 13 16  1  0  0  0
 16 17  1  0  0  0
 16 18  1  0  0  0
 16 19  1  0  0  0
  4  8  1  0  0  0
  8  9  2  0  0  0
  8 20  1  0  0  0
 20 21  2  0  0  0
 21 22  1  0  0  0
 22 23  2  0  0  0
 23 24  1  0  0  0
 24 25  2  0  0  0
 23 26  1  0  0  0
 26 27  3  0  0  0
  7  2  1  0  0  0
 15 10  1  0  0  0
 25 20  1  0  0  0
M  END
> <minimizedAffinity>
-5.43258

> <CNNscore>
0.2650797665

> <CNNaffinity>
4.3331608772

> <CNN_VS>
1.1486332417

> <CNNaffinity_variance>
0.3656148314

$$$$
[H]c1c([H])c(C(=O)N2C([H])([H])C([H])([H])N(c3c([H])c([H])c(C(F)(F)F)c([H])c3[H])[C@]([H])(C([H])([H])[H])C2([H])[H])c([H])c([H])c1C#N


 27 29  0  0  0  0  0  0  0  0999 V2000
   36.0207   16.5110  -10.5898 C   0  0  0  0  0  0  0  0  0  0  0  0
   36.7707   17.3550   -9.5694 C   0  0  0  0  0  0  0  0  0  0  0  0
   38.1828   17.4303   -9.9441 C   0  0  0  0  0  0  0  0  0  0  0  0
   39.1171   16.8501   -8.9651 N   0  0  0  0  0  0  0  0  0  0  0  0
   38.8940   17.0743   -7.5806 C   0  0  0  0  0  0  0  0  0  0  0  0
   37.4630   17.3231   -7.2251 C   0  0  0  0  0  0  0  0  0  0  0  0
   36.5163   16.9467   -8.2328 N   0  0  0  0  0  0  0  0  0  0  0  0
   40.1604   16.0376   -9.4525 C   0  0  0  0  0  0  0  0  0  0  0  0
   40.0901   15.8321  -10.7241 O   0  0  0  0  0  0  0  0  0  0  0  0
   35.3431   16.2337   -7.7895 C   0  0  0  0  0  0  0  0  0  0  0  0
   34.1048   16.8362   -7.8401 C   0  0  0  0  0  0  0  0  0  0  0  0
   32.9784   16.1503   -7.4581 C   0  0  0  0  0  0  0  0  0  0  0  0
   33.0169   14.8473   -7.0110 C   0  0  0  0  0  0  0  0  0  0  0  0
   34.2745   14.2517   -6.9653 C   0  0  0  0  0  0  0  0  0  0  0  0
   35.4176   14.9271   -7.3480 C   0  0  0  0  0  0  0  0  0  0  0  0
   31.7698   14.1087   -6.6074 C   0  0  0  0  0  0  0  0  0  0  0  0
   30.7976   15.0448   -6.4064 F   0  0  0  0  0  0  0  0  0  0  0  0
   32.0210   13.4977   -5.3602 F   0  0  0  0  0  0  0  0  0  0  0  0
   31.4416   13.1295   -7.4885 F   0  0  0  0  0  0  0  0  0  0  0  0
   41.2442   15.4479   -8.7505 C   0  0  0  0  0  0  0  0  0  0  0  0
   42.4862   16.1542   -8.7195 C   0  0  0  0  0  0  0  0  0  0  0  0
   43.5447   15.6963   -8.0057 C   0  0  0  0  0  0  0  0  0  0  0  0
   43.4744   14.5362   -7.2793 C   0  0  0  0  0  0  0  0  0  0  0  0
   42.3181   13.8269   -7.2726 C   0  0  0  0  0  0  0  0  0  0  0  0
   41.2246   14.3050   -8.0139 C   0  0  0  0  0  0  0  0  0  0  0  0
   44.6138   14.0538   -6.5085 C   0  0  0  0  0  0  0  0  0  0  0  0
   45.5034   13.6733   -5.9047 N   0  0  0  0  0  0  0  0  0  0  0  0
  1  2  1  0  0  0
  2  3  1  0  0  0
  3  4  1  0  0  0
  4  5  1  0  0  0
  5  6  1  0  0  0
  6  7  1  0  0  0
  7 10  1  0  0  0
 10 11  2  0  0  0
 11 12  1  0  0  0
 12 13  2  0  0  0
 13 14  1  0  0  0
 14 15  2  0  0  0
 13 16  1  0  0  0
 16 17  1  0  0  0
 16 18  1  0  0  0
 16 19  1  0  0  0
  4  8  1  0  0  0
  8  9  2  0  0  0
  8 20  1  0  0  0
 20 21  2  0  0  0
 21 22  1  0  0  0
 22 23  2  0  0  0
 23 24  1  0  0  0
 24 25  2  0  0  0
 23 26  1  0  0  0
 26 27  3  0  0  0
  7  2  1  0  0  0
 15 10  1  0  0  0
 25 20  1  0  0  0
M  END
> <minimizedAffinity>
-5.08014

> <CNNscore>
0.2578102648

> <CNNaffinity>
4.6044602394

> <CNN_VS>
1.1870771646

> <CNNaffinity_variance>
0.4438514709

$$$$
[H]c1c([H])c(N2C([H])([H])C([H])([H])N(c3nc4c([H])c(S(=O)(=O)N5C([H])([H])C([H])([H])OC([H])([H])C5([H])[H])c([H])c([H])c4n3[H])C([H])([H])[C@@]2([H])C([H])([H])[H])c([H])c([H])c1F


 33 37  0  0  0  0  0  0  0  0999 V2000
   36.0713   14.5975  -11.5466 C   0  0  0  0  0  0  0  0  0  0  0  0
   36.9425   14.0639  -12.4528 N   0  0  0  0  0  0  0  0  0  0  0  0
   36.2692   13.3853  -13.3984 C   0  0  0  0  0  0  0  0  0  0  0  0
   36.6370   12.6650  -14.5271 C   0  0  0  0  0  0  0  0  0  0  0  0
   35.7184   12.0484  -15.3497 C   0  0  0  0  0  0  0  0  0  0  0  0
   34.3785   12.1517  -15.0382 C   0  0  0  0  0  0  0  0  0  0  0  0
   34.0189   12.8685  -13.9158 C   0  0  0  0  0  0  0  0  0  0  0  0
   34.9407   13.4851  -13.0938 C   0  0  0  0  0  0  0  0  0  0  0  0
   34.8576   14.2134  -11.9854 N   0  0  0  0  0  0  0  0  0  0  0  0
   33.9564   14.4661  -11.4992 H   0  0  0  0  0  0  0  0  0  0  0  0
   37.8419   18.7164   -9.6357 C   0  0  0  0  0  0  0  0  0  0  0  0
   37.8061   17.1970   -9.5442 C   0  0  0  0  0  0  0  0  0  0  0  0
   36.7868   16.7446  -10.5651 C   0  0  0  0  0  0  0  0  0  0  0  0
   36.4016   15.3768  -10.4079 N   0  0  0  0  0  0  0  0  0  0  0  0
   36.3563   14.8147   -9.0836 C   0  0  0  0  0  0  0  0  0  0  0  0
   36.2521   15.9336   -8.0338 C   0  0  0  0  0  0  0  0  0  0  0  0
   37.4196   16.7631   -8.2181 N   0  0  0  0  0  0  0  0  0  0  0  0
   38.1952   17.1407   -7.0899 C   0  0  0  0  0  0  0  0  0  0  0  0
   39.5031   16.7236   -6.9309 C   0  0  0  0  0  0  0  0  0  0  0  0
   40.2885   17.0828   -5.8501 C   0  0  0  0  0  0  0  0  0  0  0  0
   39.7712   17.8913   -4.8725 C   0  0  0  0  0  0  0  0  0  0  0  0
   40.4979   18.2735   -3.7915 F   0  0  0  0  0  0  0  0  0  0  0  0
   38.4617   18.3149   -5.0217 C   0  0  0  0  0  0  0  0  0  0  0  0
   37.6790   17.9591   -6.0957 C   0  0  0  0  0  0  0  0  0  0  0  0
   36.2619   11.1565  -16.7558 S   0  0  0  0  0  0  0  0  0  0  0  0
   35.8460   11.9038  -18.0059 O   0  0  0  0  0  0  0  0  0  0  0  0
   35.6125    9.8075  -16.8260 O   0  0  0  0  0  0  0  0  0  0  0  0
   37.9866   11.0005  -16.7795 N   0  0  0  0  0  0  0  0  0  0  0  0
   38.5814   12.3132  -16.6207 C   0  0  0  0  0  0  0  0  0  0  0  0
   40.0846   12.2235  -16.7271 C   0  0  0  0  0  0  0  0  0  0  0  0
   40.4800   11.5386  -17.8486 O   0  0  0  0  0  0  0  0  0  0  0  0
   39.4100   11.2537  -18.6893 C   0  0  0  0  0  0  0  0  0  0  0  0
   38.4509   10.3390  -17.9587 C   0  0  0  0  0  0  0  0  0  0  0  0
 11 12  1  0  0  0
 12 13  1  0  0  0
 13 14  1  0  0  0
 14 15  1  0  0  0
 15 16  1  0  0  0
 16 17  1  0  0  0
 17 18  1  0  0  0
 18 19  2  0  0  0
 19 20  1  0  0  0
 20 21  2  0  0  0
 21 22  1  0  0  0
 21 23  1  0  0  0
 23 24  2  0  0  0
 14  1  1  0  0  0
  1  2  2  0  0  0
  2  3  1  0  0  0
  3  4  2  0  0  0
  4  5  1  0  0  0
  5  6  2  0  0  0
  6  7  1  0  0  0
  7  8  2  0  0  0
  8  9  1  0  0  0
  5 25  1  0  0  0
 25 26  2  0  0  0
 25 27  2  0  0  0
 25 28  1  0  0  0
 28 29  1  0  0  0
 29 30  1  0  0  0
 30 31  1  0  0  0
 31 32  1  0  0  0
 32 33  1  0  0  0
 17 12  1  0  0  0
 24 18  1  0  0  0
  9  1  1  0  0  0
 33 28  1  0  0  0
  8  3  1  0  0  0
  9 10  1  0  0  0
M  END
> <minimizedAffinity>
-7.68939

> <CNNscore>
0.1597764641

> <CNNaffinity>
6.2260437012

> <CNN_VS>
0.9947752357

> <CNNaffinity_variance>
0.0025945387

$$$$
[H]c1c([H])c(N2C([H])([H])C([H])([H])N(c3nc4c([H])c(S(=O)(=O)N5C([H])([H])C([H])([H])OC([H])([H])C5([H])[H])c([H])c([H])c4n3[H])C([H])([H])[C@@]2([H])C([H])([H])[H])c([H])c([H])c1F


 33 37  0  0  0  0  0  0  0  0999 V2000
   35.9559   14.6893  -11.5359 C   0  0  0  0  0  0  0  0  0  0  0  0
   36.8605   14.1961  -12.4321 N   0  0  0  0  0  0  0  0  0  0  0  0
   36.2297   13.4849  -13.3831 C   0  0  0  0  0  0  0  0  0  0  0  0
   36.6426   12.7811  -14.5066 C   0  0  0  0  0  0  0  0  0  0  0  0
   35.7626   12.1204  -15.3371 C   0  0  0  0  0  0  0  0  0  0  0  0
   34.4162   12.1607  -15.0393 C   0  0  0  0  0  0  0  0  0  0  0  0
   34.0118   12.8614  -13.9220 C   0  0  0  0  0  0  0  0  0  0  0  0
   34.8951   13.5221  -13.0920 C   0  0  0  0  0  0  0  0  0  0  0  0
   34.7663   14.2474  -11.9859 N   0  0  0  0  0  0  0  0  0  0  0  0
   33.8493   14.4579  -11.5093 H   0  0  0  0  0  0  0  0  0  0  0  0
   35.7631   15.3454   -6.7105 C   0  0  0  0  0  0  0  0  0  0  0  0
   35.5991   15.9927   -8.0789 C   0  0  0  0  0  0  0  0  0  0  0  0
   36.0366   14.9517   -9.0844 C   0  0  0  0  0  0  0  0  0  0  0  0
   36.2375   15.4851  -10.3955 N   0  0  0  0  0  0  0  0  0  0  0  0
   36.7269   16.8319  -10.5310 C   0  0  0  0  0  0  0  0  0  0  0  0
   37.4167   17.2808   -9.2319 C   0  0  0  0  0  0  0  0  0  0  0  0
   36.4167   17.1819   -8.1950 N   0  0  0  0  0  0  0  0  0  0  0  0
   36.2308   18.2656   -7.2961 C   0  0  0  0  0  0  0  0  0  0  0  0
   34.9963   18.8597   -7.1147 C   0  0  0  0  0  0  0  0  0  0  0  0
   34.7798   19.9088   -6.2391 C   0  0  0  0  0  0  0  0  0  0  0  0
   35.8222   20.4048   -5.5015 C   0  0  0  0  0  0  0  0  0  0  0  0
   35.6650   21.4324   -4.6285 F   0  0  0  0  0  0  0  0  0  0  0  0
   37.0635   19.8170   -5.6754 C   0  0  0  0  0  0  0  0  0  0  0  0
   37.2809   18.7737   -6.5454 C   0  0  0  0  0  0  0  0  0  0  0  0
   36.3619   11.2532  -16.7359 S   0  0  0  0  0  0  0  0  0  0  0  0
   35.9868   12.0171  -17.9888 O   0  0  0  0  0  0  0  0  0  0  0  0
   35.7236    9.9019  -16.8498 O   0  0  0  0  0  0  0  0  0  0  0  0
   38.0873   11.1071  -16.6996 N   0  0  0  0  0  0  0  0  0  0  0  0
   38.6696   12.4269  -16.5545 C   0  0  0  0  0  0  0  0  0  0  0  0
   40.1759   12.3438  -16.6096 C   0  0  0  0  0  0  0  0  0  0  0  0
   40.6113   11.6336  -17.7002 O   0  0  0  0  0  0  0  0  0  0  0  0
   39.5709   11.3214  -18.5678 C   0  0  0  0  0  0  0  0  0  0  0  0
   38.5933   10.4193  -17.8462 C   0  0  0  0  0  0  0  0  0  0  0  0
 11 12  1  0  0  0
 12 13  1  0  0  0
 13 14  1  0  0  0
 14 15  1  0  0  0
 15 16  1  0  0  0
 16 17  1  0  0  0
 17 18  1  0  0  0
 18 19  2  0  0  0
 19 20  1  0  0  0
 20 21  2  0  0  0
 21 22  1  0  0  0
 21 23  1  0  0  0
 23 24  2  0  0  0
 14  1  1  0  0  0
  1  2  2  0  0  0
  2  3  1  0  0  0
  3  4  2  0  0  0
  4  5  1  0  0  0
  5  6  2  0  0  0
  6  7  1  0  0  0
  7  8  2  0  0  0
  8  9  1  0  0  0
  5 25  1  0  0  0
 25 26  2  0  0  0
 25 27  2  0  0  0
 25 28  1  0  0  0
 28 29  1  0  0  0
 29 30  1  0  0  0
 30 31  1  0  0  0
 31 32  1  0  0  0
 32 33  1  0  0  0
 17 12  1  0  0  0
 24 18  1  0  0  0
  9  1  1  0  0  0
 33 28  1  0  0  0
  8  3  1  0  0  0
  9 10  1  0  0  0
M  END
> <minimizedAffinity>
-7.50307

> <CNNscore>
0.1565914750

> <CNNaffinity>
6.1605954170

> <CNN_VS>
0.9646967053

> <CNNaffinity_variance>
0.0444931164

$$$$
[H]c1c([H])c(N2C([H])([H])C([H])([H])N(c3nc4c([H])c(S(=O)(=O)N5C([H])([H])C([H])([H])OC([H])([H])C5([H])[H])c([H])c([H])c4n3[H])C([H])([H])[C@@]2([H])C([H])([H])[H])c([H])c([H])c1F


 33 37  0  0  0  0  0  0  0  0999 V2000
   33.1330   14.2864  -12.6450 C   0  0  0  0  0  0  0  0  0  0  0  0
   33.4481   15.0723  -11.5736 N   0  0  0  0  0  0  0  0  0  0  0  0
   32.3714   15.2327  -10.7843 C   0  0  0  0  0  0  0  0  0  0  0  0
   32.1265   15.9129   -9.5989 C   0  0  0  0  0  0  0  0  0  0  0  0
   30.8938   15.9142   -8.9814 C   0  0  0  0  0  0  0  0  0  0  0  0
   29.8613   15.2104   -9.5659 C   0  0  0  0  0  0  0  0  0  0  0  0
   30.1104   14.5365  -10.7435 C   0  0  0  0  0  0  0  0  0  0  0  0
   31.3457   14.5367  -11.3597 C   0  0  0  0  0  0  0  0  0  0  0  0
   31.8330   13.9850  -12.4661 N   0  0  0  0  0  0  0  0  0  0  0  0
   31.2785   13.3828  -13.1311 H   0  0  0  0  0  0  0  0  0  0  0  0
   34.1267   11.3601  -16.4135 C   0  0  0  0  0  0  0  0  0  0  0  0
   34.6791   12.0556  -15.1768 C   0  0  0  0  0  0  0  0  0  0  0  0
   33.5646   12.9411  -14.6671 C   0  0  0  0  0  0  0  0  0  0  0  0
   34.0025   13.8938  -13.6953 N   0  0  0  0  0  0  0  0  0  0  0  0
   35.3297   14.4399  -13.8053 C   0  0  0  0  0  0  0  0  0  0  0  0
   35.8585   14.2686  -15.2391 C   0  0  0  0  0  0  0  0  0  0  0  0
   35.8459   12.8487  -15.5016 N   0  0  0  0  0  0  0  0  0  0  0  0
   36.9921   12.2317  -16.0694 C   0  0  0  0  0  0  0  0  0  0  0  0
   36.8978   11.3594  -17.1372 C   0  0  0  0  0  0  0  0  0  0  0  0
   37.9951   10.7511  -17.7200 C   0  0  0  0  0  0  0  0  0  0  0  0
   39.2510   11.0067  -17.2359 C   0  0  0  0  0  0  0  0  0  0  0  0
   40.3611   10.4368  -17.7703 F   0  0  0  0  0  0  0  0  0  0  0  0
   39.3572   11.8791  -16.1662 C   0  0  0  0  0  0  0  0  0  0  0  0
   38.2673   12.4851  -15.5853 C   0  0  0  0  0  0  0  0  0  0  0  0
   30.6639   16.7981   -7.4868 S   0  0  0  0  0  0  0  0  0  0  0  0
   29.1899   17.1003   -7.3133 O   0  0  0  0  0  0  0  0  0  0  0  0
   31.3714   18.1189   -7.5243 O   0  0  0  0  0  0  0  0  0  0  0  0
   31.1810   15.8725   -6.1173 N   0  0  0  0  0  0  0  0  0  0  0  0
   32.5115   16.3015   -5.7330 C   0  0  0  0  0  0  0  0  0  0  0  0
   33.0280   15.4519   -4.5970 C   0  0  0  0  0  0  0  0  0  0  0  0
   32.9038   14.1109   -4.8611 O   0  0  0  0  0  0  0  0  0  0  0  0
   32.4988   13.8730   -6.1696 C   0  0  0  0  0  0  0  0  0  0  0  0
   31.1202   14.4658   -6.3647 C   0  0  0  0  0  0  0  0  0  0  0  0
 11 12  1  0  0  0
 12 13  1  0  0  0
 13 14  1  0  0  0
 14 15  1  0  0  0
 15 16  1  0  0  0
 16 17  1  0  0  0
 17 18  1  0  0  0
 18 19  2  0  0  0
 19 20  1  0  0  0
 20 21  2  0  0  0
 21 22  1  0  0  0
 21 23  1  0  0  0
 23 24  2  0  0  0
 14  1  1  0  0  0
  1  2  2  0  0  0
  2  3  1  0  0  0
  3  4  2  0  0  0
  4  5  1  0  0  0
  5  6  2  0  0  0
  6  7  1  0  0  0
  7  8  2  0  0  0
  8  9  1  0  0  0
  5 25  1  0  0  0
 25 26  2  0  0  0
 25 27  2  0  0  0
 25 28  1  0  0  0
 28 29  1  0  0  0
 29 30  1  0  0  0
 30 31  1  0  0  0
 31 32  1  0  0  0
 32 33  1  0  0  0
 17 12  1  0  0  0
 24 18  1  0  0  0
  9  1  1  0  0  0
 33 28  1  0  0  0
  8  3  1  0  0  0
  9 10  1  0  0  0
M  END
> <minimizedAffinity>
-9.59028

> <CNNscore>
0.1548838019

> <CNNaffinity>
6.1846437454

> <CNN_VS>
0.9579011202

> <CNNaffinity_variance>
0.4326864779

$$$$
[H]c1c([H])c(N2C([H])([H])C([H])([H])N(c3nc4c([H])c(S(=O)(=O)N5C([H])([H])C([H])([H])OC([H])([H])C5([H])[H])c([H])c([H])c4n3[H])C([H])([H])[C@@]2([H])C([H])([H])[H])c([H])c([H])c1F


 33 37  0  0  0  0  0  0  0  0999 V2000
   42.1022   13.1399  -14.9641 C   0  0  0  0  0  0  0  0  0  0  0  0
   42.6627   13.4116  -13.7488 N   0  0  0  0  0  0  0  0  0  0  0  0
   44.0022   13.3221  -13.8263 C   0  0  0  0  0  0  0  0  0  0  0  0
   45.0426   13.4911  -12.9224 C   0  0  0  0  0  0  0  0  0  0  0  0
   46.3668   13.3343  -13.2726 C   0  0  0  0  0  0  0  0  0  0  0  0
   46.6701   12.9956  -14.5750 C   0  0  0  0  0  0  0  0  0  0  0  0
   45.6325   12.8290  -15.4685 C   0  0  0  0  0  0  0  0  0  0  0  0
   44.3074   12.9867  -15.1154 C   0  0  0  0  0  0  0  0  0  0  0  0
   43.1533   12.8859  -15.7664 N   0  0  0  0  0  0  0  0  0  0  0  0
   43.0594   12.6377  -16.7871 H   0  0  0  0  0  0  0  0  0  0  0  0
   37.5694   14.6742  -14.0414 C   0  0  0  0  0  0  0  0  0  0  0  0
   38.4482   13.4874  -14.4123 C   0  0  0  0  0  0  0  0  0  0  0  0
   39.8341   14.0509  -14.6311 C   0  0  0  0  0  0  0  0  0  0  0  0
   40.7187   13.1336  -15.2790 N   0  0  0  0  0  0  0  0  0  0  0  0
   40.1807   12.2146  -16.2473 C   0  0  0  0  0  0  0  0  0  0  0  0
   38.8283   12.7253  -16.7717 C   0  0  0  0  0  0  0  0  0  0  0  0
   37.9703   12.8402  -15.6160 N   0  0  0  0  0  0  0  0  0  0  0  0
   36.6569   12.3020  -15.6629 C   0  0  0  0  0  0  0  0  0  0  0  0
   36.2129   11.5536  -16.7364 C   0  0  0  0  0  0  0  0  0  0  0  0
   34.9443   11.0061  -16.8076 C   0  0  0  0  0  0  0  0  0  0  0  0
   34.0619   11.1989  -15.7775 C   0  0  0  0  0  0  0  0  0  0  0  0
   32.8058   10.6845  -15.7964 F   0  0  0  0  0  0  0  0  0  0  0  0
   34.4963   11.9473  -14.6969 C   0  0  0  0  0  0  0  0  0  0  0  0
   35.7574   12.4924  -14.6240 C   0  0  0  0  0  0  0  0  0  0  0  0
   47.6228   13.5641  -12.0736 S   0  0  0  0  0  0  0  0  0  0  0  0
   47.3503   14.8447  -11.3119 O   0  0  0  0  0  0  0  0  0  0  0  0
   48.9654   13.7264  -12.7198 O   0  0  0  0  0  0  0  0  0  0  0  0
   47.6537   12.2629  -10.9310 N   0  0  0  0  0  0  0  0  0  0  0  0
   48.0073   11.0377  -11.6206 C   0  0  0  0  0  0  0  0  0  0  0  0
   47.9553    9.8671  -10.6687 C   0  0  0  0  0  0  0  0  0  0  0  0
   46.7725    9.8222   -9.9743 O   0  0  0  0  0  0  0  0  0  0  0  0
   45.8564   10.7561  -10.4448 C   0  0  0  0  0  0  0  0  0  0  0  0
   46.4197   12.1424  -10.2193 C   0  0  0  0  0  0  0  0  0  0  0  0
 11 12  1  0  0  0
 12 13  1  0  0  0
 13 14  1  0  0  0
 14 15  1  0  0  0
 15 16  1  0  0  0
 16 17  1  0  0  0
 17 18  1  0  0  0
 18 19  2  0  0  0
 19 20  1  0  0  0
 20 21  2  0  0  0
 21 22  1  0  0  0
 21 23  1  0  0  0
 23 24  2  0  0  0
 14  1  1  0  0  0
  1  2  2  0  0  0
  2  3  1  0  0  0
  3  4  2  0  0  0
  4  5  1  0  0  0
  5  6  2  0  0  0
  6  7  1  0  0  0
  7  8  2  0  0  0
  8  9  1  0  0  0
  5 25  1  0  0  0
 25 26  2  0  0  0
 25 27  2  0  0  0
 25 28  1  0  0  0
 28 29  1  0  0  0
 29 30  1  0  0  0
 30 31  1  0  0  0
 31 32  1  0  0  0
 32 33  1  0  0  0
 17 12  1  0  0  0
 24 18  1  0  0  0
  9  1  1  0  0  0
 33 28  1  0  0  0
  8  3  1  0  0  0
  9 10  1  0  0  0
M  END
> <minimizedAffinity>
-7.85653

> <CNNscore>
0.0875328481

> <CNNaffinity>
6.2093172073

> <CNN_VS>
0.5435191989

> <CNNaffinity_variance>
0.1262620240

$$$$
[H]c1c([H])c(N2C([H])([H])C([H])([H])N(c3nc4c([H])c(S(=O)(=O)N5C([H])([H])C([H])([H])OC([H])([H])C5([H])[H])c([H])c([H])c4n3[H])C([H])([H])[C@@]2([H])C([H])([H])[H])c([H])c([H])c1F


 33 37  0  0  0  0  0  0  0  0999 V2000
   35.7611   15.0765  -10.6257 C   0  0  0  0  0  0  0  0  0  0  0  0
   36.1087   14.3862   -9.4999 N   0  0  0  0  0  0  0  0  0  0  0  0
   35.8972   15.1432   -8.4088 C   0  0  0  0  0  0  0  0  0  0  0  0
   36.0702   14.9532   -7.0443 C   0  0  0  0  0  0  0  0  0  0  0  0
   35.7660   15.9227   -6.1125 C   0  0  0  0  0  0  0  0  0  0  0  0
   35.2690   17.1312   -6.5546 C   0  0  0  0  0  0  0  0  0  0  0  0
   35.0992   17.3143   -7.9112 C   0  0  0  0  0  0  0  0  0  0  0  0
   35.4046   16.3419   -8.8422 C   0  0  0  0  0  0  0  0  0  0  0  0
   35.3359   16.2690  -10.1673 N   0  0  0  0  0  0  0  0  0  0  0  0
   34.9923   17.0443  -10.7943 H   0  0  0  0  0  0  0  0  0  0  0  0
   33.8215   12.5965  -14.3459 C   0  0  0  0  0  0  0  0  0  0  0  0
   35.0888   12.9062  -13.5608 C   0  0  0  0  0  0  0  0  0  0  0  0
   34.7108   13.9877  -12.5742 C   0  0  0  0  0  0  0  0  0  0  0  0
   35.8422   14.6139  -11.9646 N   0  0  0  0  0  0  0  0  0  0  0  0
   37.0513   14.7634  -12.7310 C   0  0  0  0  0  0  0  0  0  0  0  0
   36.7438   14.6667  -14.2347 C   0  0  0  0  0  0  0  0  0  0  0  0
   36.1452   13.3682  -14.4364 N   0  0  0  0  0  0  0  0  0  0  0  0
   36.6090   12.5401  -15.4929 C   0  0  0  0  0  0  0  0  0  0  0  0
   37.9545   12.2942  -15.6905 C   0  0  0  0  0  0  0  0  0  0  0  0
   38.4378   11.4839  -16.7024 C   0  0  0  0  0  0  0  0  0  0  0  0
   37.5627   10.8818  -17.5676 C   0  0  0  0  0  0  0  0  0  0  0  0
   37.9832   10.0778  -18.5773 F   0  0  0  0  0  0  0  0  0  0  0  0
   36.2123   11.1214  -17.3788 C   0  0  0  0  0  0  0  0  0  0  0  0
   35.7297   11.9266  -16.3732 C   0  0  0  0  0  0  0  0  0  0  0  0
   36.0132   15.6069   -4.4074 S   0  0  0  0  0  0  0  0  0  0  0  0
   35.4636   14.2353   -4.0743 O   0  0  0  0  0  0  0  0  0  0  0  0
   35.2611   16.5881   -3.5601 O   0  0  0  0  0  0  0  0  0  0  0  0
   37.6962   15.6183   -3.9985 N   0  0  0  0  0  0  0  0  0  0  0  0
   38.3537   16.6796   -4.7356 C   0  0  0  0  0  0  0  0  0  0  0  0
   39.8396   16.6592   -4.4697 C   0  0  0  0  0  0  0  0  0  0  0  0
   40.3761   15.4088   -4.6490 O   0  0  0  0  0  0  0  0  0  0  0  0
   39.4567   14.5210   -5.1959 C   0  0  0  0  0  0  0  0  0  0  0  0
   38.3125   14.3477   -4.2207 C   0  0  0  0  0  0  0  0  0  0  0  0
 11 12  1  0  0  0
 12 13  1  0  0  0
 13 14  1  0  0  0
 14 15  1  0  0  0
 15 16  1  0  0  0
 16 17  1  0  0  0
 17 18  1  0  0  0
 18 19  2  0  0  0
 19 20  1  0  0  0
 20 21  2  0  0  0
 21 22  1  0  0  0
 21 23  1  0  0  0
 23 24  2  0  0  0
 14  1  1  0  0  0
  1  2  2  0  0  0
  2  3  1  0  0  0
  3  4  2  0  0  0
  4  5  1  0  0  0
  5  6  2  0  0  0
  6  7  1  0  0  0
  7  8  2  0  0  0
  8  9  1  0  0  0
  5 25  1  0  0  0
 25 26  2  0  0  0
 25 27  2  0  0  0
 25 28  1  0  0  0
 28 29  1  0  0  0
 29 30  1  0  0  0
 30 31  1  0  0  0
 31 32  1  0  0  0
 32 33  1  0  0  0
 17 12  1  0  0  0
 24 18  1  0  0  0
  9  1  1  0  0  0
 33 28  1  0  0  0
  8  3  1  0  0  0
  9 10  1  0  0  0
M  END
> <minimizedAffinity>
-8.80493

> <CNNscore>
0.0844295844

> <CNNaffinity>
5.6443066597

> <CNN_VS>
0.4765464664

> <CNNaffinity_variance>
0.3425881863

$$$$
[H]c1c([H])c(N2C([H])([H])C([H])([H])N(c3nc4c([H])c(S(=O)(=O)N5C([H])([H])C([H])([H])OC([H])([H])C5([H])[H])c([H])c([H])c4n3[H])C([H])([H])[C@@]2([H])C([H])([H])[H])c([H])c([H])c1F


 33 37  0  0  0  0  0  0  0  0999 V2000
   37.9996   14.8799  -10.5273 C   0  0  0  0  0  0  0  0  0  0  0  0
   37.5008   14.9916   -9.2610 N   0  0  0  0  0  0  0  0  0  0  0  0
   38.4763   15.3539   -8.4093 C   0  0  0  0  0  0  0  0  0  0  0  0
   38.5333   15.6042   -7.0447 C   0  0  0  0  0  0  0  0  0  0  0  0
   39.6967   15.9705   -6.4023 C   0  0  0  0  0  0  0  0  0  0  0  0
   40.8518   16.0935   -7.1464 C   0  0  0  0  0  0  0  0  0  0  0  0
   40.7892   15.8438   -8.5016 C   0  0  0  0  0  0  0  0  0  0  0  0
   39.6229   15.4771   -9.1425 C   0  0  0  0  0  0  0  0  0  0  0  0
   39.3042   15.1879  -10.3998 N   0  0  0  0  0  0  0  0  0  0  0  0
   39.9819   15.1951  -11.2078 H   0  0  0  0  0  0  0  0  0  0  0  0
   33.7548   14.3904  -12.8712 C   0  0  0  0  0  0  0  0  0  0  0  0
   35.1151   13.7702  -12.5828 C   0  0  0  0  0  0  0  0  0  0  0  0
   35.8824   14.8047  -11.7909 C   0  0  0  0  0  0  0  0  0  0  0  0
   37.2795   14.5176  -11.6949 N   0  0  0  0  0  0  0  0  0  0  0  0
   37.9320   13.8609  -12.7971 C   0  0  0  0  0  0  0  0  0  0  0  0
   37.1076   14.0344  -14.0836 C   0  0  0  0  0  0  0  0  0  0  0  0
   35.8146   13.4526  -13.8099 N   0  0  0  0  0  0  0  0  0  0  0  0
   35.2381   12.5553  -14.7477 C   0  0  0  0  0  0  0  0  0  0  0  0
   35.8932   12.1936  -15.9095 C   0  0  0  0  0  0  0  0  0  0  0  0
   35.3644   11.3139  -16.8371 C   0  0  0  0  0  0  0  0  0  0  0  0
   34.1314   10.7575  -16.6204 C   0  0  0  0  0  0  0  0  0  0  0  0
   33.5663    9.8892  -17.4976 F   0  0  0  0  0  0  0  0  0  0  0  0
   33.4661   11.1130  -15.4595 C   0  0  0  0  0  0  0  0  0  0  0  0
   33.9902   11.9874  -14.5358 C   0  0  0  0  0  0  0  0  0  0  0  0
   39.6876   16.2683   -4.6762 S   0  0  0  0  0  0  0  0  0  0  0  0
   41.1103   16.2191   -4.1589 O   0  0  0  0  0  0  0  0  0  0  0  0
   38.9283   15.2018   -3.9465 O   0  0  0  0  0  0  0  0  0  0  0  0
   39.0419   17.8324   -4.3065 N   0  0  0  0  0  0  0  0  0  0  0  0
   37.7102   17.6749   -3.7554 C   0  0  0  0  0  0  0  0  0  0  0  0
   37.0836   19.0254   -3.5056 C   0  0  0  0  0  0  0  0  0  0  0  0
   37.1637   19.8401   -4.6071 O   0  0  0  0  0  0  0  0  0  0  0  0
   37.6409   19.1621   -5.7230 C   0  0  0  0  0  0  0  0  0  0  0  0
   39.0547   18.7017   -5.4414 C   0  0  0  0  0  0  0  0  0  0  0  0
 11 12  1  0  0  0
 12 13  1  0  0  0
 13 14  1  0  0  0
 14 15  1  0  0  0
 15 16  1  0  0  0
 16 17  1  0  0  0
 17 18  1  0  0  0
 18 19  2  0  0  0
 19 20  1  0  0  0
 20 21  2  0  0  0
 21 22  1  0  0  0
 21 23  1  0  0  0
 23 24  2  0  0  0
 14  1  1  0  0  0
  1  2  2  0  0  0
  2  3  1  0  0  0
  3  4  2  0  0  0
  4  5  1  0  0  0
  5  6  2  0  0  0
  6  7  1  0  0  0
  7  8  2  0  0  0
  8  9  1  0  0  0
  5 25  1  0  0  0
 25 26  2  0  0  0
 25 27  2  0  0  0
 25 28  1  0  0  0
 28 29  1  0  0  0
 29 30  1  0  0  0
 30 31  1  0  0  0
 31 32  1  0  0  0
 32 33  1  0  0  0
 17 12  1  0  0  0
 24 18  1  0  0  0
  9  1  1  0  0  0
 33 28  1  0  0  0
  8  3  1  0  0  0
  9 10  1  0  0  0
M  END
> <minimizedAffinity>
-8.04103

> <CNNscore>
0.0802455693

> <CNNaffinity>
5.6928553581

> <CNN_VS>
0.4568264186

> <CNNaffinity_variance>
0.1744369566

$$$$
[H]c1c([H])c(N2C([H])([H])C([H])([H])N(c3nc4c([H])c(S(=O)(=O)N5C([H])([H])C([H])([H])OC([H])([H])C5([H])[H])c([H])c([H])c4n3[H])C([H])([H])[C@@]2([H])C([H])([H])[H])c([H])c([H])c1F


 33 37  0  0  0  0  0  0  0  0999 V2000
   34.2712   15.2657  -11.1261 C   0  0  0  0  0  0  0  0  0  0  0  0
   34.9565   15.7346  -10.0419 N   0  0  0  0  0  0  0  0  0  0  0  0
   34.0971   16.1236   -9.0836 C   0  0  0  0  0  0  0  0  0  0  0  0
   34.2369   16.6626   -7.8117 C   0  0  0  0  0  0  0  0  0  0  0  0
   33.1581   16.9806   -7.0143 C   0  0  0  0  0  0  0  0  0  0  0  0
   31.8874   16.7535   -7.5008 C   0  0  0  0  0  0  0  0  0  0  0  0
   31.7545   16.2178   -8.7650 C   0  0  0  0  0  0  0  0  0  0  0  0
   32.8365   15.9003   -9.5613 C   0  0  0  0  0  0  0  0  0  0  0  0
   32.9758   15.3890  -10.7800 N   0  0  0  0  0  0  0  0  0  0  0  0
   32.1765   15.1102  -11.4091 H   0  0  0  0  0  0  0  0  0  0  0  0
   33.9893   12.2949  -14.9792 C   0  0  0  0  0  0  0  0  0  0  0  0
   34.8905   12.8773  -13.8989 C   0  0  0  0  0  0  0  0  0  0  0  0
   34.0554   13.9092  -13.1750 C   0  0  0  0  0  0  0  0  0  0  0  0
   34.8278   14.7678  -12.3324 N   0  0  0  0  0  0  0  0  0  0  0  0
   36.1673   15.1123  -12.7311 C   0  0  0  0  0  0  0  0  0  0  0  0
   36.3463   14.8910  -14.2424 C   0  0  0  0  0  0  0  0  0  0  0  0
   36.0661   13.4939  -14.4765 N   0  0  0  0  0  0  0  0  0  0  0  0
   36.9595   12.7239  -15.2677 C   0  0  0  0  0  0  0  0  0  0  0  0
   36.5195   11.9643  -16.3351 C   0  0  0  0  0  0  0  0  0  0  0  0
   37.3647   11.2128  -17.1319 C   0  0  0  0  0  0  0  0  0  0  0  0
   38.7101   11.2011  -16.8740 C   0  0  0  0  0  0  0  0  0  0  0  0
   39.5833   10.4814  -17.6239 F   0  0  0  0  0  0  0  0  0  0  0  0
   39.1619   11.9586  -15.8069 C   0  0  0  0  0  0  0  0  0  0  0  0
   38.3231   12.7067  -15.0134 C   0  0  0  0  0  0  0  0  0  0  0  0
   33.4169   17.6585   -5.4202 S   0  0  0  0  0  0  0  0  0  0  0  0
   34.9040   17.8371   -5.1948 O   0  0  0  0  0  0  0  0  0  0  0  0
   32.9293   16.7288   -4.3505 O   0  0  0  0  0  0  0  0  0  0  0  0
   32.6657   19.2110   -5.2623 N   0  0  0  0  0  0  0  0  0  0  0  0
   33.1194   20.0667   -6.3411 C   0  0  0  0  0  0  0  0  0  0  0  0
   32.5521   21.4565   -6.1812 C   0  0  0  0  0  0  0  0  0  0  0  0
   32.7596   21.9538   -4.9190 O   0  0  0  0  0  0  0  0  0  0  0  0
   33.5870   21.1301   -4.1642 C   0  0  0  0  0  0  0  0  0  0  0  0
   32.9005   19.7943   -3.9783 C   0  0  0  0  0  0  0  0  0  0  0  0
 11 12  1  0  0  0
 12 13  1  0  0  0
 13 14  1  0  0  0
 14 15  1  0  0  0
 15 16  1  0  0  0
 16 17  1  0  0  0
 17 18  1  0  0  0
 18 19  2  0  0  0
 19 20  1  0  0  0
 20 21  2  0  0  0
 21 22  1  0  0  0
 21 23  1  0  0  0
 23 24  2  0  0  0
 14  1  1  0  0  0
  1  2  2  0  0  0
  2  3  1  0  0  0
  3  4  2  0  0  0
  4  5  1  0  0  0
  5  6  2  0  0  0
  6  7  1  0  0  0
  7  8  2  0  0  0
  8  9  1  0  0  0
  5 25  1  0  0  0
 25 26  2  0  0  0
 25 27  2  0  0  0
 25 28  1  0  0  0
 28 29  1  0  0  0
 29 30  1  0  0  0
 30 31  1  0  0  0
 31 32  1  0  0  0
 32 33  1  0  0  0
 17 12  1  0  0  0
 24 18  1  0  0  0
  9  1  1  0  0  0
 33 28  1  0  0  0
  8  3  1  0  0  0
  9 10  1  0  0  0
M  END
> <minimizedAffinity>
-8.86296

> <CNNscore>
0.0788273364

> <CNNaffinity>
5.8313117027

> <CNN_VS>
0.4596667588

> <CNNaffinity_variance>
0.3166608214

$$$$
[H]c1c([H])c(N2C([H])([H])C([H])([H])N(c3nc4c([H])c(S(=O)(=O)N5C([H])([H])C([H])([H])OC([H])([H])C5([H])[H])c([H])c([H])c4n3[H])C([H])([H])[C@@]2([H])C([H])([H])[H])c([H])c([H])c1F


 33 37  0  0  0  0  0  0  0  0999 V2000
   34.2618   15.1156  -11.3929 C   0  0  0  0  0  0  0  0  0  0  0  0
   34.9497   15.5559  -10.2985 N   0  0  0  0  0  0  0  0  0  0  0  0
   34.0932   15.9848   -9.3549 C   0  0  0  0  0  0  0  0  0  0  0  0
   34.2362   16.5198   -8.0816 C   0  0  0  0  0  0  0  0  0  0  0  0
   33.1599   16.8871   -7.3023 C   0  0  0  0  0  0  0  0  0  0  0  0
   31.8883   16.7157   -7.8090 C   0  0  0  0  0  0  0  0  0  0  0  0
   31.7522   16.1838   -9.0745 C   0  0  0  0  0  0  0  0  0  0  0  0
   32.8317   15.8167   -9.8527 C   0  0  0  0  0  0  0  0  0  0  0  0
   32.9678   15.2971  -11.0682 N   0  0  0  0  0  0  0  0  0  0  0  0
   32.1672   15.0527  -11.7098 H   0  0  0  0  0  0  0  0  0  0  0  0
   34.1189   11.8700  -15.0258 C   0  0  0  0  0  0  0  0  0  0  0  0
   35.0012   12.6105  -14.0301 C   0  0  0  0  0  0  0  0  0  0  0  0
   34.0981   13.6049  -13.3362 C   0  0  0  0  0  0  0  0  0  0  0  0
   34.8152   14.5908  -12.5894 N   0  0  0  0  0  0  0  0  0  0  0  0
   36.0961   15.0344  -13.0733 C   0  0  0  0  0  0  0  0  0  0  0  0
   36.2340   14.7265  -14.5737 C   0  0  0  0  0  0  0  0  0  0  0  0
   36.0849   13.2960  -14.7024 N   0  0  0  0  0  0  0  0  0  0  0  0
   37.0172   12.5625  -15.4833 C   0  0  0  0  0  0  0  0  0  0  0  0
   36.6201   11.7876  -16.5565 C   0  0  0  0  0  0  0  0  0  0  0  0
   37.5036   11.0707  -17.3435 C   0  0  0  0  0  0  0  0  0  0  0  0
   38.8453   11.1114  -17.0695 C   0  0  0  0  0  0  0  0  0  0  0  0
   39.7549   10.4273  -17.8093 F   0  0  0  0  0  0  0  0  0  0  0  0
   39.2542   11.8847  -15.9964 C   0  0  0  0  0  0  0  0  0  0  0  0
   38.3773   12.5984  -15.2126 C   0  0  0  0  0  0  0  0  0  0  0  0
   33.4228   17.5563   -5.7051 S   0  0  0  0  0  0  0  0  0  0  0  0
   32.1614   18.2613   -5.2511 O   0  0  0  0  0  0  0  0  0  0  0  0
   34.5091   18.5888   -5.7225 O   0  0  0  0  0  0  0  0  0  0  0  0
   33.7834   16.3169   -4.5504 N   0  0  0  0  0  0  0  0  0  0  0  0
   35.2223   16.1730   -4.4464 C   0  0  0  0  0  0  0  0  0  0  0  0
   35.5691   15.0379   -3.5135 C   0  0  0  0  0  0  0  0  0  0  0  0
   34.8919   13.8873   -3.8309 O   0  0  0  0  0  0  0  0  0  0  0  0
   34.1954   14.0062   -5.0282 C   0  0  0  0  0  0  0  0  0  0  0  0
   33.1412   15.0803   -4.8700 C   0  0  0  0  0  0  0  0  0  0  0  0
 11 12  1  0  0  0
 12 13  1  0  0  0
 13 14  1  0  0  0
 14 15  1  0  0  0
 15 16  1  0  0  0
 16 17  1  0  0  0
 17 18  1  0  0  0
 18 19  2  0  0  0
 19 20  1  0  0  0
 20 21  2  0  0  0
 21 22  1  0  0  0
 21 23  1  0  0  0
 23 24  2  0  0  0
 14  1  1  0  0  0
  1  2  2  0  0  0
  2  3  1  0  0  0
  3  4  2  0  0  0
  4  5  1  0  0  0
  5  6  2  0  0  0
  6  7  1  0  0  0
  7  8  2  0  0  0
  8  9  1  0  0  0
  5 25  1  0  0  0
 25 26  2  0  0  0
 25 27  2  0  0  0
 25 28  1  0  0  0
 28 29  1  0  0  0
 29 30  1  0  0  0
 30 31  1  0  0  0
 31 32  1  0  0  0
 32 33  1  0  0  0
 17 12  1  0  0  0
 24 18  1  0  0  0
  9  1  1  0  0  0
 33 28  1  0  0  0
  8  3  1  0  0  0
  9 10  1  0  0  0
M  END
> <minimizedAffinity>
-9.19089

> <CNNscore>
0.0670330748

> <CNNaffinity>
5.7663817406

> <CNN_VS>
0.3865382969

> <CNNaffinity_variance>
0.3077688813

$$$$
[H]c1c([H])c(N2C([H])([H])C([H])([H])N(c3nc4c([H])c(S(=O)(=O)N5C([H])([H])C([H])([H])OC([H])([H])C5([H])[H])c([H])c([H])c4n3[H])C([H])([H])[C@@]2([H])C([H])([H])[H])c([H])c([H])c1F


 33 37  0  0  0  0  0  0  0  0999 V2000
   35.0616   15.4269  -11.0286 C   0  0  0  0  0  0  0  0  0  0  0  0
   35.8925   16.1895  -10.2585 N   0  0  0  0  0  0  0  0  0  0  0  0
   35.2560   16.5846   -9.1419 C   0  0  0  0  0  0  0  0  0  0  0  0
   35.6091   17.3532   -8.0407 C   0  0  0  0  0  0  0  0  0  0  0  0
   34.7389   17.6133   -7.0035 C   0  0  0  0  0  0  0  0  0  0  0  0
   33.4648   17.0879   -7.0625 C   0  0  0  0  0  0  0  0  0  0  0  0
   33.1195   16.3251   -8.1588 C   0  0  0  0  0  0  0  0  0  0  0  0
   33.9928   16.0661   -9.1960 C   0  0  0  0  0  0  0  0  0  0  0  0
   33.9100   15.3821  -10.3323 N   0  0  0  0  0  0  0  0  0  0  0  0
   33.0521   14.8634  -10.6598 H   0  0  0  0  0  0  0  0  0  0  0  0
   34.1485   12.0484  -14.4203 C   0  0  0  0  0  0  0  0  0  0  0  0
   35.2222   12.7878  -13.6336 C   0  0  0  0  0  0  0  0  0  0  0  0
   34.4958   13.8487  -12.8380 C   0  0  0  0  0  0  0  0  0  0  0  0
   35.3714   14.8304  -12.2781 N   0  0  0  0  0  0  0  0  0  0  0  0
   36.5602   15.1962  -13.0025 C   0  0  0  0  0  0  0  0  0  0  0  0
   36.4149   14.8228  -14.4872 C   0  0  0  0  0  0  0  0  0  0  0  0
   36.1922   13.3964  -14.5194 N   0  0  0  0  0  0  0  0  0  0  0  0
   36.9412   12.5912  -15.4180 C   0  0  0  0  0  0  0  0  0  0  0  0
   36.3443   11.9232  -16.4703 C   0  0  0  0  0  0  0  0  0  0  0  0
   37.0468   11.1407  -17.3693 C   0  0  0  0  0  0  0  0  0  0  0  0
   38.4031   11.0020  -17.2350 C   0  0  0  0  0  0  0  0  0  0  0  0
   39.1401   10.2465  -18.0886 F   0  0  0  0  0  0  0  0  0  0  0  0
   39.0115   11.6668  -16.1840 C   0  0  0  0  0  0  0  0  0  0  0  0
   38.3148   12.4456  -15.2891 C   0  0  0  0  0  0  0  0  0  0  0  0
   35.2596   18.5935   -5.6484 S   0  0  0  0  0  0  0  0  0  0  0  0
   36.5402   18.0148   -5.0834 O   0  0  0  0  0  0  0  0  0  0  0  0
   34.2506   18.5658   -4.5405 O   0  0  0  0  0  0  0  0  0  0  0  0
   35.5825   20.2245   -6.1332 N   0  0  0  0  0  0  0  0  0  0  0  0
   34.6325   20.6088   -7.1588 C   0  0  0  0  0  0  0  0  0  0  0  0
   34.9434   21.9958   -7.6675 C   0  0  0  0  0  0  0  0  0  0  0  0
   36.2632   22.1299   -8.0188 O   0  0  0  0  0  0  0  0  0  0  0  0
   36.9377   20.9148   -7.9838 C   0  0  0  0  0  0  0  0  0  0  0  0
   36.9354   20.4011   -6.5603 C   0  0  0  0  0  0  0  0  0  0  0  0
 11 12  1  0  0  0
 12 13  1  0  0  0
 13 14  1  0  0  0
 14 15  1  0  0  0
 15 16  1  0  0  0
 16 17  1  0  0  0
 17 18  1  0  0  0
 18 19  2  0  0  0
 19 20  1  0  0  0
 20 21  2  0  0  0
 21 22  1  0  0  0
 21 23  1  0  0  0
 23 24  2  0  0  0
 14  1  1  0  0  0
  1  2  2  0  0  0
  2  3  1  0  0  0
  3  4  2  0  0  0
  4  5  1  0  0  0
  5  6  2  0  0  0
  6  7  1  0  0  0
  7  8  2  0  0  0
  8  9  1  0  0  0
  5 25  1  0  0  0
 25 26  2  0  0  0
 25 27  2  0  0  0
 25 28  1  0  0  0
 28 29  1  0  0  0
 29 30  1  0  0  0
 30 31  1  0  0  0
 31 32  1  0  0  0
 32 33  1  0  0  0
 17 12  1  0  0  0
 24 18  1  0  0  0
  9  1  1  0  0  0
 33 28  1  0  0  0
  8  3  1  0  0  0
  9 10  1  0  0  0
M  END
> <minimizedAffinity>
-8.82474

> <CNNscore>
0.0606470034

> <CNNaffinity>
5.8726415634

> <CNN_VS>
0.3561581075

> <CNNaffinity_variance>
0.3327492774

$$$$
[H]OC(c1c([H])c([H])c2c(nc(N3C([H])([H])C([H])([H])N(c4c([H])c([H])c(F)c([H])c4[H])[C@]([H])(C([H])([H])[H])C3([H])[H])n2[H])c1[H])(C([H])([H])[H])C([H])([H])[H]


 29 32  0  0  0  0  0  0  0  0999 V2000
   41.7981   12.4870  -16.4196 C   0  0  0  0  0  0  0  0  0  0  0  0
   40.6084   12.4592  -15.7280 N   0  0  0  0  0  0  0  0  0  0  0  0
   39.6547   11.9478  -16.4895 C   0  0  0  0  0  0  0  0  0  0  0  0
   38.3012   11.7409  -16.2825 C   0  0  0  0  0  0  0  0  0  0  0  0
   37.4948   11.2209  -17.2716 C   0  0  0  0  0  0  0  0  0  0  0  0
   38.0412   10.8972  -18.4895 C   0  0  0  0  0  0  0  0  0  0  0  0
   39.3976   11.0950  -18.7218 C   0  0  0  0  0  0  0  0  0  0  0  0
   40.1965   11.6208  -17.7146 C   0  0  0  0  0  0  0  0  0  0  0  0
   41.5128   11.9704  -17.6144 N   0  0  0  0  0  0  0  0  0  0  0  0
   42.1960   11.8395  -18.3931 H   0  0  0  0  0  0  0  0  0  0  0  0
   44.7547   15.2136  -13.3694 C   0  0  0  0  0  0  0  0  0  0  0  0
   44.5209   14.2816  -14.5229 C   0  0  0  0  0  0  0  0  0  0  0  0
   43.0925   13.7741  -14.6325 C   0  0  0  0  0  0  0  0  0  0  0  0
   42.9707   13.0901  -15.8812 N   0  0  0  0  0  0  0  0  0  0  0  0
   44.2073   12.9162  -16.7143 C   0  0  0  0  0  0  0  0  0  0  0  0
   45.2636   12.3274  -15.8128 C   0  0  0  0  0  0  0  0  0  0  0  0
   45.4342   13.2119  -14.6280 N   0  0  0  0  0  0  0  0  0  0  0  0
   46.4970   12.8348  -13.7882 C   0  0  0  0  0  0  0  0  0  0  0  0
   47.7983   13.0259  -14.1082 C   0  0  0  0  0  0  0  0  0  0  0  0
   48.7749   12.6569  -13.1975 C   0  0  0  0  0  0  0  0  0  0  0  0
   48.4254   12.1087  -12.0001 C   0  0  0  0  0  0  0  0  0  0  0  0
   49.3255   11.7380  -11.0724 F   0  0  0  0  0  0  0  0  0  0  0  0
   47.0853   11.9077  -11.6670 C   0  0  0  0  0  0  0  0  0  0  0  0
   46.1151   12.2712  -12.5622 C   0  0  0  0  0  0  0  0  0  0  0  0
   36.0594   11.0724  -17.0078 C   0  0  0  0  0  0  0  0  0  0  0  0
   35.6557    9.6033  -16.9483 C   0  0  0  0  0  0  0  0  0  0  0  0
   35.6417   11.8116  -15.7697 C   0  0  0  0  0  0  0  0  0  0  0  0
   35.3285   11.6222  -18.0770 O   0  0  0  0  0  0  0  0  0  0  0  0
   34.5470   11.0640  -18.2854 H   0  0  0  0  0  0  0  0  0  0  0  0
 11 12  1  0  0  0
 12 13  1  0  0  0
 13 14  1  0  0  0
 14 15  1  0  0  0
 15 16  1  0  0  0
 16 17  1  0  0  0
 17 18  1  0  0  0
 18 19  2  0  0  0
 19 20  1  0  0  0
 20 21  2  0  0  0
 21 22  1  0  0  0
 21 23  1  0  0  0
 23 24  2  0  0  0
 14  1  1  0  0  0
  1  2  2  0  0  0
  2  3  1  0  0  0
  3  4  2  0  0  0
  4  5  1  0  0  0
  5  6  2  0  0  0
  6  7  1  0  0  0
  7  8  2  0  0  0
  8  9  1  0  0  0
  5 25  1  0  0  0
 25 26  1  0  0  0
 25 27  1  0  0  0
 25 28  1  0  0  0
 17 12  1  0  0  0
 24 18  1  0  0  0
  9  1  1  0  0  0
  8  3  1  0  0  0
  9 10  1  0  0  0
 28 29  1  0  0  0
M  END
> <minimizedAffinity>
-7.16487

> <CNNscore>
0.3371546566

> <CNNaffinity>
6.3450298309

> <CNN_VS>
2.1392562389

> <CNNaffinity_variance>
0.0589558110

$$$$
[H]OC(c1c([H])c([H])c2c(nc(N3C([H])([H])C([H])([H])N(c4c([H])c([H])c(F)c([H])c4[H])[C@]([H])(C([H])([H])[H])C3([H])[H])n2[H])c1[H])(C([H])([H])[H])C([H])([H])[H]


 29 32  0  0  0  0  0  0  0  0999 V2000
   36.7774   14.8277  -10.1778 C   0  0  0  0  0  0  0  0  0  0  0  0
   35.7006   14.4757   -9.3961 N   0  0  0  0  0  0  0  0  0  0  0  0
   35.9870   14.6683   -8.1187 C   0  0  0  0  0  0  0  0  0  0  0  0
   35.2735   14.4389   -6.9543 C   0  0  0  0  0  0  0  0  0  0  0  0
   35.8225   14.6875   -5.7150 C   0  0  0  0  0  0  0  0  0  0  0  0
   37.1035   15.1757   -5.6281 C   0  0  0  0  0  0  0  0  0  0  0  0
   37.8401   15.4149   -6.7827 C   0  0  0  0  0  0  0  0  0  0  0  0
   37.2725   15.1582   -8.0241 C   0  0  0  0  0  0  0  0  0  0  0  0
   37.7074   15.2381   -9.3160 N   0  0  0  0  0  0  0  0  0  0  0  0
   38.6586   15.5827   -9.5747 H   0  0  0  0  0  0  0  0  0  0  0  0
   38.3450   13.3329  -14.7371 C   0  0  0  0  0  0  0  0  0  0  0  0
   37.3417   13.9423  -13.8011 C   0  0  0  0  0  0  0  0  0  0  0  0
   37.7039   13.8121  -12.3309 C   0  0  0  0  0  0  0  0  0  0  0  0
   36.7886   14.6183  -11.5865 N   0  0  0  0  0  0  0  0  0  0  0  0
   35.6668   15.2828  -12.3306 C   0  0  0  0  0  0  0  0  0  0  0  0
   34.9889   14.2118  -13.1485 C   0  0  0  0  0  0  0  0  0  0  0  0
   36.0032   13.5531  -14.0160 N   0  0  0  0  0  0  0  0  0  0  0  0
   35.4565   12.6329  -14.9278 C   0  0  0  0  0  0  0  0  0  0  0  0
   36.1106   12.2076  -16.0339 C   0  0  0  0  0  0  0  0  0  0  0  0
   35.5052   11.2679  -16.8523 C   0  0  0  0  0  0  0  0  0  0  0  0
   34.2693   10.7839  -16.5448 C   0  0  0  0  0  0  0  0  0  0  0  0
   33.6338    9.8658  -17.2943 F   0  0  0  0  0  0  0  0  0  0  0  0
   33.5903   11.2211  -15.4069 C   0  0  0  0  0  0  0  0  0  0  0  0
   34.1836   12.1490  -14.5932 C   0  0  0  0  0  0  0  0  0  0  0  0
   35.0343   14.3765   -4.5175 C   0  0  0  0  0  0  0  0  0  0  0  0
   35.8177   13.4943   -3.5517 C   0  0  0  0  0  0  0  0  0  0  0  0
   34.5291   15.6201   -3.8454 C   0  0  0  0  0  0  0  0  0  0  0  0
   33.9038   13.6237   -4.8849 O   0  0  0  0  0  0  0  0  0  0  0  0
   33.7279   12.9182   -4.2238 H   0  0  0  0  0  0  0  0  0  0  0  0
 11 12  1  0  0  0
 12 13  1  0  0  0
 13 14  1  0  0  0
 14 15  1  0  0  0
 15 16  1  0  0  0
 16 17  1  0  0  0
 17 18  1  0  0  0
 18 19  2  0  0  0
 19 20  1  0  0  0
 20 21  2  0  0  0
 21 22  1  0  0  0
 21 23  1  0  0  0
 23 24  2  0  0  0
 14  1  1  0  0  0
  1  2  2  0  0  0
  2  3  1  0  0  0
  3  4  2  0  0  0
  4  5  1  0  0  0
  5  6  2  0  0  0
  6  7  1  0  0  0
  7  8  2  0  0  0
  8  9  1  0  0  0
  5 25  1  0  0  0
 25 26  1  0  0  0
 25 27  1  0  0  0
 25 28  1  0  0  0
 17 12  1  0  0  0
 24 18  1  0  0  0
  9  1  1  0  0  0
  8  3  1  0  0  0
  9 10  1  0  0  0
 28 29  1  0  0  0
M  END
> <minimizedAffinity>
-8.43007

> <CNNscore>
0.2438135296

> <CNNaffinity>
5.5640053749

> <CNN_VS>
1.3565797806

> <CNNaffinity_variance>
0.3334699273

$$$$
[H]OC(c1c([H])c([H])c2c(nc(N3C([H])([H])C([H])([H])N(c4c([H])c([H])c(F)c([H])c4[H])[C@]([H])(C([H])([H])[H])C3([H])[H])n2[H])c1[H])(C([H])([H])[H])C([H])([H])[H]


 29 32  0  0  0  0  0  0  0  0999 V2000
   42.4599   13.3375  -14.6836 C   0  0  0  0  0  0  0  0  0  0  0  0
   41.3151   13.5265  -13.9433 N   0  0  0  0  0  0  0  0  0  0  0  0
   40.2598   13.1221  -14.6315 C   0  0  0  0  0  0  0  0  0  0  0  0
   38.9026   13.1320  -14.3565 C   0  0  0  0  0  0  0  0  0  0  0  0
   37.9801   12.6845  -15.2772 C   0  0  0  0  0  0  0  0  0  0  0  0
   38.4115   12.2155  -16.4941 C   0  0  0  0  0  0  0  0  0  0  0  0
   39.7689   12.1948  -16.7938 C   0  0  0  0  0  0  0  0  0  0  0  0
   40.6857   12.6502  -15.8552 C   0  0  0  0  0  0  0  0  0  0  0  0
   42.0424   12.8039  -15.8311 N   0  0  0  0  0  0  0  0  0  0  0  0
   42.6592   12.5292  -16.6276 H   0  0  0  0  0  0  0  0  0  0  0  0
   47.3058   14.7457  -14.8011 C   0  0  0  0  0  0  0  0  0  0  0  0
   45.9922   14.5299  -14.1070 C   0  0  0  0  0  0  0  0  0  0  0  0
   44.8465   14.1758  -15.0406 C   0  0  0  0  0  0  0  0  0  0  0  0
   43.7338   13.7873  -14.2325 N   0  0  0  0  0  0  0  0  0  0  0  0
   43.8658   13.9124  -12.7424 C   0  0  0  0  0  0  0  0  0  0  0  0
   44.3458   15.3146  -12.4614 C   0  0  0  0  0  0  0  0  0  0  0  0
   45.6056   15.5536  -13.2172 N   0  0  0  0  0  0  0  0  0  0  0  0
   46.2207   16.7822  -12.9183 C   0  0  0  0  0  0  0  0  0  0  0  0
   47.3640   16.8836  -12.2009 C   0  0  0  0  0  0  0  0  0  0  0  0
   47.9164   18.1367  -11.9915 C   0  0  0  0  0  0  0  0  0  0  0  0
   47.3128   19.2471  -12.5006 C   0  0  0  0  0  0  0  0  0  0  0  0
   47.8039   20.4884  -12.3385 F   0  0  0  0  0  0  0  0  0  0  0  0
   46.1328   19.1475  -13.2387 C   0  0  0  0  0  0  0  0  0  0  0  0
   45.5822   17.9118  -13.4502 C   0  0  0  0  0  0  0  0  0  0  0  0
   36.5535   12.7673  -14.9459 C   0  0  0  0  0  0  0  0  0  0  0  0
   35.7029   12.0176  -15.9654 C   0  0  0  0  0  0  0  0  0  0  0  0
   36.2793   12.2999  -13.5459 C   0  0  0  0  0  0  0  0  0  0  0  0
   36.1343   14.1086  -15.0173 O   0  0  0  0  0  0  0  0  0  0  0  0
   35.2391   14.1707  -15.4178 H   0  0  0  0  0  0  0  0  0  0  0  0
 11 12  1  0  0  0
 12 13  1  0  0  0
 13 14  1  0  0  0
 14 15  1  0  0  0
 15 16  1  0  0  0
 16 17  1  0  0  0
 17 18  1  0  0  0
 18 19  2  0  0  0
 19 20  1  0  0  0
 20 21  2  0  0  0
 21 22  1  0  0  0
 21 23  1  0  0  0
 23 24  2  0  0  0
 14  1  1  0  0  0
  1  2  2  0  0  0
  2  3  1  0  0  0
  3  4  2  0  0  0
  4  5  1  0  0  0
  5  6  2  0  0  0
  6  7  1  0  0  0
  7  8  2  0  0  0
  8  9  1  0  0  0
  5 25  1  0  0  0
 25 26  1  0  0  0
 25 27  1  0  0  0
 25 28  1  0  0  0
 17 12  1  0  0  0
 24 18  1  0  0  0
  9  1  1  0  0  0
  8  3  1  0  0  0
  9 10  1  0  0  0
 28 29  1  0  0  0
M  END
> <minimizedAffinity>
-7.25782

> <CNNscore>
0.2186284512

> <CNNaffinity>
5.8484163284

> <CNN_VS>
1.2786302567

> <CNNaffinity_variance>
0.3153621852

$$$$
[H]OC(c1c([H])c([H])c2c(nc(N3C([H])([H])C([H])([H])N(c4c([H])c([H])c(F)c([H])c4[H])[C@]([H])(C([H])([H])[H])C3([H])[H])n2[H])c1[H])(C([H])([H])[H])C([H])([H])[H]


 29 32  0  0  0  0  0  0  0  0999 V2000
   40.5058   13.0246  -15.1111 C   0  0  0  0  0  0  0  0  0  0  0  0
   39.4635   13.2347  -14.2371 N   0  0  0  0  0  0  0  0  0  0  0  0
   38.3382   12.7698  -14.7553 C   0  0  0  0  0  0  0  0  0  0  0  0
   37.0293   12.7694  -14.3035 C   0  0  0  0  0  0  0  0  0  0  0  0
   36.0062   12.2504  -15.0671 C   0  0  0  0  0  0  0  0  0  0  0  0
   36.2865   11.7188  -16.3022 C   0  0  0  0  0  0  0  0  0  0  0  0
   37.5928   11.7069  -16.7780 C   0  0  0  0  0  0  0  0  0  0  0  0
   38.6123   12.2348  -15.9964 C   0  0  0  0  0  0  0  0  0  0  0  0
   39.9557   12.4161  -16.1613 N   0  0  0  0  0  0  0  0  0  0  0  0
   40.4697   12.1068  -17.0160 H   0  0  0  0  0  0  0  0  0  0  0  0
   44.3097   15.4002  -12.7946 C   0  0  0  0  0  0  0  0  0  0  0  0
   43.7333   14.5457  -13.8862 C   0  0  0  0  0  0  0  0  0  0  0  0
   42.2885   14.1342  -13.6563 C   0  0  0  0  0  0  0  0  0  0  0  0
   41.8153   13.5250  -14.8591 N   0  0  0  0  0  0  0  0  0  0  0  0
   42.7943   13.3183  -15.9782 C   0  0  0  0  0  0  0  0  0  0  0  0
   43.9933   12.6189  -15.3877 C   0  0  0  0  0  0  0  0  0  0  0  0
   44.5126   13.4284  -14.2518 N   0  0  0  0  0  0  0  0  0  0  0  0
   45.7182   12.9429  -13.7152 C   0  0  0  0  0  0  0  0  0  0  0  0
   45.7810   12.2014  -12.5846 C   0  0  0  0  0  0  0  0  0  0  0  0
   47.0127   11.7344  -12.1554 C   0  0  0  0  0  0  0  0  0  0  0  0
   48.1408   12.0216  -12.8634 C   0  0  0  0  0  0  0  0  0  0  0  0
   49.3626   11.5909  -12.5029 F   0  0  0  0  0  0  0  0  0  0  0  0
   48.0811   12.7877  -14.0282 C   0  0  0  0  0  0  0  0  0  0  0  0
   46.8667   13.2514  -14.4584 C   0  0  0  0  0  0  0  0  0  0  0  0
   34.6338   12.3249  -14.5543 C   0  0  0  0  0  0  0  0  0  0  0  0
   34.0877   13.7462  -14.6361 C   0  0  0  0  0  0  0  0  0  0  0  0
   33.7289   11.3440  -15.2418 C   0  0  0  0  0  0  0  0  0  0  0  0
   34.6276   11.9957  -13.1863 O   0  0  0  0  0  0  0  0  0  0  0  0
   34.0054   12.5753  -12.6936 H   0  0  0  0  0  0  0  0  0  0  0  0
 11 12  1  0  0  0
 12 13  1  0  0  0
 13 14  1  0  0  0
 14 15  1  0  0  0
 15 16  1  0  0  0
 16 17  1  0  0  0
 17 18  1  0  0  0
 18 19  2  0  0  0
 19 20  1  0  0  0
 20 21  2  0  0  0
 21 22  1  0  0  0
 21 23  1  0  0  0
 23 24  2  0  0  0
 14  1  1  0  0  0
  1  2  2  0  0  0
  2  3  1  0  0  0
  3  4  2  0  0  0
  4  5  1  0  0  0
  5  6  2  0  0  0
  6  7  1  0  0  0
  7  8  2  0  0  0
  8  9  1  0  0  0
  5 25  1  0  0  0
 25 26  1  0  0  0
 25 27  1  0  0  0
 25 28  1  0  0  0
 17 12  1  0  0  0
 24 18  1  0  0  0
  9  1  1  0  0  0
  8  3  1  0  0  0
  9 10  1  0  0  0
 28 29  1  0  0  0
M  END
> <minimizedAffinity>
-7.83278

> <CNNscore>
0.2101216614

> <CNNaffinity>
6.0813150406

> <CNN_VS>
1.2778160572

> <CNNaffinity_variance>
0.0440204702

$$$$
[H]OC(c1c([H])c([H])c2c(nc(N3C([H])([H])C([H])([H])N(c4c([H])c([H])c(F)c([H])c4[H])[C@]([H])(C([H])([H])[H])C3([H])[H])n2[H])c1[H])(C([H])([H])[H])C([H])([H])[H]


 29 32  0  0  0  0  0  0  0  0999 V2000
   42.8488   12.8993  -15.6407 C   0  0  0  0  0  0  0  0  0  0  0  0
   44.0838   12.6309  -16.1858 N   0  0  0  0  0  0  0  0  0  0  0  0
   45.0351   12.9085  -15.3089 C   0  0  0  0  0  0  0  0  0  0  0  0
   46.4169   12.8500  -15.3766 C   0  0  0  0  0  0  0  0  0  0  0  0
   47.2050   13.2442  -14.3171 C   0  0  0  0  0  0  0  0  0  0  0  0
   46.6117   13.7033  -13.1665 C   0  0  0  0  0  0  0  0  0  0  0  0
   45.2261   13.7709  -13.0737 C   0  0  0  0  0  0  0  0  0  0  0  0
   44.4461   13.3706  -14.1509 C   0  0  0  0  0  0  0  0  0  0  0  0
   43.1056   13.3414  -14.4100 N   0  0  0  0  0  0  0  0  0  0  0  0
   42.3860   13.6347  -13.7126 H   0  0  0  0  0  0  0  0  0  0  0  0
   39.4704   11.1441  -18.9550 C   0  0  0  0  0  0  0  0  0  0  0  0
   39.9203   12.0847  -17.8748 C   0  0  0  0  0  0  0  0  0  0  0  0
   41.2486   11.7106  -17.2382 C   0  0  0  0  0  0  0  0  0  0  0  0
   41.6491   12.7976  -16.4016 N   0  0  0  0  0  0  0  0  0  0  0  0
   40.6985   13.9474  -16.2348 C   0  0  0  0  0  0  0  0  0  0  0  0
   39.3635   13.3597  -15.8503 C   0  0  0  0  0  0  0  0  0  0  0  0
   38.9589   12.3660  -16.8819 N   0  0  0  0  0  0  0  0  0  0  0  0
   37.6606   11.8578  -16.7000 C   0  0  0  0  0  0  0  0  0  0  0  0
   37.1529   10.8409  -17.4350 C   0  0  0  0  0  0  0  0  0  0  0  0
   35.8760   10.3822  -17.1551 C   0  0  0  0  0  0  0  0  0  0  0  0
   35.1458   10.9511  -16.1553 C   0  0  0  0  0  0  0  0  0  0  0  0
   33.9055   10.5454  -15.8307 F   0  0  0  0  0  0  0  0  0  0  0  0
   35.6642   12.0012  -15.3966 C   0  0  0  0  0  0  0  0  0  0  0  0
   36.9261   12.4585  -15.6674 C   0  0  0  0  0  0  0  0  0  0  0  0
   48.6637   13.2060  -14.4687 C   0  0  0  0  0  0  0  0  0  0  0  0
   49.1307   14.1428  -15.5774 C   0  0  0  0  0  0  0  0  0  0  0  0
   49.3655   13.4897  -13.1724 C   0  0  0  0  0  0  0  0  0  0  0  0
   49.0579   11.9170  -14.8721 O   0  0  0  0  0  0  0  0  0  0  0  0
   49.7781   11.9679  -15.5387 H   0  0  0  0  0  0  0  0  0  0  0  0
 11 12  1  0  0  0
 12 13  1  0  0  0
 13 14  1  0  0  0
 14 15  1  0  0  0
 15 16  1  0  0  0
 16 17  1  0  0  0
 17 18  1  0  0  0
 18 19  2  0  0  0
 19 20  1  0  0  0
 20 21  2  0  0  0
 21 22  1  0  0  0
 21 23  1  0  0  0
 23 24  2  0  0  0
 14  1  1  0  0  0
  1  2  2  0  0  0
  2  3  1  0  0  0
  3  4  2  0  0  0
  4  5  1  0  0  0
  5  6  2  0  0  0
  6  7  1  0  0  0
  7  8  2  0  0  0
  8  9  1  0  0  0
  5 25  1  0  0  0
 25 26  1  0  0  0
 25 27  1  0  0  0
 25 28  1  0  0  0
 17 12  1  0  0  0
 24 18  1  0  0  0
  9  1  1  0  0  0
  8  3  1  0  0  0
  9 10  1  0  0  0
 28 29  1  0  0  0
M  END
> <minimizedAffinity>
-7.88594

> <CNNscore>
0.1684515476

> <CNNaffinity>
6.2446794510

> <CNN_VS>
1.0519258976

> <CNNaffinity_variance>
0.0561112873

$$$$
[H]OC(c1c([H])c([H])c2c(nc(N3C([H])([H])C([H])([H])N(c4c([H])c([H])c(F)c([H])c4[H])[C@]([H])(C([H])([H])[H])C3([H])[H])n2[H])c1[H])(C([H])([H])[H])C([H])([H])[H]


 29 32  0  0  0  0  0  0  0  0999 V2000
   42.5995   13.4983  -13.7065 C   0  0  0  0  0  0  0  0  0  0  0  0
   43.9007   13.1309  -13.9637 N   0  0  0  0  0  0  0  0  0  0  0  0
   44.6407   13.2989  -12.8797 C   0  0  0  0  0  0  0  0  0  0  0  0
   45.9903   13.1156  -12.6295 C   0  0  0  0  0  0  0  0  0  0  0  0
   46.5392   13.4103  -11.4004 C   0  0  0  0  0  0  0  0  0  0  0  0
   45.7340   13.8941  -10.3982 C   0  0  0  0  0  0  0  0  0  0  0  0
   44.3758   14.0863  -10.6244 C   0  0  0  0  0  0  0  0  0  0  0  0
   43.8383   13.7852  -11.8692 C   0  0  0  0  0  0  0  0  0  0  0  0
   42.5978   13.8852  -12.4313 N   0  0  0  0  0  0  0  0  0  0  0  0
   41.7623   14.2265  -11.9062 H   0  0  0  0  0  0  0  0  0  0  0  0
   40.3724   12.7610  -18.1759 C   0  0  0  0  0  0  0  0  0  0  0  0
   40.3829   13.2190  -16.7462 C   0  0  0  0  0  0  0  0  0  0  0  0
   41.6414   12.8425  -15.9820 C   0  0  0  0  0  0  0  0  0  0  0  0
   41.6065   13.5253  -14.7272 N   0  0  0  0  0  0  0  0  0  0  0  0
   40.3772   14.3176  -14.3886 C   0  0  0  0  0  0  0  0  0  0  0  0
   39.1952   13.4054  -14.6040 C   0  0  0  0  0  0  0  0  0  0  0  0
   39.2337   12.8873  -15.9988 N   0  0  0  0  0  0  0  0  0  0  0  0
   38.0990   12.1377  -16.3558 C   0  0  0  0  0  0  0  0  0  0  0  0
   38.1318   11.1252  -17.2536 C   0  0  0  0  0  0  0  0  0  0  0  0
   36.9686   10.4180  -17.5110 C   0  0  0  0  0  0  0  0  0  0  0  0
   35.8115   10.7423  -16.8689 C   0  0  0  0  0  0  0  0  0  0  0  0
   34.6533   10.0891  -17.0697 F   0  0  0  0  0  0  0  0  0  0  0  0
   35.7724   11.7868  -15.9444 C   0  0  0  0  0  0  0  0  0  0  0  0
   36.9189   12.4890  -15.6846 C   0  0  0  0  0  0  0  0  0  0  0  0
   47.9845   13.2422  -11.2132 C   0  0  0  0  0  0  0  0  0  0  0  0
   48.5347   12.1372  -12.1084 C   0  0  0  0  0  0  0  0  0  0  0  0
   48.7249   14.5333  -11.4092 C   0  0  0  0  0  0  0  0  0  0  0  0
   48.2391   12.8222   -9.8947 O   0  0  0  0  0  0  0  0  0  0  0  0
   48.9540   12.1482   -9.8780 H   0  0  0  0  0  0  0  0  0  0  0  0
 11 12  1  0  0  0
 12 13  1  0  0  0
 13 14  1  0  0  0
 14 15  1  0  0  0
 15 16  1  0  0  0
 16 17  1  0  0  0
 17 18  1  0  0  0
 18 19  2  0  0  0
 19 20  1  0  0  0
 20 21  2  0  0  0
 21 22  1  0  0  0
 21 23  1  0  0  0
 23 24  2  0  0  0
 14  1  1  0  0  0
  1  2  2  0  0  0
  2  3  1  0  0  0
  3  4  2  0  0  0
  4  5  1  0  0  0
  5  6  2  0  0  0
  6  7  1  0  0  0
  7  8  2  0  0  0
  8  9  1  0  0  0
  5 25  1  0  0  0
 25 26  1  0  0  0
 25 27  1  0  0  0
 25 28  1  0  0  0
 17 12  1  0  0  0
 24 18  1  0  0  0
  9  1  1  0  0  0
  8  3  1  0  0  0
  9 10  1  0  0  0
 28 29  1  0  0  0
M  END
> <minimizedAffinity>
-7.83760

> <CNNscore>
0.1414470226

> <CNNaffinity>
5.7015619278

> <CNN_VS>
0.8064689636

> <CNNaffinity_variance>
0.0519180000

$$$$
[H]OC(c1c([H])c([H])c2c(nc(N3C([H])([H])C([H])([H])N(c4c([H])c([H])c(F)c([H])c4[H])[C@]([H])(C([H])([H])[H])C3([H])[H])n2[H])c1[H])(C([H])([H])[H])C([H])([H])[H]


 29 32  0  0  0  0  0  0  0  0999 V2000
   36.1863   14.7181  -10.2230 C   0  0  0  0  0  0  0  0  0  0  0  0
   37.0125   14.3423   -9.1883 N   0  0  0  0  0  0  0  0  0  0  0  0
   36.3928   14.5095   -8.0312 C   0  0  0  0  0  0  0  0  0  0  0  0
   36.7921   14.3191   -6.7190 C   0  0  0  0  0  0  0  0  0  0  0  0
   35.9562   14.6146   -5.6640 C   0  0  0  0  0  0  0  0  0  0  0  0
   34.6984   15.1064   -5.9146 C   0  0  0  0  0  0  0  0  0  0  0  0
   34.2738   15.3057   -7.2234 C   0  0  0  0  0  0  0  0  0  0  0  0
   35.1288   15.0037   -8.2755 C   0  0  0  0  0  0  0  0  0  0  0  0
   35.0562   15.1092   -9.6350 N   0  0  0  0  0  0  0  0  0  0  0  0
   34.2069   15.4571  -10.1330 H   0  0  0  0  0  0  0  0  0  0  0  0
   39.3204   14.8354  -14.1781 C   0  0  0  0  0  0  0  0  0  0  0  0
   37.9580   14.7486  -13.5533 C   0  0  0  0  0  0  0  0  0  0  0  0
   37.9760   14.5939  -12.0416 C   0  0  0  0  0  0  0  0  0  0  0  0
   36.6343   14.7476  -11.5746 N   0  0  0  0  0  0  0  0  0  0  0  0
   35.5443   14.8972  -12.5959 C   0  0  0  0  0  0  0  0  0  0  0  0
   35.7071   13.7651  -13.5794 C   0  0  0  0  0  0  0  0  0  0  0  0
   37.0870   13.8044  -14.1358 N   0  0  0  0  0  0  0  0  0  0  0  0
   37.3064   12.8791  -15.1715 C   0  0  0  0  0  0  0  0  0  0  0  0
   38.5216   12.3515  -15.4490 C   0  0  0  0  0  0  0  0  0  0  0  0
   38.6313   11.4158  -16.4649 C   0  0  0  0  0  0  0  0  0  0  0  0
   37.5299   11.0376  -17.1720 C   0  0  0  0  0  0  0  0  0  0  0  0
   37.5705   10.1293  -18.1628 F   0  0  0  0  0  0  0  0  0  0  0  0
   36.2755   11.5807  -16.8910 C   0  0  0  0  0  0  0  0  0  0  0  0
   36.1601   12.5051  -15.8875 C   0  0  0  0  0  0  0  0  0  0  0  0
   36.4557   14.4385   -4.2960 C   0  0  0  0  0  0  0  0  0  0  0  0
   37.9798   14.4116   -4.2612 C   0  0  0  0  0  0  0  0  0  0  0  0
   35.8991   15.4744   -3.3628 C   0  0  0  0  0  0  0  0  0  0  0  0
   36.0443   13.1853   -3.8060 O   0  0  0  0  0  0  0  0  0  0  0  0
   36.7619   12.7661   -3.2816 H   0  0  0  0  0  0  0  0  0  0  0  0
 11 12  1  0  0  0
 12 13  1  0  0  0
 13 14  1  0  0  0
 14 15  1  0  0  0
 15 16  1  0  0  0
 16 17  1  0  0  0
 17 18  1  0  0  0
 18 19  2  0  0  0
 19 20  1  0  0  0
 20 21  2  0  0  0
 21 22  1  0  0  0
 21 23  1  0  0  0
 23 24  2  0  0  0
 14  1  1  0  0  0
  1  2  2  0  0  0
  2  3  1  0  0  0
  3  4  2  0  0  0
  4  5  1  0  0  0
  5  6  2  0  0  0
  6  7  1  0  0  0
  7  8  2  0  0  0
  8  9  1  0  0  0
  5 25  1  0  0  0
 25 26  1  0  0  0
 25 27  1  0  0  0
 25 28  1  0  0  0
 17 12  1  0  0  0
 24 18  1  0  0  0
  9  1  1  0  0  0
  8  3  1  0  0  0
  9 10  1  0  0  0
 28 29  1  0  0  0
M  END
> <minimizedAffinity>
-8.61130

> <CNNscore>
0.1040252298

> <CNNaffinity>
5.2961440086

> <CNN_VS>
0.5509325862

> <CNNaffinity_variance>
0.2290836275

$$$$
[H]OC(c1c([H])c([H])c2c(nc(N3C([H])([H])C([H])([H])N(c4c([H])c([H])c(F)c([H])c4[H])[C@]([H])(C([H])([H])[H])C3([H])[H])n2[H])c1[H])(C([H])([H])[H])C([H])([H])[H]


 29 32  0  0  0  0  0  0  0  0999 V2000
   41.2485   13.5383  -14.6896 C   0  0  0  0  0  0  0  0  0  0  0  0
   40.9155   12.8166  -15.8133 N   0  0  0  0  0  0  0  0  0  0  0  0
   39.6160   12.5673  -15.8219 C   0  0  0  0  0  0  0  0  0  0  0  0
   38.8040   11.8605  -16.6929 C   0  0  0  0  0  0  0  0  0  0  0  0
   37.4562   11.7049  -16.4516 C   0  0  0  0  0  0  0  0  0  0  0  0
   36.9016   12.2629  -15.3257 C   0  0  0  0  0  0  0  0  0  0  0  0
   37.6957   12.9777  -14.4362 C   0  0  0  0  0  0  0  0  0  0  0  0
   39.0526   13.1247  -14.6935 C   0  0  0  0  0  0  0  0  0  0  0  0
   40.0985   13.7088  -14.0380 N   0  0  0  0  0  0  0  0  0  0  0  0
   39.9875   14.2226  -13.1358 H   0  0  0  0  0  0  0  0  0  0  0  0
   45.2298   15.2520  -12.1028 C   0  0  0  0  0  0  0  0  0  0  0  0
   44.5925   14.5530  -13.2687 C   0  0  0  0  0  0  0  0  0  0  0  0
   43.1003   14.3127  -13.1095 C   0  0  0  0  0  0  0  0  0  0  0  0
   42.5997   13.8510  -14.3657 N   0  0  0  0  0  0  0  0  0  0  0  0
   43.5861   13.5984  -15.4689 C   0  0  0  0  0  0  0  0  0  0  0  0
   44.6664   12.7148  -14.8965 C   0  0  0  0  0  0  0  0  0  0  0  0
   45.2400   13.3735  -13.6914 N   0  0  0  0  0  0  0  0  0  0  0  0
   46.3554   12.7044  -13.1574 C   0  0  0  0  0  0  0  0  0  0  0  0
   47.6268   12.9529  -13.5499 C   0  0  0  0  0  0  0  0  0  0  0  0
   48.6646   12.2701  -12.9365 C   0  0  0  0  0  0  0  0  0  0  0  0
   48.4036   11.3620  -11.9549 C   0  0  0  0  0  0  0  0  0  0  0  0
   49.3672   10.6742  -11.3170 F   0  0  0  0  0  0  0  0  0  0  0  0
   47.0944   11.1008  -11.5488 C   0  0  0  0  0  0  0  0  0  0  0  0
   46.0643   11.7730  -12.1503 C   0  0  0  0  0  0  0  0  0  0  0  0
   36.6590   10.9026  -17.3859 C   0  0  0  0  0  0  0  0  0  0  0  0
   35.4011   10.3595  -16.7169 C   0  0  0  0  0  0  0  0  0  0  0  0
   36.3347   11.6652  -18.6377 C   0  0  0  0  0  0  0  0  0  0  0  0
   37.3974    9.7708  -17.7778 O   0  0  0  0  0  0  0  0  0  0  0  0
   36.8161    8.9805  -17.8336 H   0  0  0  0  0  0  0  0  0  0  0  0
 11 12  1  0  0  0
 12 13  1  0  0  0
 13 14  1  0  0  0
 14 15  1  0  0  0
 15 16  1  0  0  0
 16 17  1  0  0  0
 17 18  1  0  0  0
 18 19  2  0  0  0
 19 20  1  0  0  0
 20 21  2  0  0  0
 21 22  1  0  0  0
 21 23  1  0  0  0
 23 24  2  0  0  0
 14  1  1  0  0  0
  1  2  2  0  0  0
  2  3  1  0  0  0
  3  4  2  0  0  0
  4  5  1  0  0  0
  5  6  2  0  0  0
  6  7  1  0  0  0
  7  8  2  0  0  0
  8  9  1  0  0  0
  5 25  1  0  0  0
 25 26  1  0  0  0
 25 27  1  0  0  0
 25 28  1  0  0  0
 17 12  1  0  0  0
 24 18  1  0  0  0
  9  1  1  0  0  0
  8  3  1  0  0  0
  9 10  1  0  0  0
 28 29  1  0  0  0
M  END
> <minimizedAffinity>
-6.66647

> <CNNscore>
0.0797633305

> <CNNaffinity>
5.7050957680

> <CNN_VS>
0.4550574422

> <CNNaffinity_variance>
0.2208672762

$$$$
[H]OC(c1c([H])c([H])c2c(nc(N3C([H])([H])C([H])([H])N(c4c([H])c([H])c(F)c([H])c4[H])[C@]([H])(C([H])([H])[H])C3([H])[H])n2[H])c1[H])(C([H])([H])[H])C([H])([H])[H]


 29 32  0  0  0  0  0  0  0  0999 V2000
   37.5483   15.0106  -10.6580 C   0  0  0  0  0  0  0  0  0  0  0  0
   38.7722   15.3790  -10.1475 N   0  0  0  0  0  0  0  0  0  0  0  0
   38.6374   15.7774   -8.8929 C   0  0  0  0  0  0  0  0  0  0  0  0
   39.5389   16.2726   -7.9657 C   0  0  0  0  0  0  0  0  0  0  0  0
   39.1328   16.6676   -6.7095 C   0  0  0  0  0  0  0  0  0  0  0  0
   37.8071   16.5675   -6.3643 C   0  0  0  0  0  0  0  0  0  0  0  0
   36.8826   16.0729   -7.2774 C   0  0  0  0  0  0  0  0  0  0  0  0
   37.3080   15.6799   -8.5398 C   0  0  0  0  0  0  0  0  0  0  0  0
   36.6878   15.2023   -9.6587 N   0  0  0  0  0  0  0  0  0  0  0  0
   35.6612   15.0168   -9.7034 H   0  0  0  0  0  0  0  0  0  0  0  0
   38.3979   12.7992  -15.1152 C   0  0  0  0  0  0  0  0  0  0  0  0
   37.5931   13.6506  -14.1764 C   0  0  0  0  0  0  0  0  0  0  0  0
   38.0912   13.6346  -12.7407 C   0  0  0  0  0  0  0  0  0  0  0  0
   37.3789   14.6450  -12.0241 N   0  0  0  0  0  0  0  0  0  0  0  0
   36.2832   15.3793  -12.7410 C   0  0  0  0  0  0  0  0  0  0  0  0
   35.3826   14.3346  -13.3517 C   0  0  0  0  0  0  0  0  0  0  0  0
   36.1990   13.4407  -14.2177 N   0  0  0  0  0  0  0  0  0  0  0  0
   35.4379   12.5143  -14.9521 C   0  0  0  0  0  0  0  0  0  0  0  0
   34.2425   12.0383  -14.5319 C   0  0  0  0  0  0  0  0  0  0  0  0
   33.5472   11.1576  -15.3445 C   0  0  0  0  0  0  0  0  0  0  0  0
   34.0644   10.7781  -16.5465 C   0  0  0  0  0  0  0  0  0  0  0  0
   33.4345    9.9337  -17.3824 F   0  0  0  0  0  0  0  0  0  0  0  0
   35.2975   11.2644  -16.9827 C   0  0  0  0  0  0  0  0  0  0  0  0
   35.9892   12.1361  -16.1848 C   0  0  0  0  0  0  0  0  0  0  0  0
   40.1274   17.2307   -5.7898 C   0  0  0  0  0  0  0  0  0  0  0  0
   39.7355   16.9927   -4.3356 C   0  0  0  0  0  0  0  0  0  0  0  0
   41.5081   16.7187   -6.0818 C   0  0  0  0  0  0  0  0  0  0  0  0
   40.1695   18.6285   -5.9459 O   0  0  0  0  0  0  0  0  0  0  0  0
   40.2687   19.0713   -5.0743 H   0  0  0  0  0  0  0  0  0  0  0  0
 11 12  1  0  0  0
 12 13  1  0  0  0
 13 14  1  0  0  0
 14 15  1  0  0  0
 15 16  1  0  0  0
 16 17  1  0  0  0
 17 18  1  0  0  0
 18 19  2  0  0  0
 19 20  1  0  0  0
 20 21  2  0  0  0
 21 22  1  0  0  0
 21 23  1  0  0  0
 23 24  2  0  0  0
 14  1  1  0  0  0
  1  2  2  0  0  0
  2  3  1  0  0  0
  3  4  2  0  0  0
  4  5  1  0  0  0
  5  6  2  0  0  0
  6  7  1  0  0  0
  7  8  2  0  0  0
  8  9  1  0  0  0
  5 25  1  0  0  0
 25 26  1  0  0  0
 25 27  1  0  0  0
 25 28  1  0  0  0
 17 12  1  0  0  0
 24 18  1  0  0  0
  9  1  1  0  0  0
  8  3  1  0  0  0
  9 10  1  0  0  0
 28 29  1  0  0  0
M  END
> <minimizedAffinity>
-7.56785

> <CNNscore>
0.0773305371

> <CNNaffinity>
5.4794659615

> <CNN_VS>
0.4237300456

> <CNNaffinity_variance>
0.1922510862

$$$$
