[H]c1c([H])c([H])c2c(c1[H])c1c3c(c4c5c([H])c([H])c([H])c([H])c5n5c4c1n2[C@@]1([H])O[C@]5(C([H])([H])[H])[C@@]([H])(OC([H])([H])[H])[C@@]([H])(N([H])C([H])([H])[H])C1([H])[H])C([H])([H])N([H])C3=O


 37 44  0  0  0  0  0  0  0  0999 V2000
   35.6505   16.1040  -11.7998 C   0  0  0  0  0  0  0  0  0  0  0  0
   35.0594   14.8460  -12.2870 C   0  0  0  0  0  0  0  0  0  0  0  0
   35.8146   13.6076  -11.9309 C   0  0  0  0  0  0  0  0  0  0  0  0
   36.7569   13.6630  -11.0286 O   0  0  0  0  0  0  0  0  0  0  0  0
   37.5631   14.7562  -10.8094 C   0  0  0  0  0  0  0  0  0  0  0  0
   38.0859   14.4493   -9.3907 C   0  0  0  0  0  0  0  0  0  0  0  0
   36.7397   15.9621  -10.7603 C   0  0  0  0  0  0  0  0  0  0  0  0
   38.6483   14.7281  -11.7756 N   0  0  0  0  0  0  0  0  0  0  0  0
   39.8696   15.2623  -11.6737 C   0  0  0  0  0  0  0  0  0  0  0  0
   40.4654   16.0044  -10.6983 C   0  0  0  0  0  0  0  0  0  0  0  0
   41.7724   16.4433  -10.8494 C   0  0  0  0  0  0  0  0  0  0  0  0
   42.5250   16.1629  -11.9636 C   0  0  0  0  0  0  0  0  0  0  0  0
   41.9268   15.4037  -12.9711 C   0  0  0  0  0  0  0  0  0  0  0  0
   40.6296   14.9824  -12.7933 C   0  0  0  0  0  0  0  0  0  0  0  0
   39.8233   14.2325  -13.6309 C   0  0  0  0  0  0  0  0  0  0  0  0
   40.0199   13.6555  -14.8779 C   0  0  0  0  0  0  0  0  0  0  0  0
   41.2350   13.6867  -15.7474 C   0  0  0  0  0  0  0  0  0  0  0  0
   40.8962   12.9153  -16.9088 N   0  0  0  0  0  0  0  0  0  0  0  0
   39.5537   12.4499  -16.7982 C   0  0  0  0  0  0  0  0  0  0  0  0
   39.0299   11.7733  -17.6866 O   0  0  0  0  0  0  0  0  0  0  0  0
   39.0433   12.9279  -15.5261 C   0  0  0  0  0  0  0  0  0  0  0  0
   37.8407   12.8025  -14.8624 C   0  0  0  0  0  0  0  0  0  0  0  0
   36.6463   12.1849  -15.1675 C   0  0  0  0  0  0  0  0  0  0  0  0
   36.2012   11.4534  -16.2317 C   0  0  0  0  0  0  0  0  0  0  0  0
   34.8958   10.9637  -16.2092 C   0  0  0  0  0  0  0  0  0  0  0  0
   34.0342   11.1867  -15.1575 C   0  0  0  0  0  0  0  0  0  0  0  0
   34.4858   11.9259  -14.0839 C   0  0  0  0  0  0  0  0  0  0  0  0
   35.7572   12.4033  -14.1050 C   0  0  0  0  0  0  0  0  0  0  0  0
   36.4060   13.1305  -13.1934 N   0  0  0  0  0  0  0  0  0  0  0  0
   37.6474   13.3792  -13.6197 C   0  0  0  0  0  0  0  0  0  0  0  0
   38.6463   14.1001  -12.9937 C   0  0  0  0  0  0  0  0  0  0  0  0
   41.5573   12.7290  -17.7192 H   0  0  0  0  0  0  0  0  0  0  0  0
   36.1307   16.1101  -14.0885 C   0  0  0  0  0  0  0  0  0  0  0  0
   36.1700   16.9317  -12.8965 N   0  0  0  0  0  0  0  0  0  0  0  0
   35.6006   17.7641  -13.0738 H   0  0  0  0  0  0  0  0  0  0  0  0
   37.3810   17.1909  -10.7704 O   0  0  0  0  0  0  0  0  0  0  0  0
   37.3355   17.8929   -9.5986 C   0  0  0  0  0  0  0  0  0  0  0  0
 33 34  1  0  0  0
 34  1  1  0  0  0
  1  2  1  0  0  0
  2  3  1  0  0  0
  3  4  1  0  0  0
  4  5  1  0  0  0
  5  6  1  0  0  0
  5  7  1  0  0  0
  7 36  1  0  0  0
 36 37  1  0  0  0
  5  8  1  0  0  0
  8  9  1  0  0  0
  9 10  2  0  0  0
 10 11  1  0  0  0
 11 12  2  0  0  0
 12 13  1  0  0  0
 13 14  2  0  0  0
 14 15  1  0  0  0
 15 16  2  0  0  0
 16 17  1  0  0  0
 17 18  1  0  0  0
 18 19  1  0  0  0
 19 20  2  0  0  0
 19 21  1  0  0  0
 21 22  2  0  0  0
 22 23  1  0  0  0
 23 24  2  0  0  0
 24 25  1  0  0  0
 25 26  2  0  0  0
 26 27  1  0  0  0
 27 28  2  0  0  0
 28 29  1  0  0  0
 29 30  1  0  0  0
 30 31  2  0  0  0
  7  1  1  0  0  0
 31  8  1  0  0  0
 29  3  1  0  0  0
 14  9  1  0  0  0
 31 15  1  0  0  0
 21 16  1  0  0  0
 30 22  1  0  0  0
 28 23  1  0  0  0
 34 35  1  0  0  0
 18 32  1  0  0  0
M  END
> <minimizedAffinity>
-6.62548

> <CNNscore>
0.3859580159

> <CNNaffinity>
6.7399072647

> <CNN_VS>
2.6013212204

> <CNNaffinity_variance>
0.0958606526

$$$$
[H]c1c([H])c([H])c2c(c1[H])c1c3c(c4c5c([H])c([H])c([H])c([H])c5n5c4c1n2[C@@]1([H])O[C@]5(C([H])([H])[H])[C@@]([H])(OC([H])([H])[H])[C@@]([H])(N([H])C([H])([H])[H])C1([H])[H])C([H])([H])N([H])C3=O


 37 44  0  0  0  0  0  0  0  0999 V2000
   45.0159   14.1107   -6.8944 C   0  0  0  0  0  0  0  0  0  0  0  0
   45.5183   14.9409   -8.0025 C   0  0  0  0  0  0  0  0  0  0  0  0
   44.9726   16.3302   -8.0555 C   0  0  0  0  0  0  0  0  0  0  0  0
   44.3257   16.8096   -7.0275 O   0  0  0  0  0  0  0  0  0  0  0  0
   43.5511   16.0579   -6.1743 C   0  0  0  0  0  0  0  0  0  0  0  0
   43.4748   16.9959   -4.9518 C   0  0  0  0  0  0  0  0  0  0  0  0
   44.2796   14.8484   -5.7986 C   0  0  0  0  0  0  0  0  0  0  0  0
   42.2388   15.8868   -6.7751 N   0  0  0  0  0  0  0  0  0  0  0  0
   41.0676   15.6638   -6.1706 C   0  0  0  0  0  0  0  0  0  0  0  0
   40.7313   15.4941   -4.8609 C   0  0  0  0  0  0  0  0  0  0  0  0
   39.4115   15.2702   -4.4980 C   0  0  0  0  0  0  0  0  0  0  0  0
   38.3904   15.2076   -5.4146 C   0  0  0  0  0  0  0  0  0  0  0  0
   38.7209   15.3794   -6.7602 C   0  0  0  0  0  0  0  0  0  0  0  0
   40.0379   15.5999   -7.0899 C   0  0  0  0  0  0  0  0  0  0  0  0
   40.6152   15.7947   -8.3320 C   0  0  0  0  0  0  0  0  0  0  0  0
   40.1061   15.8470   -9.6221 C   0  0  0  0  0  0  0  0  0  0  0  0
   38.6937   15.6846  -10.0830 C   0  0  0  0  0  0  0  0  0  0  0  0
   38.7327   15.8513  -11.5075 N   0  0  0  0  0  0  0  0  0  0  0  0
   40.0766   16.0765  -11.9254 C   0  0  0  0  0  0  0  0  0  0  0  0
   40.3648   16.2350  -13.1142 O   0  0  0  0  0  0  0  0  0  0  0  0
   40.8990   16.0678  -10.7293 C   0  0  0  0  0  0  0  0  0  0  0  0
   42.2464   16.2344  -10.4856 C   0  0  0  0  0  0  0  0  0  0  0  0
   43.3391   16.4555  -11.2970 C   0  0  0  0  0  0  0  0  0  0  0  0
   43.5052   16.6067  -12.6443 C   0  0  0  0  0  0  0  0  0  0  0  0
   44.7898   16.8249  -13.1409 C   0  0  0  0  0  0  0  0  0  0  0  0
   45.9007   16.8946  -12.3289 C   0  0  0  0  0  0  0  0  0  0  0  0
   45.7306   16.7415  -10.9686 C   0  0  0  0  0  0  0  0  0  0  0  0
   44.4796   16.5289  -10.4841 C   0  0  0  0  0  0  0  0  0  0  0  0
   44.0754   16.3564   -9.2241 N   0  0  0  0  0  0  0  0  0  0  0  0
   42.7512   16.1812   -9.1986 C   0  0  0  0  0  0  0  0  0  0  0  0
   41.9310   15.9615   -8.1085 C   0  0  0  0  0  0  0  0  0  0  0  0
   37.8803   15.8101  -12.1400 H   0  0  0  0  0  0  0  0  0  0  0  0
   44.4738   12.8190   -8.7670 C   0  0  0  0  0  0  0  0  0  0  0  0
   44.1557   13.0184   -7.3682 N   0  0  0  0  0  0  0  0  0  0  0  0
   44.3274   12.1341   -6.8813 H   0  0  0  0  0  0  0  0  0  0  0  0
   43.5889   13.8536   -5.1243 O   0  0  0  0  0  0  0  0  0  0  0  0
   44.1170   13.4764   -3.9216 C   0  0  0  0  0  0  0  0  0  0  0  0
 33 34  1  0  0  0
 34  1  1  0  0  0
  1  2  1  0  0  0
  2  3  1  0  0  0
  3  4  1  0  0  0
  4  5  1  0  0  0
  5  6  1  0  0  0
  5  7  1  0  0  0
  7 36  1  0  0  0
 36 37  1  0  0  0
  5  8  1  0  0  0
  8  9  1  0  0  0
  9 10  2  0  0  0
 10 11  1  0  0  0
 11 12  2  0  0  0
 12 13  1  0  0  0
 13 14  2  0  0  0
 14 15  1  0  0  0
 15 16  2  0  0  0
 16 17  1  0  0  0
 17 18  1  0  0  0
 18 19  1  0  0  0
 19 20  2  0  0  0
 19 21  1  0  0  0
 21 22  2  0  0  0
 22 23  1  0  0  0
 23 24  2  0  0  0
 24 25  1  0  0  0
 25 26  2  0  0  0
 26 27  1  0  0  0
 27 28  2  0  0  0
 28 29  1  0  0  0
 29 30  1  0  0  0
 30 31  2  0  0  0
  7  1  1  0  0  0
 31  8  1  0  0  0
 29  3  1  0  0  0
 14  9  1  0  0  0
 31 15  1  0  0  0
 21 16  1  0  0  0
 30 22  1  0  0  0
 28 23  1  0  0  0
 34 35  1  0  0  0
 18 32  1  0  0  0
M  END
> <minimizedAffinity>
-6.69017

> <CNNscore>
0.2409806848

> <CNNaffinity>
5.2634239197

> <CNN_VS>
1.2683835030

> <CNNaffinity_variance>
0.2970147729

$$$$
[H]c1c([H])c([H])c2c(c1[H])c1c3c(c4c5c([H])c([H])c([H])c([H])c5n5c4c1n2[C@@]1([H])O[C@]5(C([H])([H])[H])[C@@]([H])(OC([H])([H])[H])[C@@]([H])(N([H])C([H])([H])[H])C1([H])[H])C([H])([H])N([H])C3=O


 37 44  0  0  0  0  0  0  0  0999 V2000
   38.5731   14.2942   -8.1160 C   0  0  0  0  0  0  0  0  0  0  0  0
   39.7374   13.4568   -7.7803 C   0  0  0  0  0  0  0  0  0  0  0  0
   39.8829   13.1195   -6.3326 C   0  0  0  0  0  0  0  0  0  0  0  0
   38.8874   13.3362   -5.5158 O   0  0  0  0  0  0  0  0  0  0  0  0
   37.9817   14.3637   -5.6460 C   0  0  0  0  0  0  0  0  0  0  0  0
   36.8258   13.8426   -4.7670 C   0  0  0  0  0  0  0  0  0  0  0  0
   37.5273   14.4349   -7.0327 C   0  0  0  0  0  0  0  0  0  0  0  0
   38.5641   15.5652   -5.0721 N   0  0  0  0  0  0  0  0  0  0  0  0
   37.9410   16.6295   -4.5562 C   0  0  0  0  0  0  0  0  0  0  0  0
   36.6213   16.9470   -4.4336 C   0  0  0  0  0  0  0  0  0  0  0  0
   36.2386   18.1441   -3.8470 C   0  0  0  0  0  0  0  0  0  0  0  0
   37.1446   19.0580   -3.3668 C   0  0  0  0  0  0  0  0  0  0  0  0
   38.5001   18.7456   -3.4863 C   0  0  0  0  0  0  0  0  0  0  0  0
   38.8495   17.5513   -4.0723 C   0  0  0  0  0  0  0  0  0  0  0  0
   40.1043   17.0184   -4.3078 C   0  0  0  0  0  0  0  0  0  0  0  0
   41.3929   17.4619   -4.0446 C   0  0  0  0  0  0  0  0  0  0  0  0
   41.8358   18.7350   -3.3992 C   0  0  0  0  0  0  0  0  0  0  0  0
   43.2685   18.6685   -3.3613 N   0  0  0  0  0  0  0  0  0  0  0  0
   43.7064   17.4532   -3.9635 C   0  0  0  0  0  0  0  0  0  0  0  0
   44.9044   17.1764   -4.0614 O   0  0  0  0  0  0  0  0  0  0  0  0
   42.5158   16.7313   -4.3742 C   0  0  0  0  0  0  0  0  0  0  0  0
   42.2896   15.5184   -4.9909 C   0  0  0  0  0  0  0  0  0  0  0  0
   43.1187   14.5287   -5.4748 C   0  0  0  0  0  0  0  0  0  0  0  0
   44.4739   14.3632   -5.5178 C   0  0  0  0  0  0  0  0  0  0  0  0
   44.9894   13.2039   -6.0963 C   0  0  0  0  0  0  0  0  0  0  0  0
   44.1887   12.2164   -6.6274 C   0  0  0  0  0  0  0  0  0  0  0  0
   42.8203   12.3858   -6.5831 C   0  0  0  0  0  0  0  0  0  0  0  0
   42.3174   13.5147   -6.0197 C   0  0  0  0  0  0  0  0  0  0  0  0
   41.0469   13.8919   -5.8635 N   0  0  0  0  0  0  0  0  0  0  0  0
   41.0040   15.0792   -5.2525 C   0  0  0  0  0  0  0  0  0  0  0  0
   39.8981   15.8323   -4.9075 C   0  0  0  0  0  0  0  0  0  0  0  0
   43.8933   19.4196   -2.9442 H   0  0  0  0  0  0  0  0  0  0  0  0
   40.3600   15.5588   -8.9388 C   0  0  0  0  0  0  0  0  0  0  0  0
   38.9678   15.6414   -8.5485 N   0  0  0  0  0  0  0  0  0  0  0  0
   38.4369   15.9729   -9.3590 H   0  0  0  0  0  0  0  0  0  0  0  0
   36.7838   15.5389   -7.4198 O   0  0  0  0  0  0  0  0  0  0  0  0
   35.6249   15.2671   -8.0912 C   0  0  0  0  0  0  0  0  0  0  0  0
 33 34  1  0  0  0
 34  1  1  0  0  0
  1  2  1  0  0  0
  2  3  1  0  0  0
  3  4  1  0  0  0
  4  5  1  0  0  0
  5  6  1  0  0  0
  5  7  1  0  0  0
  7 36  1  0  0  0
 36 37  1  0  0  0
  5  8  1  0  0  0
  8  9  1  0  0  0
  9 10  2  0  0  0
 10 11  1  0  0  0
 11 12  2  0  0  0
 12 13  1  0  0  0
 13 14  2  0  0  0
 14 15  1  0  0  0
 15 16  2  0  0  0
 16 17  1  0  0  0
 17 18  1  0  0  0
 18 19  1  0  0  0
 19 20  2  0  0  0
 19 21  1  0  0  0
 21 22  2  0  0  0
 22 23  1  0  0  0
 23 24  2  0  0  0
 24 25  1  0  0  0
 25 26  2  0  0  0
 26 27  1  0  0  0
 27 28  2  0  0  0
 28 29  1  0  0  0
 29 30  1  0  0  0
 30 31  2  0  0  0
  7  1  1  0  0  0
 31  8  1  0  0  0
 29  3  1  0  0  0
 14  9  1  0  0  0
 31 15  1  0  0  0
 21 16  1  0  0  0
 30 22  1  0  0  0
 28 23  1  0  0  0
 34 35  1  0  0  0
 18 32  1  0  0  0
M  END
> <minimizedAffinity>
-5.23573

> <CNNscore>
0.2210020125

> <CNNaffinity>
5.1773538589

> <CNN_VS>
1.1442055702

> <CNNaffinity_variance>
0.2508328259

$$$$
[H]c1c([H])c([H])c2c(c1[H])c1c3c(c4c5c([H])c([H])c([H])c([H])c5n5c4c1n2[C@@]1([H])O[C@]5(C([H])([H])[H])[C@@]([H])(OC([H])([H])[H])[C@@]([H])(N([H])C([H])([H])[H])C1([H])[H])C([H])([H])N([H])C3=O


 37 44  0  0  0  0  0  0  0  0999 V2000
   36.2720   13.1833   -5.9841 C   0  0  0  0  0  0  0  0  0  0  0  0
   34.9346   13.6318   -6.4078 C   0  0  0  0  0  0  0  0  0  0  0  0
   34.9210   14.7778   -7.3655 C   0  0  0  0  0  0  0  0  0  0  0  0
   36.0267   15.1339   -7.9620 O   0  0  0  0  0  0  0  0  0  0  0  0
   37.2806   15.0325   -7.4049 C   0  0  0  0  0  0  0  0  0  0  0  0
   38.1641   15.1046   -8.6675 C   0  0  0  0  0  0  0  0  0  0  0  0
   37.4333   13.7138   -6.7946 C   0  0  0  0  0  0  0  0  0  0  0  0
   37.5010   16.1906   -6.5550 N   0  0  0  0  0  0  0  0  0  0  0  0
   38.6590   16.7581   -6.2026 C   0  0  0  0  0  0  0  0  0  0  0  0
   39.9553   16.4387   -6.4761 C   0  0  0  0  0  0  0  0  0  0  0  0
   40.9905   17.2121   -5.9723 C   0  0  0  0  0  0  0  0  0  0  0  0
   40.7758   18.3185   -5.1872 C   0  0  0  0  0  0  0  0  0  0  0  0
   39.4524   18.6570   -4.8987 C   0  0  0  0  0  0  0  0  0  0  0  0
   38.4468   17.8715   -5.4122 C   0  0  0  0  0  0  0  0  0  0  0  0
   37.0756   17.9911   -5.2722 C   0  0  0  0  0  0  0  0  0  0  0  0
   36.2607   18.8996   -4.6111 C   0  0  0  0  0  0  0  0  0  0  0  0
   36.6485   20.0869   -3.7904 C   0  0  0  0  0  0  0  0  0  0  0  0
   35.4133   20.6787   -3.3633 N   0  0  0  0  0  0  0  0  0  0  0  0
   34.3194   19.9081   -3.8541 C   0  0  0  0  0  0  0  0  0  0  0  0
   33.1509   20.2135   -3.6037 O   0  0  0  0  0  0  0  0  0  0  0  0
   34.8838   18.8141   -4.6236 C   0  0  0  0  0  0  0  0  0  0  0  0
   34.3489   17.7614   -5.3363 C   0  0  0  0  0  0  0  0  0  0  0  0
   33.0606   17.3320   -5.5750 C   0  0  0  0  0  0  0  0  0  0  0  0
   31.8256   17.7883   -5.2108 C   0  0  0  0  0  0  0  0  0  0  0  0
   30.6988   17.0897   -5.6429 C   0  0  0  0  0  0  0  0  0  0  0  0
   30.7781   15.9567   -6.4229 C   0  0  0  0  0  0  0  0  0  0  0  0
   32.0263   15.4976   -6.7893 C   0  0  0  0  0  0  0  0  0  0  0  0
   33.1244   16.1776   -6.3689 C   0  0  0  0  0  0  0  0  0  0  0  0
   34.4156   15.9281   -6.5958 N   0  0  0  0  0  0  0  0  0  0  0  0
   35.1637   16.8570   -5.9938 C   0  0  0  0  0  0  0  0  0  0  0  0
   36.5405   16.9705   -5.9657 C   0  0  0  0  0  0  0  0  0  0  0  0
   35.3423   21.5579   -2.7712 H   0  0  0  0  0  0  0  0  0  0  0  0
   35.2548   13.8291   -3.9797 C   0  0  0  0  0  0  0  0  0  0  0  0
   36.5304   13.4768   -4.5682 N   0  0  0  0  0  0  0  0  0  0  0  0
   36.8985   12.6718   -4.0534 H   0  0  0  0  0  0  0  0  0  0  0  0
   38.5392   13.4918   -5.9889 O   0  0  0  0  0  0  0  0  0  0  0  0
   39.5702   12.8102   -6.5723 C   0  0  0  0  0  0  0  0  0  0  0  0
 33 34  1  0  0  0
 34  1  1  0  0  0
  1  2  1  0  0  0
  2  3  1  0  0  0
  3  4  1  0  0  0
  4  5  1  0  0  0
  5  6  1  0  0  0
  5  7  1  0  0  0
  7 36  1  0  0  0
 36 37  1  0  0  0
  5  8  1  0  0  0
  8  9  1  0  0  0
  9 10  2  0  0  0
 10 11  1  0  0  0
 11 12  2  0  0  0
 12 13  1  0  0  0
 13 14  2  0  0  0
 14 15  1  0  0  0
 15 16  2  0  0  0
 16 17  1  0  0  0
 17 18  1  0  0  0
 18 19  1  0  0  0
 19 20  2  0  0  0
 19 21  1  0  0  0
 21 22  2  0  0  0
 22 23  1  0  0  0
 23 24  2  0  0  0
 24 25  1  0  0  0
 25 26  2  0  0  0
 26 27  1  0  0  0
 27 28  2  0  0  0
 28 29  1  0  0  0
 29 30  1  0  0  0
 30 31  2  0  0  0
  7  1  1  0  0  0
 31  8  1  0  0  0
 29  3  1  0  0  0
 14  9  1  0  0  0
 31 15  1  0  0  0
 21 16  1  0  0  0
 30 22  1  0  0  0
 28 23  1  0  0  0
 34 35  1  0  0  0
 18 32  1  0  0  0
M  END
> <minimizedAffinity>
-5.96567

> <CNNscore>
0.1870667636

> <CNNaffinity>
5.4268441200

> <CNN_VS>
1.0151821375

> <CNNaffinity_variance>
0.1040936261

$$$$
[H]c1c([H])c([H])c2c(c1[H])c1c3c(c4c5c([H])c([H])c([H])c([H])c5n5c4c1n2[C@@]1([H])O[C@]5(C([H])([H])[H])[C@@]([H])(OC([H])([H])[H])[C@@]([H])(N([H])C([H])([H])[H])C1([H])[H])C([H])([H])N([H])C3=O


 37 44  0  0  0  0  0  0  0  0999 V2000
   43.7746   15.8028  -11.3800 C   0  0  0  0  0  0  0  0  0  0  0  0
   43.9926   16.6764  -10.2144 C   0  0  0  0  0  0  0  0  0  0  0  0
   45.3366   16.5593   -9.5733 C   0  0  0  0  0  0  0  0  0  0  0  0
   46.2966   15.9303  -10.1962 O   0  0  0  0  0  0  0  0  0  0  0  0
   46.1084   14.8583  -11.0378 C   0  0  0  0  0  0  0  0  0  0  0  0
   47.4364   14.8711  -11.8228 C   0  0  0  0  0  0  0  0  0  0  0  0
   45.0117   15.1521  -11.9573 C   0  0  0  0  0  0  0  0  0  0  0  0
   45.9984   13.6543  -10.2311 N   0  0  0  0  0  0  0  0  0  0  0  0
   46.2735   12.3922  -10.5750 C   0  0  0  0  0  0  0  0  0  0  0  0
   46.6924   11.8329  -11.7451 C   0  0  0  0  0  0  0  0  0  0  0  0
   46.9053   10.4653  -11.8331 C   0  0  0  0  0  0  0  0  0  0  0  0
   46.7113    9.6144  -10.7725 C   0  0  0  0  0  0  0  0  0  0  0  0
   46.2818   10.1739   -9.5676 C   0  0  0  0  0  0  0  0  0  0  0  0
   46.0791   11.5332   -9.5102 C   0  0  0  0  0  0  0  0  0  0  0  0
   45.6584   12.3181   -8.4515 C   0  0  0  0  0  0  0  0  0  0  0  0
   45.3180   12.0399   -7.1350 C   0  0  0  0  0  0  0  0  0  0  0  0
   45.2902   10.7229   -6.4291 C   0  0  0  0  0  0  0  0  0  0  0  0
   44.8868   11.0164   -5.0839 N   0  0  0  0  0  0  0  0  0  0  0  0
   44.6490   12.4153   -4.9509 C   0  0  0  0  0  0  0  0  0  0  0  0
   44.2764   12.9081   -3.8833 O   0  0  0  0  0  0  0  0  0  0  0  0
   44.9273   13.0167   -6.2425 C   0  0  0  0  0  0  0  0  0  0  0  0
   44.8893   14.3052   -6.7333 C   0  0  0  0  0  0  0  0  0  0  0  0
   44.5496   15.5227   -6.1825 C   0  0  0  0  0  0  0  0  0  0  0  0
   44.1352   15.9209   -4.9434 C   0  0  0  0  0  0  0  0  0  0  0  0
   43.8733   17.2733   -4.7268 C   0  0  0  0  0  0  0  0  0  0  0  0
   44.0150   18.2268   -5.7113 C   0  0  0  0  0  0  0  0  0  0  0  0
   44.4334   17.8223   -6.9620 C   0  0  0  0  0  0  0  0  0  0  0  0
   44.6887   16.5051   -7.1737 C   0  0  0  0  0  0  0  0  0  0  0  0
   45.1001   15.8879   -8.2831 N   0  0  0  0  0  0  0  0  0  0  0  0
   45.2286   14.5794   -8.0462 C   0  0  0  0  0  0  0  0  0  0  0  0
   45.6194   13.5796   -8.9162 C   0  0  0  0  0  0  0  0  0  0  0  0
   44.7855   10.2896   -4.3157 H   0  0  0  0  0  0  0  0  0  0  0  0
   41.9961   15.2079   -9.9829 C   0  0  0  0  0  0  0  0  0  0  0  0
   42.7898   14.7486  -11.1038 N   0  0  0  0  0  0  0  0  0  0  0  0
   42.1527   14.5810  -11.8878 H   0  0  0  0  0  0  0  0  0  0  0  0
   44.5187   14.1172  -12.7367 O   0  0  0  0  0  0  0  0  0  0  0  0
   44.6225   14.2918  -14.0882 C   0  0  0  0  0  0  0  0  0  0  0  0
 33 34  1  0  0  0
 34  1  1  0  0  0
  1  2  1  0  0  0
  2  3  1  0  0  0
  3  4  1  0  0  0
  4  5  1  0  0  0
  5  6  1  0  0  0
  5  7  1  0  0  0
  7 36  1  0  0  0
 36 37  1  0  0  0
  5  8  1  0  0  0
  8  9  1  0  0  0
  9 10  2  0  0  0
 10 11  1  0  0  0
 11 12  2  0  0  0
 12 13  1  0  0  0
 13 14  2  0  0  0
 14 15  1  0  0  0
 15 16  2  0  0  0
 16 17  1  0  0  0
 17 18  1  0  0  0
 18 19  1  0  0  0
 19 20  2  0  0  0
 19 21  1  0  0  0
 21 22  2  0  0  0
 22 23  1  0  0  0
 23 24  2  0  0  0
 24 25  1  0  0  0
 25 26  2  0  0  0
 26 27  1  0  0  0
 27 28  2  0  0  0
 28 29  1  0  0  0
 29 30  1  0  0  0
 30 31  2  0  0  0
  7  1  1  0  0  0
 31  8  1  0  0  0
 29  3  1  0  0  0
 14  9  1  0  0  0
 31 15  1  0  0  0
 21 16  1  0  0  0
 30 22  1  0  0  0
 28 23  1  0  0  0
 34 35  1  0  0  0
 18 32  1  0  0  0
M  END
> <minimizedAffinity>
-5.20056

> <CNNscore>
0.1782598794

> <CNNaffinity>
5.1227355003

> <CNN_VS>
0.9131782055

> <CNNaffinity_variance>
0.1751436889

$$$$
[H]c1c([H])c([H])c2c(c1[H])c1c3c(c4c5c([H])c([H])c([H])c([H])c5n5c4c1n2[C@@]1([H])O[C@]5(C([H])([H])[H])[C@@]([H])(OC([H])([H])[H])[C@@]([H])(N([H])C([H])([H])[H])C1([H])[H])C([H])([H])N([H])C3=O


 37 44  0  0  0  0  0  0  0  0999 V2000
   38.0621   18.0096   -8.0582 C   0  0  0  0  0  0  0  0  0  0  0  0
   37.1010   17.7233   -6.9795 C   0  0  0  0  0  0  0  0  0  0  0  0
   36.6761   16.2958   -6.8674 C   0  0  0  0  0  0  0  0  0  0  0  0
   37.3386   15.3725   -7.5106 O   0  0  0  0  0  0  0  0  0  0  0  0
   37.9576   15.5601   -8.7249 C   0  0  0  0  0  0  0  0  0  0  0  0
   38.9397   14.3703   -8.7351 C   0  0  0  0  0  0  0  0  0  0  0  0
   38.7218   16.8049   -8.6909 C   0  0  0  0  0  0  0  0  0  0  0  0
   36.9631   15.4162   -9.7749 N   0  0  0  0  0  0  0  0  0  0  0  0
   37.1423   15.0547  -11.0494 C   0  0  0  0  0  0  0  0  0  0  0  0
   38.2610   14.7507  -11.7658 C   0  0  0  0  0  0  0  0  0  0  0  0
   38.1643   14.4014  -13.1045 C   0  0  0  0  0  0  0  0  0  0  0  0
   36.9648   14.3426  -13.7711 C   0  0  0  0  0  0  0  0  0  0  0  0
   35.8104   14.6520  -13.0492 C   0  0  0  0  0  0  0  0  0  0  0  0
   35.9374   14.9948  -11.7233 C   0  0  0  0  0  0  0  0  0  0  0  0
   34.9626   15.3420  -10.8049 C   0  0  0  0  0  0  0  0  0  0  0  0
   33.5811   15.4539  -10.8778 C   0  0  0  0  0  0  0  0  0  0  0  0
   32.6801   15.2312  -12.0492 C   0  0  0  0  0  0  0  0  0  0  0  0
   31.3511   15.4647  -11.5616 N   0  0  0  0  0  0  0  0  0  0  0  0
   31.4051   15.8356  -10.1865 C   0  0  0  0  0  0  0  0  0  0  0  0
   30.3831   16.1015   -9.5492 O   0  0  0  0  0  0  0  0  0  0  0  0
   32.8036   15.8172   -9.7977 C   0  0  0  0  0  0  0  0  0  0  0  0
   33.4799   16.0701   -8.6224 C   0  0  0  0  0  0  0  0  0  0  0  0
   33.0816   16.4600   -7.3613 C   0  0  0  0  0  0  0  0  0  0  0  0
   31.8708   16.7315   -6.7904 C   0  0  0  0  0  0  0  0  0  0  0  0
   31.8320   17.1086   -5.4485 C   0  0  0  0  0  0  0  0  0  0  0  0
   32.9651   17.2192   -4.6725 C   0  0  0  0  0  0  0  0  0  0  0  0
   34.1869   16.9448   -5.2512 C   0  0  0  0  0  0  0  0  0  0  0  0
   34.2254   16.5774   -6.5583 C   0  0  0  0  0  0  0  0  0  0  0  0
   35.2746   16.2654   -7.3216 N   0  0  0  0  0  0  0  0  0  0  0  0
   34.8571   15.9583   -8.5529 C   0  0  0  0  0  0  0  0  0  0  0  0
   35.6092   15.5890   -9.6517 C   0  0  0  0  0  0  0  0  0  0  0  0
   30.4712   15.3713  -12.1494 H   0  0  0  0  0  0  0  0  0  0  0  0
   37.3711   20.1721   -8.6195 C   0  0  0  0  0  0  0  0  0  0  0  0
   37.4661   18.8197   -9.1287 N   0  0  0  0  0  0  0  0  0  0  0  0
   38.0395   18.8464   -9.9767 H   0  0  0  0  0  0  0  0  0  0  0  0
   39.2366   17.2873   -9.8842 O   0  0  0  0  0  0  0  0  0  0  0  0
   40.4204   16.7345  -10.2853 C   0  0  0  0  0  0  0  0  0  0  0  0
 33 34  1  0  0  0
 34  1  1  0  0  0
  1  2  1  0  0  0
  2  3  1  0  0  0
  3  4  1  0  0  0
  4  5  1  0  0  0
  5  6  1  0  0  0
  5  7  1  0  0  0
  7 36  1  0  0  0
 36 37  1  0  0  0
  5  8  1  0  0  0
  8  9  1  0  0  0
  9 10  2  0  0  0
 10 11  1  0  0  0
 11 12  2  0  0  0
 12 13  1  0  0  0
 13 14  2  0  0  0
 14 15  1  0  0  0
 15 16  2  0  0  0
 16 17  1  0  0  0
 17 18  1  0  0  0
 18 19  1  0  0  0
 19 20  2  0  0  0
 19 21  1  0  0  0
 21 22  2  0  0  0
 22 23  1  0  0  0
 23 24  2  0  0  0
 24 25  1  0  0  0
 25 26  2  0  0  0
 26 27  1  0  0  0
 27 28  2  0  0  0
 28 29  1  0  0  0
 29 30  1  0  0  0
 30 31  2  0  0  0
  7  1  1  0  0  0
 31  8  1  0  0  0
 29  3  1  0  0  0
 14  9  1  0  0  0
 31 15  1  0  0  0
 21 16  1  0  0  0
 30 22  1  0  0  0
 28 23  1  0  0  0
 34 35  1  0  0  0
 18 32  1  0  0  0
M  END
> <minimizedAffinity>
-7.99989

> <CNNscore>
0.1107884794

> <CNNaffinity>
5.6466355324

> <CNN_VS>
0.6255821586

> <CNNaffinity_variance>
0.3702708483

$$$$
[H]c1c([H])c([H])c2c(c1[H])c1c3c(c4c5c([H])c([H])c([H])c([H])c5n5c4c1n2[C@@]1([H])O[C@]5(C([H])([H])[H])[C@@]([H])(OC([H])([H])[H])[C@@]([H])(N([H])C([H])([H])[H])C1([H])[H])C([H])([H])N([H])C3=O


 37 44  0  0  0  0  0  0  0  0999 V2000
   35.4991   16.7954   -7.3422 C   0  0  0  0  0  0  0  0  0  0  0  0
   35.1874   16.0251   -8.5583 C   0  0  0  0  0  0  0  0  0  0  0  0
   35.9063   14.7224   -8.6886 C   0  0  0  0  0  0  0  0  0  0  0  0
   36.5320   14.2240   -7.6565 O   0  0  0  0  0  0  0  0  0  0  0  0
   37.1414   14.9743   -6.6774 C   0  0  0  0  0  0  0  0  0  0  0  0
   37.2462   13.9358   -5.5413 C   0  0  0  0  0  0  0  0  0  0  0  0
   36.2408   16.0456   -6.2583 C   0  0  0  0  0  0  0  0  0  0  0  0
   38.4619   15.3584   -7.1477 N   0  0  0  0  0  0  0  0  0  0  0  0
   39.5485   15.6580   -6.4291 C   0  0  0  0  0  0  0  0  0  0  0  0
   39.7644   15.7361   -5.0857 C   0  0  0  0  0  0  0  0  0  0  0  0
   41.0155   16.0781   -4.5943 C   0  0  0  0  0  0  0  0  0  0  0  0
   42.0845   16.3517   -5.4121 C   0  0  0  0  0  0  0  0  0  0  0  0
   41.8772   16.2758   -6.7908 C   0  0  0  0  0  0  0  0  0  0  0  0
   40.6261   15.9341   -7.2488 C   0  0  0  0  0  0  0  0  0  0  0  0
   40.1699   15.7959   -8.5476 C   0  0  0  0  0  0  0  0  0  0  0  0
   40.7742   15.9321   -9.7896 C   0  0  0  0  0  0  0  0  0  0  0  0
   42.1846   16.3057  -10.1133 C   0  0  0  0  0  0  0  0  0  0  0  0
   42.2707   16.2771  -11.5452 N   0  0  0  0  0  0  0  0  0  0  0  0
   41.0000   15.9364  -12.0935 C   0  0  0  0  0  0  0  0  0  0  0  0
   40.8214   15.8631  -13.3117 O   0  0  0  0  0  0  0  0  0  0  0  0
   40.0981   15.7293  -10.9750 C   0  0  0  0  0  0  0  0  0  0  0  0
   38.7684   15.3807  -10.8618 C   0  0  0  0  0  0  0  0  0  0  0  0
   37.7743   15.1127  -11.7789 C   0  0  0  0  0  0  0  0  0  0  0  0
   37.7272   15.0767  -13.1436 C   0  0  0  0  0  0  0  0  0  0  0  0
   36.5199   14.7578  -13.7642 C   0  0  0  0  0  0  0  0  0  0  0  0
   35.3705   14.4768  -13.0584 C   0  0  0  0  0  0  0  0  0  0  0  0
   35.4204   14.5139  -11.6803 C   0  0  0  0  0  0  0  0  0  0  0  0
   36.5960   14.8245  -11.0750 C   0  0  0  0  0  0  0  0  0  0  0  0
   36.8824   14.9185   -9.7750 N   0  0  0  0  0  0  0  0  0  0  0  0
   38.1685   15.2462   -9.6223 C   0  0  0  0  0  0  0  0  0  0  0  0
   38.8729   15.4529   -8.4516 C   0  0  0  0  0  0  0  0  0  0  0  0
   43.1549   16.4815  -12.0973 H   0  0  0  0  0  0  0  0  0  0  0  0
   35.3408   19.1278   -7.4038 C   0  0  0  0  0  0  0  0  0  0  0  0
   36.2469   18.0235   -7.6425 N   0  0  0  0  0  0  0  0  0  0  0  0
   37.0621   18.1538   -7.0367 H   0  0  0  0  0  0  0  0  0  0  0  0
   36.7496   17.0439   -5.4422 O   0  0  0  0  0  0  0  0  0  0  0  0
   36.1911   17.1344   -4.1981 C   0  0  0  0  0  0  0  0  0  0  0  0
 33 34  1  0  0  0
 34  1  1  0  0  0
  1  2  1  0  0  0
  2  3  1  0  0  0
  3  4  1  0  0  0
  4  5  1  0  0  0
  5  6  1  0  0  0
  5  7  1  0  0  0
  7 36  1  0  0  0
 36 37  1  0  0  0
  5  8  1  0  0  0
  8  9  1  0  0  0
  9 10  2  0  0  0
 10 11  1  0  0  0
 11 12  2  0  0  0
 12 13  1  0  0  0
 13 14  2  0  0  0
 14 15  1  0  0  0
 15 16  2  0  0  0
 16 17  1  0  0  0
 17 18  1  0  0  0
 18 19  1  0  0  0
 19 20  2  0  0  0
 19 21  1  0  0  0
 21 22  2  0  0  0
 22 23  1  0  0  0
 23 24  2  0  0  0
 24 25  1  0  0  0
 25 26  2  0  0  0
 26 27  1  0  0  0
 27 28  2  0  0  0
 28 29  1  0  0  0
 29 30  1  0  0  0
 30 31  2  0  0  0
  7  1  1  0  0  0
 31  8  1  0  0  0
 29  3  1  0  0  0
 14  9  1  0  0  0
 31 15  1  0  0  0
 21 16  1  0  0  0
 30 22  1  0  0  0
 28 23  1  0  0  0
 34 35  1  0  0  0
 18 32  1  0  0  0
M  END
> <minimizedAffinity>
-7.78937

> <CNNscore>
0.1081272513

> <CNNaffinity>
5.3503274918

> <CNN_VS>
0.5785161853

> <CNNaffinity_variance>
0.3872374892

$$$$
[H]c1c([H])c([H])c2c(c1[H])c1c3c(c4c5c([H])c([H])c([H])c([H])c5n5c4c1n2[C@@]1([H])O[C@]5(C([H])([H])[H])[C@@]([H])(OC([H])([H])[H])[C@@]([H])(N([H])C([H])([H])[H])C1([H])[H])C([H])([H])N([H])C3=O


 37 44  0  0  0  0  0  0  0  0999 V2000
   35.2663   19.1158   -4.0604 C   0  0  0  0  0  0  0  0  0  0  0  0
   33.8342   18.7781   -3.9918 C   0  0  0  0  0  0  0  0  0  0  0  0
   33.5222   17.3178   -4.0222 C   0  0  0  0  0  0  0  0  0  0  0  0
   34.4802   16.4489   -3.8428 O   0  0  0  0  0  0  0  0  0  0  0  0
   35.7852   16.6349   -4.2371 C   0  0  0  0  0  0  0  0  0  0  0  0
   36.5033   15.5867   -3.3620 C   0  0  0  0  0  0  0  0  0  0  0  0
   36.2260   17.9689   -3.8361 C   0  0  0  0  0  0  0  0  0  0  0  0
   35.8933   16.2916   -5.6452 N   0  0  0  0  0  0  0  0  0  0  0  0
   36.9677   15.8726   -6.3213 C   0  0  0  0  0  0  0  0  0  0  0  0
   38.2628   15.6713   -5.9479 C   0  0  0  0  0  0  0  0  0  0  0  0
   39.1979   15.2238   -6.8693 C   0  0  0  0  0  0  0  0  0  0  0  0
   38.8817   14.9633   -8.1804 C   0  0  0  0  0  0  0  0  0  0  0  0
   37.5583   15.1655   -8.5767 C   0  0  0  0  0  0  0  0  0  0  0  0
   36.6534   15.6098   -7.6410 C   0  0  0  0  0  0  0  0  0  0  0  0
   35.3049   15.8862   -7.7801 C   0  0  0  0  0  0  0  0  0  0  0  0
   34.4217   15.8102   -8.8481 C   0  0  0  0  0  0  0  0  0  0  0  0
   34.6855   15.3932  -10.2588 C   0  0  0  0  0  0  0  0  0  0  0  0
   33.4199   15.4819  -10.9287 N   0  0  0  0  0  0  0  0  0  0  0  0
   32.4283   15.9475  -10.0169 C   0  0  0  0  0  0  0  0  0  0  0  0
   31.2583   16.1186  -10.3679 O   0  0  0  0  0  0  0  0  0  0  0  0
   33.0865   16.1394   -8.7374 C   0  0  0  0  0  0  0  0  0  0  0  0
   32.6669   16.5569   -7.4915 C   0  0  0  0  0  0  0  0  0  0  0  0
   31.4533   16.9742   -6.9875 C   0  0  0  0  0  0  0  0  0  0  0  0
   30.2045   17.1215   -7.5210 C   0  0  0  0  0  0  0  0  0  0  0  0
   29.1746   17.5789   -6.6998 C   0  0  0  0  0  0  0  0  0  0  0  0
   29.3632   17.8893   -5.3707 C   0  0  0  0  0  0  0  0  0  0  0  0
   30.6252   17.7399   -4.8341 C   0  0  0  0  0  0  0  0  0  0  0  0
   31.6290   17.2944   -5.6334 C   0  0  0  0  0  0  0  0  0  0  0  0
   32.9121   17.0730   -5.3410 N   0  0  0  0  0  0  0  0  0  0  0  0
   33.5498   16.6322   -6.4290 C   0  0  0  0  0  0  0  0  0  0  0  0
   34.8818   16.2925   -6.5698 C   0  0  0  0  0  0  0  0  0  0  0  0
   33.2628   15.2344  -11.9498 H   0  0  0  0  0  0  0  0  0  0  0  0
   34.4305   20.4545   -5.7863 C   0  0  0  0  0  0  0  0  0  0  0  0
   35.6202   19.7671   -5.3285 N   0  0  0  0  0  0  0  0  0  0  0  0
   36.3625   20.4651   -5.2262 H   0  0  0  0  0  0  0  0  0  0  0  0
   37.4333   18.4341   -4.3337 O   0  0  0  0  0  0  0  0  0  0  0  0
   38.4204   18.6278   -3.4085 C   0  0  0  0  0  0  0  0  0  0  0  0
 33 34  1  0  0  0
 34  1  1  0  0  0
  1  2  1  0  0  0
  2  3  1  0  0  0
  3  4  1  0  0  0
  4  5  1  0  0  0
  5  6  1  0  0  0
  5  7  1  0  0  0
  7 36  1  0  0  0
 36 37  1  0  0  0
  5  8  1  0  0  0
  8  9  1  0  0  0
  9 10  2  0  0  0
 10 11  1  0  0  0
 11 12  2  0  0  0
 12 13  1  0  0  0
 13 14  2  0  0  0
 14 15  1  0  0  0
 15 16  2  0  0  0
 16 17  1  0  0  0
 17 18  1  0  0  0
 18 19  1  0  0  0
 19 20  2  0  0  0
 19 21  1  0  0  0
 21 22  2  0  0  0
 22 23  1  0  0  0
 23 24  2  0  0  0
 24 25  1  0  0  0
 25 26  2  0  0  0
 26 27  1  0  0  0
 27 28  2  0  0  0
 28 29  1  0  0  0
 29 30  1  0  0  0
 30 31  2  0  0  0
  7  1  1  0  0  0
 31  8  1  0  0  0
 29  3  1  0  0  0
 14  9  1  0  0  0
 31 15  1  0  0  0
 21 16  1  0  0  0
 30 22  1  0  0  0
 28 23  1  0  0  0
 34 35  1  0  0  0
 18 32  1  0  0  0
M  END
> <minimizedAffinity>
-6.88287

> <CNNscore>
0.1048738211

> <CNNaffinity>
5.2927417755

> <CNN_VS>
0.5550700426

> <CNNaffinity_variance>
0.3462100923

$$$$
[H]c1c([H])c([H])c2c(c1[H])c1c3c(c4c5c([H])c([H])c([H])c([H])c5n5c4c1n2[C@@]1([H])O[C@]5(C([H])([H])[H])[C@@]([H])(OC([H])([H])[H])[C@@]([H])(N([H])C([H])([H])[H])C1([H])[H])C([H])([H])N([H])C3=O


 37 44  0  0  0  0  0  0  0  0999 V2000
   35.2591   18.8938   -6.1989 C   0  0  0  0  0  0  0  0  0  0  0  0
   33.9922   18.2936   -5.7473 C   0  0  0  0  0  0  0  0  0  0  0  0
   33.9492   16.8008   -5.7752 C   0  0  0  0  0  0  0  0  0  0  0  0
   35.0565   16.1256   -5.9273 O   0  0  0  0  0  0  0  0  0  0  0  0
   36.1365   16.5551   -6.6637 C   0  0  0  0  0  0  0  0  0  0  0  0
   37.2515   15.6547   -6.0926 C   0  0  0  0  0  0  0  0  0  0  0  0
   36.4304   17.9456   -6.3252 C   0  0  0  0  0  0  0  0  0  0  0  0
   35.8909   16.2465   -8.0625 N   0  0  0  0  0  0  0  0  0  0  0  0
   36.7798   16.0400   -9.0394 C   0  0  0  0  0  0  0  0  0  0  0  0
   38.1418   16.0827   -9.0615 C   0  0  0  0  0  0  0  0  0  0  0  0
   38.8336   15.8236  -10.2353 C   0  0  0  0  0  0  0  0  0  0  0  0
   38.2025   15.5163  -11.4160 C   0  0  0  0  0  0  0  0  0  0  0  0
   36.8072   15.4695  -11.4078 C   0  0  0  0  0  0  0  0  0  0  0  0
   36.1484   15.7309  -10.2290 C   0  0  0  0  0  0  0  0  0  0  0  0
   34.7908   15.7506   -9.9631 C   0  0  0  0  0  0  0  0  0  0  0  0
   33.6641   15.5169  -10.7392 C   0  0  0  0  0  0  0  0  0  0  0  0
   33.5774   15.1650  -12.1891 C   0  0  0  0  0  0  0  0  0  0  0  0
   32.1772   15.0191  -12.4660 N   0  0  0  0  0  0  0  0  0  0  0  0
   31.4263   15.2854  -11.2842 C   0  0  0  0  0  0  0  0  0  0  0  0
   30.1938   15.2364  -11.2780 O   0  0  0  0  0  0  0  0  0  0  0  0
   32.3821   15.5895  -10.2349 C   0  0  0  0  0  0  0  0  0  0  0  0
   32.2744   15.9137   -8.8985 C   0  0  0  0  0  0  0  0  0  0  0  0
   31.2051   16.0934   -8.0469 C   0  0  0  0  0  0  0  0  0  0  0  0
   29.8499   16.0074   -8.1945 C   0  0  0  0  0  0  0  0  0  0  0  0
   29.0381   16.2590   -7.0890 C   0  0  0  0  0  0  0  0  0  0  0  0
   29.5456   16.5913   -5.8519 C   0  0  0  0  0  0  0  0  0  0  0  0
   30.9145   16.6778   -5.7052 C   0  0  0  0  0  0  0  0  0  0  0  0
   31.7060   16.4328   -6.7816 C   0  0  0  0  0  0  0  0  0  0  0  0
   33.0367   16.4539   -6.8789 N   0  0  0  0  0  0  0  0  0  0  0  0
   33.3994   16.1467   -8.1275 C   0  0  0  0  0  0  0  0  0  0  0  0
   34.6715   16.0634   -8.6605 C   0  0  0  0  0  0  0  0  0  0  0  0
   31.7775   14.7526  -13.4135 H   0  0  0  0  0  0  0  0  0  0  0  0
   34.2372   20.7349   -7.2163 C   0  0  0  0  0  0  0  0  0  0  0  0
   35.1088   19.6074   -7.4740 N   0  0  0  0  0  0  0  0  0  0  0  0
   35.9944   19.9750   -7.8335 H   0  0  0  0  0  0  0  0  0  0  0  0
   37.3390   18.6316   -7.1160 O   0  0  0  0  0  0  0  0  0  0  0  0
   38.5242   18.9517   -6.5154 C   0  0  0  0  0  0  0  0  0  0  0  0
 33 34  1  0  0  0
 34  1  1  0  0  0
  1  2  1  0  0  0
  2  3  1  0  0  0
  3  4  1  0  0  0
  4  5  1  0  0  0
  5  6  1  0  0  0
  5  7  1  0  0  0
  7 36  1  0  0  0
 36 37  1  0  0  0
  5  8  1  0  0  0
  8  9  1  0  0  0
  9 10  2  0  0  0
 10 11  1  0  0  0
 11 12  2  0  0  0
 12 13  1  0  0  0
 13 14  2  0  0  0
 14 15  1  0  0  0
 15 16  2  0  0  0
 16 17  1  0  0  0
 17 18  1  0  0  0
 18 19  1  0  0  0
 19 20  2  0  0  0
 19 21  1  0  0  0
 21 22  2  0  0  0
 22 23  1  0  0  0
 23 24  2  0  0  0
 24 25  1  0  0  0
 25 26  2  0  0  0
 26 27  1  0  0  0
 27 28  2  0  0  0
 28 29  1  0  0  0
 29 30  1  0  0  0
 30 31  2  0  0  0
  7  1  1  0  0  0
 31  8  1  0  0  0
 29  3  1  0  0  0
 14  9  1  0  0  0
 31 15  1  0  0  0
 21 16  1  0  0  0
 30 22  1  0  0  0
 28 23  1  0  0  0
 34 35  1  0  0  0
 18 32  1  0  0  0
M  END
> <minimizedAffinity>
-8.04579

> <CNNscore>
0.1015981957

> <CNNaffinity>
5.5168638229

> <CNN_VS>
0.5605034232

> <CNNaffinity_variance>
0.6188042760

$$$$
[H]OC([H])([H])[C@@]1(O[H])C([H])([H])[C@@]2([H])O[C@]1(C([H])([H])[H])n1c3c([H])c([H])c([H])c([H])c3c3c4c(c5c6c([H])c([H])c([H])c([H])c6n2c5c31)C(=O)N([H])C4([H])[H]


 36 43  0  0  0  0  0  0  0  0999 V2000
   35.5672   12.6524  -12.3372 C   0  0  0  0  0  0  0  0  0  0  0  0
   36.5228   13.1987  -13.3420 C   0  0  0  0  0  0  0  0  0  0  0  0
   37.7590   12.9025  -12.7039 O   0  0  0  0  0  0  0  0  0  0  0  0
   38.6875   13.8221  -13.0535 C   0  0  0  0  0  0  0  0  0  0  0  0
   37.9911   15.0999  -13.2528 C   0  0  0  0  0  0  0  0  0  0  0  0
   36.5430   14.6966  -13.4214 C   0  0  0  0  0  0  0  0  0  0  0  0
   36.1367   15.1823  -14.6552 O   0  0  0  0  0  0  0  0  0  0  0  0
   39.4591   13.3645  -14.2165 N   0  0  0  0  0  0  0  0  0  0  0  0
   40.7487   13.5035  -14.4713 C   0  0  0  0  0  0  0  0  0  0  0  0
   41.7091   14.1196  -13.7115 C   0  0  0  0  0  0  0  0  0  0  0  0
   43.0139   14.1417  -14.1885 C   0  0  0  0  0  0  0  0  0  0  0  0
   43.3320   13.5613  -15.3895 C   0  0  0  0  0  0  0  0  0  0  0  0
   42.3532   12.9313  -16.1676 C   0  0  0  0  0  0  0  0  0  0  0  0
   41.0751   12.9155  -15.6896 C   0  0  0  0  0  0  0  0  0  0  0  0
   39.8970   12.3990  -16.1794 C   0  0  0  0  0  0  0  0  0  0  0  0
   39.5575   11.7186  -17.3346 C   0  0  0  0  0  0  0  0  0  0  0  0
   40.2900   11.2483  -18.4965 C   0  0  0  0  0  0  0  0  0  0  0  0
   41.4846   11.3368  -18.7847 O   0  0  0  0  0  0  0  0  0  0  0  0
   39.3518   10.5983  -19.3598 N   0  0  0  0  0  0  0  0  0  0  0  0
   38.0253   10.6399  -18.7940 C   0  0  0  0  0  0  0  0  0  0  0  0
   38.2352   11.3563  -17.5121 C   0  0  0  0  0  0  0  0  0  0  0  0
   37.2524   11.6525  -16.5740 C   0  0  0  0  0  0  0  0  0  0  0  0
   35.9114   11.4485  -16.4858 C   0  0  0  0  0  0  0  0  0  0  0  0
   35.0458   10.8366  -17.3628 C   0  0  0  0  0  0  0  0  0  0  0  0
   33.6868   10.7733  -17.0412 C   0  0  0  0  0  0  0  0  0  0  0  0
   33.2597   11.3304  -15.8492 C   0  0  0  0  0  0  0  0  0  0  0  0
   34.1506   11.9408  -14.9834 C   0  0  0  0  0  0  0  0  0  0  0  0
   35.4906   12.0130  -15.2790 C   0  0  0  0  0  0  0  0  0  0  0  0
   36.5521   12.5558  -14.6246 N   0  0  0  0  0  0  0  0  0  0  0  0
   37.6232   12.3183  -15.4546 C   0  0  0  0  0  0  0  0  0  0  0  0
   38.9307   12.6971  -15.2429 C   0  0  0  0  0  0  0  0  0  0  0  0
   35.7714   16.0903  -14.5244 H   0  0  0  0  0  0  0  0  0  0  0  0
   39.5591   10.1403  -20.2883 H   0  0  0  0  0  0  0  0  0  0  0  0
   35.7448   15.3705  -12.3573 C   0  0  0  0  0  0  0  0  0  0  0  0
   36.2284   16.6701  -12.2022 O   0  0  0  0  0  0  0  0  0  0  0  0
   36.7090   16.7988  -11.3453 H   0  0  0  0  0  0  0  0  0  0  0  0
  2  1  1  0  0  0
  2  3  1  0  0  0
  3  4  1  0  0  0
  4  5  1  0  0  0
  5  6  1  0  0  0
  6  7  1  0  0  0
  6 34  1  0  0  0
 34 35  1  0  0  0
  4  8  1  0  0  0
  8  9  1  0  0  0
  9 10  2  0  0  0
 10 11  1  0  0  0
 11 12  2  0  0  0
 12 13  1  0  0  0
 13 14  2  0  0  0
 14 15  1  0  0  0
 15 16  2  0  0  0
 16 17  1  0  0  0
 17 18  2  0  0  0
 17 19  1  0  0  0
 19 20  1  0  0  0
 20 21  1  0  0  0
 21 22  2  0  0  0
 22 23  1  0  0  0
 23 24  2  0  0  0
 24 25  1  0  0  0
 25 26  2  0  0  0
 26 27  1  0  0  0
 27 28  2  0  0  0
 28 29  1  0  0  0
 29 30  1  0  0  0
 30 31  2  0  0  0
  6  2  1  0  0  0
 31  8  1  0  0  0
 29  2  1  0  0  0
 14  9  1  0  0  0
 31 15  1  0  0  0
 21 16  1  0  0  0
 30 22  1  0  0  0
 28 23  1  0  0  0
  7 32  1  0  0  0
 35 36  1  0  0  0
 19 33  1  0  0  0
M  END
> <minimizedAffinity>
-13.52958

> <CNNscore>
0.9700492024

> <CNNaffinity>
7.5617651939

> <CNN_VS>
7.3352842331

> <CNNaffinity_variance>
0.0875248611

$$$$
[H]OC([H])([H])[C@@]1(O[H])C([H])([H])[C@@]2([H])O[C@]1(C([H])([H])[H])n1c3c([H])c([H])c([H])c([H])c3c3c4c(c5c6c([H])c([H])c([H])c([H])c6n2c5c31)C(=O)N([H])C4([H])[H]


 36 43  0  0  0  0  0  0  0  0999 V2000
   36.9422   16.8519  -11.5709 C   0  0  0  0  0  0  0  0  0  0  0  0
   36.9761   15.4391  -12.0442 C   0  0  0  0  0  0  0  0  0  0  0  0
   35.9112   15.4615  -12.9868 O   0  0  0  0  0  0  0  0  0  0  0  0
   35.3358   14.2392  -13.0578 C   0  0  0  0  0  0  0  0  0  0  0  0
   35.4259   13.6299  -11.7243 C   0  0  0  0  0  0  0  0  0  0  0  0
   36.5000   14.4393  -11.0321 C   0  0  0  0  0  0  0  0  0  0  0  0
   37.4856   13.5433  -10.6461 O   0  0  0  0  0  0  0  0  0  0  0  0
   35.9429   13.4413  -14.1311 N   0  0  0  0  0  0  0  0  0  0  0  0
   35.3686   12.6037  -14.9773 C   0  0  0  0  0  0  0  0  0  0  0  0
   34.0459   12.2561  -15.0715 C   0  0  0  0  0  0  0  0  0  0  0  0
   33.6715   11.3450  -16.0514 C   0  0  0  0  0  0  0  0  0  0  0  0
   34.6027   10.8076  -16.9027 C   0  0  0  0  0  0  0  0  0  0  0  0
   35.9543   11.1609  -16.8088 C   0  0  0  0  0  0  0  0  0  0  0  0
   36.3109   12.0564  -15.8428 C   0  0  0  0  0  0  0  0  0  0  0  0
   37.5164   12.6111  -15.4773 C   0  0  0  0  0  0  0  0  0  0  0  0
   38.8140   12.4662  -15.9332 C   0  0  0  0  0  0  0  0  0  0  0  0
   39.4466   11.6948  -16.9880 C   0  0  0  0  0  0  0  0  0  0  0  0
   38.9678   10.9113  -17.8096 O   0  0  0  0  0  0  0  0  0  0  0  0
   40.8467   11.9883  -16.9524 N   0  0  0  0  0  0  0  0  0  0  0  0
   41.1440   12.9253  -15.8963 C   0  0  0  0  0  0  0  0  0  0  0  0
   39.8105   13.1867  -15.3014 C   0  0  0  0  0  0  0  0  0  0  0  0
   39.5468   14.0409  -14.2364 C   0  0  0  0  0  0  0  0  0  0  0  0
   40.2980   14.8380  -13.4313 C   0  0  0  0  0  0  0  0  0  0  0  0
   41.6548   15.0658  -13.4221 C   0  0  0  0  0  0  0  0  0  0  0  0
   42.1909   15.9296  -12.4626 C   0  0  0  0  0  0  0  0  0  0  0  0
   41.3353   16.5258  -11.5536 C   0  0  0  0  0  0  0  0  0  0  0  0
   39.9735   16.2803  -11.5835 C   0  0  0  0  0  0  0  0  0  0  0  0
   39.4252   15.4359  -12.5187 C   0  0  0  0  0  0  0  0  0  0  0  0
   38.1513   15.0217  -12.7540 N   0  0  0  0  0  0  0  0  0  0  0  0
   38.2638   14.1583  -13.8190 C   0  0  0  0  0  0  0  0  0  0  0  0
   37.2441   13.4557  -14.4227 C   0  0  0  0  0  0  0  0  0  0  0  0
   37.2723   13.2226   -9.7369 H   0  0  0  0  0  0  0  0  0  0  0  0
   41.5913   11.5964  -17.5902 H   0  0  0  0  0  0  0  0  0  0  0  0
   35.9064   15.0514   -9.8087 C   0  0  0  0  0  0  0  0  0  0  0  0
   35.7403   14.0489   -8.8526 O   0  0  0  0  0  0  0  0  0  0  0  0
   34.7880   13.8224   -8.6986 H   0  0  0  0  0  0  0  0  0  0  0  0
  2  1  1  0  0  0
  2  3  1  0  0  0
  3  4  1  0  0  0
  4  5  1  0  0  0
  5  6  1  0  0  0
  6  7  1  0  0  0
  6 34  1  0  0  0
 34 35  1  0  0  0
  4  8  1  0  0  0
  8  9  1  0  0  0
  9 10  2  0  0  0
 10 11  1  0  0  0
 11 12  2  0  0  0
 12 13  1  0  0  0
 13 14  2  0  0  0
 14 15  1  0  0  0
 15 16  2  0  0  0
 16 17  1  0  0  0
 17 18  2  0  0  0
 17 19  1  0  0  0
 19 20  1  0  0  0
 20 21  1  0  0  0
 21 22  2  0  0  0
 22 23  1  0  0  0
 23 24  2  0  0  0
 24 25  1  0  0  0
 25 26  2  0  0  0
 26 27  1  0  0  0
 27 28  2  0  0  0
 28 29  1  0  0  0
 29 30  1  0  0  0
 30 31  2  0  0  0
  6  2  1  0  0  0
 31  8  1  0  0  0
 29  2  1  0  0  0
 14  9  1  0  0  0
 31 15  1  0  0  0
 21 16  1  0  0  0
 30 22  1  0  0  0
 28 23  1  0  0  0
  7 32  1  0  0  0
 35 36  1  0  0  0
 19 33  1  0  0  0
M  END
> <minimizedAffinity>
-11.27583

> <CNNscore>
0.5484931469

> <CNNaffinity>
6.7071733475

> <CNN_VS>
3.6788387299

> <CNNaffinity_variance>
0.0609079190

$$$$
[H]OC([H])([H])[C@@]1(O[H])C([H])([H])[C@@]2([H])O[C@]1(C([H])([H])[H])n1c3c([H])c([H])c([H])c([H])c3c3c4c(c5c6c([H])c([H])c([H])c([H])c6n2c5c31)C(=O)N([H])C4([H])[H]


 36 43  0  0  0  0  0  0  0  0999 V2000
   35.2944   12.0957  -13.1172 C   0  0  0  0  0  0  0  0  0  0  0  0
   36.3208   13.0974  -13.5225 C   0  0  0  0  0  0  0  0  0  0  0  0
   37.0648   13.2015  -12.3148 O   0  0  0  0  0  0  0  0  0  0  0  0
   37.5926   14.4424  -12.2067 C   0  0  0  0  0  0  0  0  0  0  0  0
   36.6552   15.3784  -12.8414 C   0  0  0  0  0  0  0  0  0  0  0  0
   35.7867   14.4878  -13.7020 C   0  0  0  0  0  0  0  0  0  0  0  0
   35.9064   14.9537  -15.0027 O   0  0  0  0  0  0  0  0  0  0  0  0
   38.9526   14.4781  -12.7600 N   0  0  0  0  0  0  0  0  0  0  0  0
   40.0173   15.1267  -12.3205 C   0  0  0  0  0  0  0  0  0  0  0  0
   40.1288   15.9452  -11.2265 C   0  0  0  0  0  0  0  0  0  0  0  0
   41.3633   16.5239  -10.9587 C   0  0  0  0  0  0  0  0  0  0  0  0
   42.4425   16.2817  -11.7694 C   0  0  0  0  0  0  0  0  0  0  0  0
   42.3316   15.4462  -12.8874 C   0  0  0  0  0  0  0  0  0  0  0  0
   41.1146   14.8831  -13.1409 C   0  0  0  0  0  0  0  0  0  0  0  0
   40.6602   14.0359  -14.1260 C   0  0  0  0  0  0  0  0  0  0  0  0
   41.2506   13.4481  -15.2299 C   0  0  0  0  0  0  0  0  0  0  0  0
   42.5851   13.4571  -15.8016 C   0  0  0  0  0  0  0  0  0  0  0  0
   43.6134   14.0286  -15.4355 O   0  0  0  0  0  0  0  0  0  0  0  0
   42.5562   12.6307  -16.9695 N   0  0  0  0  0  0  0  0  0  0  0  0
   41.2351   12.0895  -17.1780 C   0  0  0  0  0  0  0  0  0  0  0  0
   40.4671   12.6436  -16.0363 C   0  0  0  0  0  0  0  0  0  0  0  0
   39.1218   12.4125  -15.7706 C   0  0  0  0  0  0  0  0  0  0  0  0
   38.1275   11.7084  -16.3733 C   0  0  0  0  0  0  0  0  0  0  0  0
   38.1463   10.9460  -17.5184 C   0  0  0  0  0  0  0  0  0  0  0  0
   36.9648   10.3311  -17.9432 C   0  0  0  0  0  0  0  0  0  0  0  0
   35.8156   10.5123  -17.1948 C   0  0  0  0  0  0  0  0  0  0  0  0
   35.8225   11.2843  -16.0461 C   0  0  0  0  0  0  0  0  0  0  0  0
   36.9727   11.8966  -15.6096 C   0  0  0  0  0  0  0  0  0  0  0  0
   37.2439   12.7008  -14.5470 N   0  0  0  0  0  0  0  0  0  0  0  0
   38.5793   13.0037  -14.6797 C   0  0  0  0  0  0  0  0  0  0  0  0
   39.3278   13.8128  -13.8533 C   0  0  0  0  0  0  0  0  0  0  0  0
   35.2023   15.6290  -15.1547 H   0  0  0  0  0  0  0  0  0  0  0  0
   43.3646   12.4204  -17.6154 H   0  0  0  0  0  0  0  0  0  0  0  0
   34.3710   14.6542  -13.2643 C   0  0  0  0  0  0  0  0  0  0  0  0
   33.5627   14.7011  -14.4006 O   0  0  0  0  0  0  0  0  0  0  0  0
   33.1840   15.6024  -14.5627 H   0  0  0  0  0  0  0  0  0  0  0  0
  2  1  1  0  0  0
  2  3  1  0  0  0
  3  4  1  0  0  0
  4  5  1  0  0  0
  5  6  1  0  0  0
  6  7  1  0  0  0
  6 34  1  0  0  0
 34 35  1  0  0  0
  4  8  1  0  0  0
  8  9  1  0  0  0
  9 10  2  0  0  0
 10 11  1  0  0  0
 11 12  2  0  0  0
 12 13  1  0  0  0
 13 14  2  0  0  0
 14 15  1  0  0  0
 15 16  2  0  0  0
 16 17  1  0  0  0
 17 18  2  0  0  0
 17 19  1  0  0  0
 19 20  1  0  0  0
 20 21  1  0  0  0
 21 22  2  0  0  0
 22 23  1  0  0  0
 23 24  2  0  0  0
 24 25  1  0  0  0
 25 26  2  0  0  0
 26 27  1  0  0  0
 27 28  2  0  0  0
 28 29  1  0  0  0
 29 30  1  0  0  0
 30 31  2  0  0  0
  6  2  1  0  0  0
 31  8  1  0  0  0
 29  2  1  0  0  0
 14  9  1  0  0  0
 31 15  1  0  0  0
 21 16  1  0  0  0
 30 22  1  0  0  0
 28 23  1  0  0  0
  7 32  1  0  0  0
 35 36  1  0  0  0
 19 33  1  0  0  0
M  END
> <minimizedAffinity>
-12.18900

> <CNNscore>
0.4270305932

> <CNNaffinity>
6.7820701599

> <CNN_VS>
2.8961515427

> <CNNaffinity_variance>
0.0852743238

$$$$
[H]OC([H])([H])[C@@]1(O[H])C([H])([H])[C@@]2([H])O[C@]1(C([H])([H])[H])n1c3c([H])c([H])c([H])c([H])c3c3c4c(c5c6c([H])c([H])c([H])c([H])c6n2c5c31)C(=O)N([H])C4([H])[H]


 36 43  0  0  0  0  0  0  0  0999 V2000
   39.2991   14.4663  -11.0883 C   0  0  0  0  0  0  0  0  0  0  0  0
   38.8683   14.4014  -12.5136 C   0  0  0  0  0  0  0  0  0  0  0  0
   39.5132   13.2004  -12.9193 O   0  0  0  0  0  0  0  0  0  0  0  0
   39.8177   13.2655  -14.2358 C   0  0  0  0  0  0  0  0  0  0  0  0
   40.1133   14.6690  -14.5524 C   0  0  0  0  0  0  0  0  0  0  0  0
   39.5057   15.4329  -13.3969 C   0  0  0  0  0  0  0  0  0  0  0  0
   38.5920   16.3208  -13.9447 O   0  0  0  0  0  0  0  0  0  0  0  0
   38.7451   12.6742  -15.0465 N   0  0  0  0  0  0  0  0  0  0  0  0
   38.8335   11.9324  -16.1370 C   0  0  0  0  0  0  0  0  0  0  0  0
   39.9591   11.5216  -16.8030 C   0  0  0  0  0  0  0  0  0  0  0  0
   39.8038   10.7382  -17.9400 C   0  0  0  0  0  0  0  0  0  0  0  0
   38.5553   10.3853  -18.3840 C   0  0  0  0  0  0  0  0  0  0  0  0
   37.4039   10.8034  -17.7058 C   0  0  0  0  0  0  0  0  0  0  0  0
   37.5680   11.5724  -16.5904 C   0  0  0  0  0  0  0  0  0  0  0  0
   36.6811   12.1427  -15.7057 C   0  0  0  0  0  0  0  0  0  0  0  0
   35.3013   12.1667  -15.6157 C   0  0  0  0  0  0  0  0  0  0  0  0
   34.2162   11.5935  -16.3915 C   0  0  0  0  0  0  0  0  0  0  0  0
   34.2343   10.8903  -17.4030 O   0  0  0  0  0  0  0  0  0  0  0  0
   32.9896   11.9886  -15.7692 N   0  0  0  0  0  0  0  0  0  0  0  0
   33.2473   12.8111  -14.6122 C   0  0  0  0  0  0  0  0  0  0  0  0
   34.7289   12.8735  -14.5745 C   0  0  0  0  0  0  0  0  0  0  0  0
   35.4920   13.5502  -13.6293 C   0  0  0  0  0  0  0  0  0  0  0  0
   35.2196   14.3198  -12.5425 C   0  0  0  0  0  0  0  0  0  0  0  0
   34.0127   14.6938  -11.9980 C   0  0  0  0  0  0  0  0  0  0  0  0
   34.0043   15.5209  -10.8710 C   0  0  0  0  0  0  0  0  0  0  0  0
   35.2136   15.9353  -10.3423 C   0  0  0  0  0  0  0  0  0  0  0  0
   36.4148   15.5453  -10.9085 C   0  0  0  0  0  0  0  0  0  0  0  0
   36.4464   14.7317  -12.0155 C   0  0  0  0  0  0  0  0  0  0  0  0
   37.4657   14.2238  -12.7589 N   0  0  0  0  0  0  0  0  0  0  0  0
   36.8401   13.5024  -13.7492 C   0  0  0  0  0  0  0  0  0  0  0  0
   37.4468   12.8095  -14.7737 C   0  0  0  0  0  0  0  0  0  0  0  0
   39.0616   17.1680  -14.1361 H   0  0  0  0  0  0  0  0  0  0  0  0
   32.0128   11.7361  -16.0804 H   0  0  0  0  0  0  0  0  0  0  0  0
   40.5894   16.2129  -12.7329 C   0  0  0  0  0  0  0  0  0  0  0  0
   40.0028   17.0917  -11.8216 O   0  0  0  0  0  0  0  0  0  0  0  0
   40.0655   18.0378  -12.1092 H   0  0  0  0  0  0  0  0  0  0  0  0
  2  1  1  0  0  0
  2  3  1  0  0  0
  3  4  1  0  0  0
  4  5  1  0  0  0
  5  6  1  0  0  0
  6  7  1  0  0  0
  6 34  1  0  0  0
 34 35  1  0  0  0
  4  8  1  0  0  0
  8  9  1  0  0  0
  9 10  2  0  0  0
 10 11  1  0  0  0
 11 12  2  0  0  0
 12 13  1  0  0  0
 13 14  2  0  0  0
 14 15  1  0  0  0
 15 16  2  0  0  0
 16 17  1  0  0  0
 17 18  2  0  0  0
 17 19  1  0  0  0
 19 20  1  0  0  0
 20 21  1  0  0  0
 21 22  2  0  0  0
 22 23  1  0  0  0
 23 24  2  0  0  0
 24 25  1  0  0  0
 25 26  2  0  0  0
 26 27  1  0  0  0
 27 28  2  0  0  0
 28 29  1  0  0  0
 29 30  1  0  0  0
 30 31  2  0  0  0
  6  2  1  0  0  0
 31  8  1  0  0  0
 29  2  1  0  0  0
 14  9  1  0  0  0
 31 15  1  0  0  0
 21 16  1  0  0  0
 30 22  1  0  0  0
 28 23  1  0  0  0
  7 32  1  0  0  0
 35 36  1  0  0  0
 19 33  1  0  0  0
M  END
> <minimizedAffinity>
-4.07083

> <CNNscore>
0.4159988463

> <CNNaffinity>
6.5018639565

> <CNN_VS>
2.7047679424

> <CNNaffinity_variance>
0.2410023957

$$$$
[H]OC([H])([H])[C@@]1(O[H])C([H])([H])[C@@]2([H])O[C@]1(C([H])([H])[H])n1c3c([H])c([H])c([H])c([H])c3c3c4c(c5c6c([H])c([H])c([H])c([H])c6n2c5c31)C(=O)N([H])C4([H])[H]


 36 43  0  0  0  0  0  0  0  0999 V2000
   41.2229   10.3093  -17.2239 C   0  0  0  0  0  0  0  0  0  0  0  0
   40.2468   11.4149  -17.0090 C   0  0  0  0  0  0  0  0  0  0  0  0
   39.1370   10.6799  -16.5079 O   0  0  0  0  0  0  0  0  0  0  0  0
   37.9844   11.3026  -16.8452 C   0  0  0  0  0  0  0  0  0  0  0  0
   38.1978   11.9541  -18.1444 C   0  0  0  0  0  0  0  0  0  0  0  0
   39.7037   12.0111  -18.2739 C   0  0  0  0  0  0  0  0  0  0  0  0
   40.0381   13.3475  -18.4336 O   0  0  0  0  0  0  0  0  0  0  0  0
   37.5529   12.2113  -15.7751 N   0  0  0  0  0  0  0  0  0  0  0  0
   36.3326   12.4630  -15.3336 C   0  0  0  0  0  0  0  0  0  0  0  0
   35.1417   11.9398  -15.7662 C   0  0  0  0  0  0  0  0  0  0  0  0
   33.9722   12.3585  -15.1437 C   0  0  0  0  0  0  0  0  0  0  0  0
   34.0096   13.2725  -14.1220 C   0  0  0  0  0  0  0  0  0  0  0  0
   35.2244   13.8086  -13.6781 C   0  0  0  0  0  0  0  0  0  0  0  0
   36.3668   13.3903  -14.2965 C   0  0  0  0  0  0  0  0  0  0  0  0
   37.6960   13.7014  -14.1210 C   0  0  0  0  0  0  0  0  0  0  0  0
   38.3748   14.5556  -13.2711 C   0  0  0  0  0  0  0  0  0  0  0  0
   37.9840   15.4600  -12.2047 C   0  0  0  0  0  0  0  0  0  0  0  0
   36.8733   15.7280  -11.7435 O   0  0  0  0  0  0  0  0  0  0  0  0
   39.1772   16.0678  -11.7000 N   0  0  0  0  0  0  0  0  0  0  0  0
   40.3348   15.5887  -12.4154 C   0  0  0  0  0  0  0  0  0  0  0  0
   39.7503   14.6319  -13.3867 C   0  0  0  0  0  0  0  0  0  0  0  0
   40.4590   13.8834  -14.3200 C   0  0  0  0  0  0  0  0  0  0  0  0
   41.7676   13.7663  -14.6685 C   0  0  0  0  0  0  0  0  0  0  0  0
   42.8814   14.3984  -14.1654 C   0  0  0  0  0  0  0  0  0  0  0  0
   44.1322   14.1123  -14.7204 C   0  0  0  0  0  0  0  0  0  0  0  0
   44.2053   13.2017  -15.7592 C   0  0  0  0  0  0  0  0  0  0  0  0
   43.0699   12.5790  -16.2479 C   0  0  0  0  0  0  0  0  0  0  0  0
   41.8307   12.8443  -15.7163 C   0  0  0  0  0  0  0  0  0  0  0  0
   40.5832   12.3913  -16.0127 N   0  0  0  0  0  0  0  0  0  0  0  0
   39.7602   13.0567  -15.1338 C   0  0  0  0  0  0  0  0  0  0  0  0
   38.3889   12.9546  -15.0492 C   0  0  0  0  0  0  0  0  0  0  0  0
   40.0407   13.5516  -19.3997 H   0  0  0  0  0  0  0  0  0  0  0  0
   39.2452   16.7722  -10.9163 H   0  0  0  0  0  0  0  0  0  0  0  0
   40.0935   11.2712  -19.5085 C   0  0  0  0  0  0  0  0  0  0  0  0
   39.2790   11.7041  -20.5554 O   0  0  0  0  0  0  0  0  0  0  0  0
   38.6298   11.0135  -20.8446 H   0  0  0  0  0  0  0  0  0  0  0  0
  2  1  1  0  0  0
  2  3  1  0  0  0
  3  4  1  0  0  0
  4  5  1  0  0  0
  5  6  1  0  0  0
  6  7  1  0  0  0
  6 34  1  0  0  0
 34 35  1  0  0  0
  4  8  1  0  0  0
  8  9  1  0  0  0
  9 10  2  0  0  0
 10 11  1  0  0  0
 11 12  2  0  0  0
 12 13  1  0  0  0
 13 14  2  0  0  0
 14 15  1  0  0  0
 15 16  2  0  0  0
 16 17  1  0  0  0
 17 18  2  0  0  0
 17 19  1  0  0  0
 19 20  1  0  0  0
 20 21  1  0  0  0
 21 22  2  0  0  0
 22 23  1  0  0  0
 23 24  2  0  0  0
 24 25  1  0  0  0
 25 26  2  0  0  0
 26 27  1  0  0  0
 27 28  2  0  0  0
 28 29  1  0  0  0
 29 30  1  0  0  0
 30 31  2  0  0  0
  6  2  1  0  0  0
 31  8  1  0  0  0
 29  2  1  0  0  0
 14  9  1  0  0  0
 31 15  1  0  0  0
 21 16  1  0  0  0
 30 22  1  0  0  0
 28 23  1  0  0  0
  7 32  1  0  0  0
 35 36  1  0  0  0
 19 33  1  0  0  0
M  END
> <minimizedAffinity>
-7.74014

> <CNNscore>
0.2284593731

> <CNNaffinity>
6.4101853371

> <CNN_VS>
1.4644669294

> <CNNaffinity_variance>
0.0629564151

$$$$
[H]OC([H])([H])[C@@]1(O[H])C([H])([H])[C@@]2([H])O[C@]1(C([H])([H])[H])n1c3c([H])c([H])c([H])c([H])c3c3c4c(c5c6c([H])c([H])c([H])c([H])c6n2c5c31)C(=O)N([H])C4([H])[H]


 36 43  0  0  0  0  0  0  0  0999 V2000
   34.6846   11.4798  -13.9859 C   0  0  0  0  0  0  0  0  0  0  0  0
   35.4734   12.7400  -13.8813 C   0  0  0  0  0  0  0  0  0  0  0  0
   35.6341   12.8226  -12.4705 O   0  0  0  0  0  0  0  0  0  0  0  0
   35.7200   14.1191  -12.0938 C   0  0  0  0  0  0  0  0  0  0  0  0
   34.8847   14.9030  -13.0132 C   0  0  0  0  0  0  0  0  0  0  0  0
   34.6940   13.9821  -14.1980 C   0  0  0  0  0  0  0  0  0  0  0  0
   35.1755   14.6590  -15.3085 O   0  0  0  0  0  0  0  0  0  0  0  0
   37.1228   14.5499  -12.0326 N   0  0  0  0  0  0  0  0  0  0  0  0
   37.7148   15.3484  -11.1612 C   0  0  0  0  0  0  0  0  0  0  0  0
   37.1678   15.9907  -10.0808 C   0  0  0  0  0  0  0  0  0  0  0  0
   37.9949   16.7875   -9.2986 C   0  0  0  0  0  0  0  0  0  0  0  0
   39.3252   16.9271   -9.6010 C   0  0  0  0  0  0  0  0  0  0  0  0
   39.8866   16.2723  -10.7038 C   0  0  0  0  0  0  0  0  0  0  0  0
   39.0652   15.4923  -11.4650 C   0  0  0  0  0  0  0  0  0  0  0  0
   39.2758   14.7271  -12.5896 C   0  0  0  0  0  0  0  0  0  0  0  0
   40.3826   14.4684  -13.3775 C   0  0  0  0  0  0  0  0  0  0  0  0
   41.7771   14.8707  -13.3449 C   0  0  0  0  0  0  0  0  0  0  0  0
   42.3865   15.5981  -12.5590 O   0  0  0  0  0  0  0  0  0  0  0  0
   42.4278   14.2511  -14.4587 N   0  0  0  0  0  0  0  0  0  0  0  0
   41.4912   13.4615  -15.2209 C   0  0  0  0  0  0  0  0  0  0  0  0
   40.2225   13.6413  -14.4737 C   0  0  0  0  0  0  0  0  0  0  0  0
   38.9971   13.0706  -14.7997 C   0  0  0  0  0  0  0  0  0  0  0  0
   38.5451   12.2602  -15.7931 C   0  0  0  0  0  0  0  0  0  0  0  0
   39.2115   11.7095  -16.8634 C   0  0  0  0  0  0  0  0  0  0  0  0
   38.5017   10.9145  -17.7681 C   0  0  0  0  0  0  0  0  0  0  0  0
   37.1504   10.7099  -17.5543 C   0  0  0  0  0  0  0  0  0  0  0  0
   36.5026   11.2752  -16.4696 C   0  0  0  0  0  0  0  0  0  0  0  0
   37.1810   12.0587  -15.5674 C   0  0  0  0  0  0  0  0  0  0  0  0
   36.7908   12.7287  -14.4501 N   0  0  0  0  0  0  0  0  0  0  0  0
   37.9366   13.3456  -14.0037 C   0  0  0  0  0  0  0  0  0  0  0  0
   38.0568   14.1660  -12.9036 C   0  0  0  0  0  0  0  0  0  0  0  0
   34.4301   15.1709  -15.7051 H   0  0  0  0  0  0  0  0  0  0  0  0
   43.4470   14.3339  -14.7217 H   0  0  0  0  0  0  0  0  0  0  0  0
   33.2319   13.7506  -14.3775 C   0  0  0  0  0  0  0  0  0  0  0  0
   32.5972   13.9849  -13.1573 O   0  0  0  0  0  0  0  0  0  0  0  0
   32.2566   13.1539  -12.7385 H   0  0  0  0  0  0  0  0  0  0  0  0
  2  1  1  0  0  0
  2  3  1  0  0  0
  3  4  1  0  0  0
  4  5  1  0  0  0
  5  6  1  0  0  0
  6  7  1  0  0  0
  6 34  1  0  0  0
 34 35  1  0  0  0
  4  8  1  0  0  0
  8  9  1  0  0  0
  9 10  2  0  0  0
 10 11  1  0  0  0
 11 12  2  0  0  0
 12 13  1  0  0  0
 13 14  2  0  0  0
 14 15  1  0  0  0
 15 16  2  0  0  0
 16 17  1  0  0  0
 17 18  2  0  0  0
 17 19  1  0  0  0
 19 20  1  0  0  0
 20 21  1  0  0  0
 21 22  2  0  0  0
 22 23  1  0  0  0
 23 24  2  0  0  0
 24 25  1  0  0  0
 25 26  2  0  0  0
 26 27  1  0  0  0
 27 28  2  0  0  0
 28 29  1  0  0  0
 29 30  1  0  0  0
 30 31  2  0  0  0
  6  2  1  0  0  0
 31  8  1  0  0  0
 29  2  1  0  0  0
 14  9  1  0  0  0
 31 15  1  0  0  0
 21 16  1  0  0  0
 30 22  1  0  0  0
 28 23  1  0  0  0
  7 32  1  0  0  0
 35 36  1  0  0  0
 19 33  1  0  0  0
M  END
> <minimizedAffinity>
-10.87837

> <CNNscore>
0.2167924047

> <CNNaffinity>
6.2299375534

> <CNN_VS>
1.3506031036

> <CNNaffinity_variance>
0.2321807891

$$$$
[H]OC([H])([H])[C@@]1(O[H])C([H])([H])[C@@]2([H])O[C@]1(C([H])([H])[H])n1c3c([H])c([H])c([H])c([H])c3c3c4c(c5c6c([H])c([H])c([H])c([H])c6n2c5c31)C(=O)N([H])C4([H])[H]


 36 43  0  0  0  0  0  0  0  0999 V2000
   43.4987   16.9934  -12.8875 C   0  0  0  0  0  0  0  0  0  0  0  0
   44.4553   16.4724  -11.8702 C   0  0  0  0  0  0  0  0  0  0  0  0
   43.6615   16.5832  -10.6951 O   0  0  0  0  0  0  0  0  0  0  0  0
   44.4575   16.7974   -9.6225 C   0  0  0  0  0  0  0  0  0  0  0  0
   45.6130   17.5811  -10.0788 C   0  0  0  0  0  0  0  0  0  0  0  0
   45.6053   17.3908  -11.5794 C   0  0  0  0  0  0  0  0  0  0  0  0
   46.8356   16.8469  -11.9169 O   0  0  0  0  0  0  0  0  0  0  0  0
   44.8052   15.5272   -8.9722 N   0  0  0  0  0  0  0  0  0  0  0  0
   44.9211   15.2515   -7.6846 C   0  0  0  0  0  0  0  0  0  0  0  0
   44.7491   16.0877   -6.6121 C   0  0  0  0  0  0  0  0  0  0  0  0
   44.9258   15.5682   -5.3355 C   0  0  0  0  0  0  0  0  0  0  0  0
   45.2638   14.2515   -5.1543 C   0  0  0  0  0  0  0  0  0  0  0  0
   45.4401   13.3952   -6.2479 C   0  0  0  0  0  0  0  0  0  0  0  0
   45.2641   13.9159   -7.4970 C   0  0  0  0  0  0  0  0  0  0  0  0
   45.3552   13.3756   -8.7596 C   0  0  0  0  0  0  0  0  0  0  0  0
   45.6690   12.1180   -9.2421 C   0  0  0  0  0  0  0  0  0  0  0  0
   46.0114   10.8456   -8.6325 C   0  0  0  0  0  0  0  0  0  0  0  0
   46.1241   10.5252   -7.4482 O   0  0  0  0  0  0  0  0  0  0  0  0
   46.2251    9.9072   -9.6916 N   0  0  0  0  0  0  0  0  0  0  0  0
   46.0383   10.5375  -10.9760 C   0  0  0  0  0  0  0  0  0  0  0  0
   45.6820   11.9306  -10.6117 C   0  0  0  0  0  0  0  0  0  0  0  0
   45.3918   12.9571  -11.5038 C   0  0  0  0  0  0  0  0  0  0  0  0
   45.3457   13.0734  -12.8573 C   0  0  0  0  0  0  0  0  0  0  0  0
   45.5877   12.1398  -13.8384 C   0  0  0  0  0  0  0  0  0  0  0  0
   45.4912   12.5242  -15.1791 C   0  0  0  0  0  0  0  0  0  0  0  0
   45.1553   13.8338  -15.4719 C   0  0  0  0  0  0  0  0  0  0  0  0
   44.9167   14.7546  -14.4664 C   0  0  0  0  0  0  0  0  0  0  0  0
   45.0046   14.3981  -13.1423 C   0  0  0  0  0  0  0  0  0  0  0  0
   44.8369   15.0940  -11.9860 N   0  0  0  0  0  0  0  0  0  0  0  0
   45.0874   14.1742  -10.9941 C   0  0  0  0  0  0  0  0  0  0  0  0
   45.0654   14.3998   -9.6352 C   0  0  0  0  0  0  0  0  0  0  0  0
   47.4589   17.5885  -12.1080 H   0  0  0  0  0  0  0  0  0  0  0  0
   46.4842    8.8886   -9.5911 H   0  0  0  0  0  0  0  0  0  0  0  0
   45.4856   18.7327  -12.2186 C   0  0  0  0  0  0  0  0  0  0  0  0
   46.7319   19.3577  -12.1642 O   0  0  0  0  0  0  0  0  0  0  0  0
   46.7496   20.1194  -11.5307 H   0  0  0  0  0  0  0  0  0  0  0  0
  2  1  1  0  0  0
  2  3  1  0  0  0
  3  4  1  0  0  0
  4  5  1  0  0  0
  5  6  1  0  0  0
  6  7  1  0  0  0
  6 34  1  0  0  0
 34 35  1  0  0  0
  4  8  1  0  0  0
  8  9  1  0  0  0
  9 10  2  0  0  0
 10 11  1  0  0  0
 11 12  2  0  0  0
 12 13  1  0  0  0
 13 14  2  0  0  0
 14 15  1  0  0  0
 15 16  2  0  0  0
 16 17  1  0  0  0
 17 18  2  0  0  0
 17 19  1  0  0  0
 19 20  1  0  0  0
 20 21  1  0  0  0
 21 22  2  0  0  0
 22 23  1  0  0  0
 23 24  2  0  0  0
 24 25  1  0  0  0
 25 26  2  0  0  0
 26 27  1  0  0  0
 27 28  2  0  0  0
 28 29  1  0  0  0
 29 30  1  0  0  0
 30 31  2  0  0  0
  6  2  1  0  0  0
 31  8  1  0  0  0
 29  2  1  0  0  0
 14  9  1  0  0  0
 31 15  1  0  0  0
 21 16  1  0  0  0
 30 22  1  0  0  0
 28 23  1  0  0  0
  7 32  1  0  0  0
 35 36  1  0  0  0
 19 33  1  0  0  0
M  END
> <minimizedAffinity>
-5.76255

> <CNNscore>
0.1786021143

> <CNNaffinity>
4.8461127281

> <CNN_VS>
0.8655259609

> <CNNaffinity_variance>
0.2549131215

$$$$
[H]OC([H])([H])[C@@]1(O[H])C([H])([H])[C@@]2([H])O[C@]1(C([H])([H])[H])n1c3c([H])c([H])c([H])c([H])c3c3c4c(c5c6c([H])c([H])c([H])c([H])c6n2c5c31)C(=O)N([H])C4([H])[H]


 36 43  0  0  0  0  0  0  0  0999 V2000
   45.5979   14.1559  -11.2664 C   0  0  0  0  0  0  0  0  0  0  0  0
   44.9063   14.3459   -9.9600 C   0  0  0  0  0  0  0  0  0  0  0  0
   43.5499   14.2267  -10.3710 O   0  0  0  0  0  0  0  0  0  0  0  0
   42.7593   14.9723   -9.5654 C   0  0  0  0  0  0  0  0  0  0  0  0
   43.5366   16.1460   -9.1464 C   0  0  0  0  0  0  0  0  0  0  0  0
   44.9682   15.7475   -9.4288 C   0  0  0  0  0  0  0  0  0  0  0  0
   45.6520   15.8446   -8.2262 O   0  0  0  0  0  0  0  0  0  0  0  0
   42.2382   14.1628   -8.4561 N   0  0  0  0  0  0  0  0  0  0  0  0
   41.0412   14.1848   -7.8955 C   0  0  0  0  0  0  0  0  0  0  0  0
   39.9668   14.9783   -8.2038 C   0  0  0  0  0  0  0  0  0  0  0  0
   38.7980   14.8210   -7.4691 C   0  0  0  0  0  0  0  0  0  0  0  0
   38.7223   13.8945   -6.4609 C   0  0  0  0  0  0  0  0  0  0  0  0
   39.8180   13.0826   -6.1438 C   0  0  0  0  0  0  0  0  0  0  0  0
   40.9608   13.2456   -6.8717 C   0  0  0  0  0  0  0  0  0  0  0  0
   42.1936   12.6347   -6.8313 C   0  0  0  0  0  0  0  0  0  0  0  0
   42.7450   11.6437   -6.0398 C   0  0  0  0  0  0  0  0  0  0  0  0
   42.2613   10.8235   -4.9438 C   0  0  0  0  0  0  0  0  0  0  0  0
   41.1621   10.7897   -4.3884 O   0  0  0  0  0  0  0  0  0  0  0  0
   43.3350    9.9656   -4.5448 N   0  0  0  0  0  0  0  0  0  0  0  0
   44.5084   10.2112   -5.3474 C   0  0  0  0  0  0  0  0  0  0  0  0
   44.0576   11.2783   -6.2740 C   0  0  0  0  0  0  0  0  0  0  0  0
   44.8263   11.8710   -7.2697 C   0  0  0  0  0  0  0  0  0  0  0  0
   46.1065   11.7377   -7.7067 C   0  0  0  0  0  0  0  0  0  0  0  0
   47.1140   10.9100   -7.2676 C   0  0  0  0  0  0  0  0  0  0  0  0
   48.3675   10.9823   -7.8824 C   0  0  0  0  0  0  0  0  0  0  0  0
   48.5505   11.8866   -8.9131 C   0  0  0  0  0  0  0  0  0  0  0  0
   47.5208   12.7087   -9.3368 C   0  0  0  0  0  0  0  0  0  0  0  0
   46.2806   12.6534   -8.7476 C   0  0  0  0  0  0  0  0  0  0  0  0
   45.1272   13.3425   -8.9582 N   0  0  0  0  0  0  0  0  0  0  0  0
   44.2515   12.8364   -8.0257 C   0  0  0  0  0  0  0  0  0  0  0  0
   42.9466   13.2282   -7.8214 C   0  0  0  0  0  0  0  0  0  0  0  0
   46.0191   16.7583   -8.1528 H   0  0  0  0  0  0  0  0  0  0  0  0
   43.3136    9.2415   -3.7767 H   0  0  0  0  0  0  0  0  0  0  0  0
   45.5459   16.7335  -10.3868 C   0  0  0  0  0  0  0  0  0  0  0  0
   45.2978   18.0169   -9.8989 O   0  0  0  0  0  0  0  0  0  0  0  0
   44.6281   18.5079  -10.4395 H   0  0  0  0  0  0  0  0  0  0  0  0
  2  1  1  0  0  0
  2  3  1  0  0  0
  3  4  1  0  0  0
  4  5  1  0  0  0
  5  6  1  0  0  0
  6  7  1  0  0  0
  6 34  1  0  0  0
 34 35  1  0  0  0
  4  8  1  0  0  0
  8  9  1  0  0  0
  9 10  2  0  0  0
 10 11  1  0  0  0
 11 12  2  0  0  0
 12 13  1  0  0  0
 13 14  2  0  0  0
 14 15  1  0  0  0
 15 16  2  0  0  0
 16 17  1  0  0  0
 17 18  2  0  0  0
 17 19  1  0  0  0
 19 20  1  0  0  0
 20 21  1  0  0  0
 21 22  2  0  0  0
 22 23  1  0  0  0
 23 24  2  0  0  0
 24 25  1  0  0  0
 25 26  2  0  0  0
 26 27  1  0  0  0
 27 28  2  0  0  0
 28 29  1  0  0  0
 29 30  1  0  0  0
 30 31  2  0  0  0
  6  2  1  0  0  0
 31  8  1  0  0  0
 29  2  1  0  0  0
 14  9  1  0  0  0
 31 15  1  0  0  0
 21 16  1  0  0  0
 30 22  1  0  0  0
 28 23  1  0  0  0
  7 32  1  0  0  0
 35 36  1  0  0  0
 19 33  1  0  0  0
M  END
> <minimizedAffinity>
-6.75336

> <CNNscore>
0.1514871866

> <CNNaffinity>
4.6788630486

> <CNN_VS>
0.7087877989

> <CNNaffinity_variance>
0.3488199413

$$$$
[H]OC([H])([H])[C@@]1(O[H])C([H])([H])[C@@]2([H])O[C@]1(C([H])([H])[H])n1c3c([H])c([H])c([H])c([H])c3c3c4c(c5c6c([H])c([H])c([H])c([H])c6n2c5c31)C(=O)N([H])C4([H])[H]


 36 43  0  0  0  0  0  0  0  0999 V2000
   39.0417   14.7119   -8.4425 C   0  0  0  0  0  0  0  0  0  0  0  0
   37.9341   15.7088   -8.4645 C   0  0  0  0  0  0  0  0  0  0  0  0
   36.8174   14.8440   -8.6328 O   0  0  0  0  0  0  0  0  0  0  0  0
   35.8374   15.4866   -9.3086 C   0  0  0  0  0  0  0  0  0  0  0  0
   36.4825   16.4162  -10.2452 C   0  0  0  0  0  0  0  0  0  0  0  0
   37.8888   16.5514   -9.7048 C   0  0  0  0  0  0  0  0  0  0  0  0
   38.0899   17.9005   -9.4545 O   0  0  0  0  0  0  0  0  0  0  0  0
   34.8948   16.1208   -8.3778 N   0  0  0  0  0  0  0  0  0  0  0  0
   33.5800   16.2272   -8.4626 C   0  0  0  0  0  0  0  0  0  0  0  0
   32.7473   15.7726   -9.4521 C   0  0  0  0  0  0  0  0  0  0  0  0
   31.3831   16.0034   -9.3241 C   0  0  0  0  0  0  0  0  0  0  0  0
   30.8833   16.6694   -8.2345 C   0  0  0  0  0  0  0  0  0  0  0  0
   31.7314   17.1347   -7.2223 C   0  0  0  0  0  0  0  0  0  0  0  0
   33.0693   16.9026   -7.3583 C   0  0  0  0  0  0  0  0  0  0  0  0
   34.1590   17.2119   -6.5764 C   0  0  0  0  0  0  0  0  0  0  0  0
   34.3165   17.8794   -5.3754 C   0  0  0  0  0  0  0  0  0  0  0  0
   33.4128   18.5116   -4.4312 C   0  0  0  0  0  0  0  0  0  0  0  0
   32.1869   18.6332   -4.4487 O   0  0  0  0  0  0  0  0  0  0  0  0
   34.2075   19.0327   -3.3612 N   0  0  0  0  0  0  0  0  0  0  0  0
   35.6066   18.7632   -3.5877 C   0  0  0  0  0  0  0  0  0  0  0  0
   35.5969   18.0258   -4.8748 C   0  0  0  0  0  0  0  0  0  0  0  0
   36.7136   17.5268   -5.5363 C   0  0  0  0  0  0  0  0  0  0  0  0
   38.0533   17.5341   -5.3063 C   0  0  0  0  0  0  0  0  0  0  0  0
   38.7738   18.0765   -4.2672 C   0  0  0  0  0  0  0  0  0  0  0  0
   40.1671   17.9629   -4.2761 C   0  0  0  0  0  0  0  0  0  0  0  0
   40.7733   17.3076   -5.3329 C   0  0  0  0  0  0  0  0  0  0  0  0
   40.0261   16.7705   -6.3668 C   0  0  0  0  0  0  0  0  0  0  0  0
   38.6556   16.8694   -6.3776 C   0  0  0  0  0  0  0  0  0  0  0  0
   37.7070   16.4514   -7.2578 N   0  0  0  0  0  0  0  0  0  0  0  0
   36.5197   16.8775   -6.7088 C   0  0  0  0  0  0  0  0  0  0  0  0
   35.2592   16.7129   -7.2398 C   0  0  0  0  0  0  0  0  0  0  0  0
   38.4636   18.3134  -10.2699 H   0  0  0  0  0  0  0  0  0  0  0  0
   33.8592   19.5480   -2.5080 H   0  0  0  0  0  0  0  0  0  0  0  0
   38.8401   16.1166  -10.7676 C   0  0  0  0  0  0  0  0  0  0  0  0
   38.1194   15.9101  -11.9443 O   0  0  0  0  0  0  0  0  0  0  0  0
   38.0546   14.9521  -12.1891 H   0  0  0  0  0  0  0  0  0  0  0  0
  2  1  1  0  0  0
  2  3  1  0  0  0
  3  4  1  0  0  0
  4  5  1  0  0  0
  5  6  1  0  0  0
  6  7  1  0  0  0
  6 34  1  0  0  0
 34 35  1  0  0  0
  4  8  1  0  0  0
  8  9  1  0  0  0
  9 10  2  0  0  0
 10 11  1  0  0  0
 11 12  2  0  0  0
 12 13  1  0  0  0
 13 14  2  0  0  0
 14 15  1  0  0  0
 15 16  2  0  0  0
 16 17  1  0  0  0
 17 18  2  0  0  0
 17 19  1  0  0  0
 19 20  1  0  0  0
 20 21  1  0  0  0
 21 22  2  0  0  0
 22 23  1  0  0  0
 23 24  2  0  0  0
 24 25  1  0  0  0
 25 26  2  0  0  0
 26 27  1  0  0  0
 27 28  2  0  0  0
 28 29  1  0  0  0
 29 30  1  0  0  0
 30 31  2  0  0  0
  6  2  1  0  0  0
 31  8  1  0  0  0
 29  2  1  0  0  0
 14  9  1  0  0  0
 31 15  1  0  0  0
 21 16  1  0  0  0
 30 22  1  0  0  0
 28 23  1  0  0  0
  7 32  1  0  0  0
 35 36  1  0  0  0
 19 33  1  0  0  0
M  END
> <minimizedAffinity>
-6.81196

> <CNNscore>
0.1480229497

> <CNNaffinity>
5.0470795631

> <CNN_VS>
0.7470836043

> <CNNaffinity_variance>
0.3049581945

$$$$
[H]c1c([H])c([H])c2c(c1[H])c1c3c(c4c5c([H])c([H])c([H])c([H])c5n5c4c1n2[C@]1([H])O[C@]5(C([H])([H])[H])[C@@]([H])(OC([H])([H])[H])[C@]([H])(N([H])C([H])([H])[H])C1([H])[H])C([H])([H])N([H])C3=O


 37 44  0  0  0  0  0  0  0  0999 V2000
   36.0736   14.7186  -11.2739 C   0  0  0  0  0  0  0  0  0  0  0  0
   37.5053   15.2211  -11.6490 C   0  0  0  0  0  0  0  0  0  0  0  0
   37.7008   14.5960  -12.8587 C   0  0  0  0  0  0  0  0  0  0  0  0
   36.7081   15.1020  -13.6826 O   0  0  0  0  0  0  0  0  0  0  0  0
   35.7073   14.0805  -13.7302 C   0  0  0  0  0  0  0  0  0  0  0  0
   34.5444   14.8478  -14.4178 C   0  0  0  0  0  0  0  0  0  0  0  0
   35.4490   13.7981  -12.3404 C   0  0  0  0  0  0  0  0  0  0  0  0
   36.1570   13.1098  -14.6945 N   0  0  0  0  0  0  0  0  0  0  0  0
   35.3477   12.3134  -15.4627 C   0  0  0  0  0  0  0  0  0  0  0  0
   34.0041   12.0695  -15.4693 C   0  0  0  0  0  0  0  0  0  0  0  0
   33.4559   11.1766  -16.3828 C   0  0  0  0  0  0  0  0  0  0  0  0
   34.2360   10.5115  -17.3040 C   0  0  0  0  0  0  0  0  0  0  0  0
   35.6028   10.7410  -17.3171 C   0  0  0  0  0  0  0  0  0  0  0  0
   36.0983   11.6254  -16.4026 C   0  0  0  0  0  0  0  0  0  0  0  0
   37.3967   12.0041  -16.2025 C   0  0  0  0  0  0  0  0  0  0  0  0
   38.6190   11.7275  -16.7971 C   0  0  0  0  0  0  0  0  0  0  0  0
   38.8906   10.8145  -17.9370 C   0  0  0  0  0  0  0  0  0  0  0  0
   40.3101   10.8902  -18.1370 N   0  0  0  0  0  0  0  0  0  0  0  0
   40.9013   11.8097  -17.1917 C   0  0  0  0  0  0  0  0  0  0  0  0
   42.1246   12.0112  -17.2198 O   0  0  0  0  0  0  0  0  0  0  0  0
   39.8132   12.2962  -16.3897 C   0  0  0  0  0  0  0  0  0  0  0  0
   39.8203   13.1907  -15.3308 C   0  0  0  0  0  0  0  0  0  0  0  0
   40.7564   13.8831  -14.6307 C   0  0  0  0  0  0  0  0  0  0  0  0
   42.1062   14.0212  -14.7391 C   0  0  0  0  0  0  0  0  0  0  0  0
   42.7480   14.8505  -13.8014 C   0  0  0  0  0  0  0  0  0  0  0  0
   42.0660   15.5080  -12.8050 C   0  0  0  0  0  0  0  0  0  0  0  0
   40.6921   15.3610  -12.7034 C   0  0  0  0  0  0  0  0  0  0  0  0
   40.0768   14.5425  -13.6323 C   0  0  0  0  0  0  0  0  0  0  0  0
   38.7847   14.2873  -13.6932 N   0  0  0  0  0  0  0  0  0  0  0  0
   38.5975   13.4515  -14.7542 C   0  0  0  0  0  0  0  0  0  0  0  0
   37.3949   12.8782  -15.1802 C   0  0  0  0  0  0  0  0  0  0  0  0
   40.8016   10.3392  -18.8727 H   0  0  0  0  0  0  0  0  0  0  0  0
   35.9550   16.6059   -9.9089 C   0  0  0  0  0  0  0  0  0  0  0  0
   35.2433   15.7954  -10.8738 N   0  0  0  0  0  0  0  0  0  0  0  0
   34.3901   15.4432  -10.4313 H   0  0  0  0  0  0  0  0  0  0  0  0
   35.4247   12.4598  -11.9289 O   0  0  0  0  0  0  0  0  0  0  0  0
   36.4010   11.6739  -12.5290 C   0  0  0  0  0  0  0  0  0  0  0  0
 33 34  1  0  0  0
 34  1  1  0  0  0
  1  2  1  0  0  0
  2  3  1  0  0  0
  3  4  1  0  0  0
  4  5  1  0  0  0
  5  6  1  0  0  0
  5  7  1  0  0  0
  7 36  1  0  0  0
 36 37  1  0  0  0
  5  8  1  0  0  0
  8  9  1  0  0  0
  9 10  2  0  0  0
 10 11  1  0  0  0
 11 12  2  0  0  0
 12 13  1  0  0  0
 13 14  2  0  0  0
 14 15  1  0  0  0
 15 16  2  0  0  0
 16 17  1  0  0  0
 17 18  1  0  0  0
 18 19  1  0  0  0
 19 20  2  0  0  0
 19 21  1  0  0  0
 21 22  2  0  0  0
 22 23  1  0  0  0
 23 24  2  0  0  0
 24 25  1  0  0  0
 25 26  2  0  0  0
 26 27  1  0  0  0
 27 28  2  0  0  0
 28 29  1  0  0  0
 29 30  1  0  0  0
 30 31  2  0  0  0
  7  1  1  0  0  0
 31  8  1  0  0  0
 29  3  1  0  0  0
 14  9  1  0  0  0
 31 15  1  0  0  0
 21 16  1  0  0  0
 30 22  1  0  0  0
 28 23  1  0  0  0
 34 35  1  0  0  0
 18 32  1  0  0  0
M  END
> <minimizedAffinity>
-10.24415

> <CNNscore>
0.6140197515

> <CNNaffinity>
7.3303728104

> <CNN_VS>
4.5009937286

> <CNNaffinity_variance>
0.1275750101

$$$$
[H]c1c([H])c([H])c2c(c1[H])c1c3c(c4c5c([H])c([H])c([H])c([H])c5n5c4c1n2[C@]1([H])O[C@]5(C([H])([H])[H])[C@@]([H])(OC([H])([H])[H])[C@]([H])(N([H])C([H])([H])[H])C1([H])[H])C([H])([H])N([H])C3=O


 37 44  0  0  0  0  0  0  0  0999 V2000
   36.5181   14.4448  -11.5485 C   0  0  0  0  0  0  0  0  0  0  0  0
   37.8654   15.2322  -11.4623 C   0  0  0  0  0  0  0  0  0  0  0  0
   38.5144   14.7778  -12.5866 C   0  0  0  0  0  0  0  0  0  0  0  0
   37.7121   15.1769  -13.6437 O   0  0  0  0  0  0  0  0  0  0  0  0
   36.9925   14.0018  -14.0291 C   0  0  0  0  0  0  0  0  0  0  0  0
   35.9394   14.6120  -14.9947 C   0  0  0  0  0  0  0  0  0  0  0  0
   36.4170   13.5389  -12.7911 C   0  0  0  0  0  0  0  0  0  0  0  0
   37.8809   13.2301  -14.8596 N   0  0  0  0  0  0  0  0  0  0  0  0
   37.4978   12.3823  -15.8664 C   0  0  0  0  0  0  0  0  0  0  0  0
   36.2881   11.9021  -16.2797 C   0  0  0  0  0  0  0  0  0  0  0  0
   36.2103   11.0216  -17.3525 C   0  0  0  0  0  0  0  0  0  0  0  0
   37.3350   10.6042  -18.0309 C   0  0  0  0  0  0  0  0  0  0  0  0
   38.5750   11.0766  -17.6303 C   0  0  0  0  0  0  0  0  0  0  0  0
   38.6048   11.9392  -16.5724 C   0  0  0  0  0  0  0  0  0  0  0  0
   39.6906   12.5236  -15.9818 C   0  0  0  0  0  0  0  0  0  0  0  0
   41.0603   12.5332  -16.2010 C   0  0  0  0  0  0  0  0  0  0  0  0
   41.8192   11.8037  -17.2491 C   0  0  0  0  0  0  0  0  0  0  0  0
   43.1921   12.1539  -17.0180 N   0  0  0  0  0  0  0  0  0  0  0  0
   43.2960   13.0649  -15.9010 C   0  0  0  0  0  0  0  0  0  0  0  0
   44.4111   13.4854  -15.5582 O   0  0  0  0  0  0  0  0  0  0  0  0
   41.9517   13.2640  -15.4350 C   0  0  0  0  0  0  0  0  0  0  0  0
   41.4807   14.0338  -14.3830 C   0  0  0  0  0  0  0  0  0  0  0  0
   42.0229   14.8096  -13.4082 C   0  0  0  0  0  0  0  0  0  0  0  0
   43.2921   15.1989  -13.1076 C   0  0  0  0  0  0  0  0  0  0  0  0
   43.4637   16.0316  -11.9868 C   0  0  0  0  0  0  0  0  0  0  0  0
   42.4115   16.4517  -11.2080 C   0  0  0  0  0  0  0  0  0  0  0  0
   41.1235   16.0499  -11.5227 C   0  0  0  0  0  0  0  0  0  0  0  0
   40.9719   15.2317  -12.6267 C   0  0  0  0  0  0  0  0  0  0  0  0
   39.8280   14.7552  -13.0771 N   0  0  0  0  0  0  0  0  0  0  0  0
   40.1188   14.0104  -14.1817 C   0  0  0  0  0  0  0  0  0  0  0  0
   39.2256   13.2756  -14.9682 C   0  0  0  0  0  0  0  0  0  0  0  0
   43.9710   11.7774  -17.5995 H   0  0  0  0  0  0  0  0  0  0  0  0
   35.8864   16.5975  -10.9113 C   0  0  0  0  0  0  0  0  0  0  0  0
   35.4093   15.3084  -11.3642 N   0  0  0  0  0  0  0  0  0  0  0  0
   34.7771   14.9311  -10.6530 H   0  0  0  0  0  0  0  0  0  0  0  0
   36.5488   12.1836  -12.4642 O   0  0  0  0  0  0  0  0  0  0  0  0
   35.4685   11.4060  -12.8634 C   0  0  0  0  0  0  0  0  0  0  0  0
 33 34  1  0  0  0
 34  1  1  0  0  0
  1  2  1  0  0  0
  2  3  1  0  0  0
  3  4  1  0  0  0
  4  5  1  0  0  0
  5  6  1  0  0  0
  5  7  1  0  0  0
  7 36  1  0  0  0
 36 37  1  0  0  0
  5  8  1  0  0  0
  8  9  1  0  0  0
  9 10  2  0  0  0
 10 11  1  0  0  0
 11 12  2  0  0  0
 12 13  1  0  0  0
 13 14  2  0  0  0
 14 15  1  0  0  0
 15 16  2  0  0  0
 16 17  1  0  0  0
 17 18  1  0  0  0
 18 19  1  0  0  0
 19 20  2  0  0  0
 19 21  1  0  0  0
 21 22  2  0  0  0
 22 23  1  0  0  0
 23 24  2  0  0  0
 24 25  1  0  0  0
 25 26  2  0  0  0
 26 27  1  0  0  0
 27 28  2  0  0  0
 28 29  1  0  0  0
 29 30  1  0  0  0
 30 31  2  0  0  0
  7  1  1  0  0  0
 31  8  1  0  0  0
 29  3  1  0  0  0
 14  9  1  0  0  0
 31 15  1  0  0  0
 21 16  1  0  0  0
 30 22  1  0  0  0
 28 23  1  0  0  0
 34 35  1  0  0  0
 18 32  1  0  0  0
M  END
> <minimizedAffinity>
-11.04261

> <CNNscore>
0.5079571009

> <CNNaffinity>
6.9505286217

> <CNN_VS>
3.5305702686

> <CNNaffinity_variance>
0.0622765124

$$$$
[H]c1c([H])c([H])c2c(c1[H])c1c3c(c4c5c([H])c([H])c([H])c([H])c5n5c4c1n2[C@]1([H])O[C@]5(C([H])([H])[H])[C@@]([H])(OC([H])([H])[H])[C@]([H])(N([H])C([H])([H])[H])C1([H])[H])C([H])([H])N([H])C3=O


 37 44  0  0  0  0  0  0  0  0999 V2000
   34.9546   14.8336  -12.3858 C   0  0  0  0  0  0  0  0  0  0  0  0
   34.9790   13.6238  -13.3750 C   0  0  0  0  0  0  0  0  0  0  0  0
   36.3277   13.5013  -13.6162 C   0  0  0  0  0  0  0  0  0  0  0  0
   36.8829   13.2109  -12.3801 O   0  0  0  0  0  0  0  0  0  0  0  0
   37.4471   14.4450  -11.9264 C   0  0  0  0  0  0  0  0  0  0  0  0
   37.7713   14.0882  -10.4494 C   0  0  0  0  0  0  0  0  0  0  0  0
   36.3565   15.3794  -12.0516 C   0  0  0  0  0  0  0  0  0  0  0  0
   38.7219   14.5797  -12.5830 N   0  0  0  0  0  0  0  0  0  0  0  0
   39.8124   15.2418  -12.0814 C   0  0  0  0  0  0  0  0  0  0  0  0
   40.0040   16.0464  -10.9948 C   0  0  0  0  0  0  0  0  0  0  0  0
   41.2532   16.6011  -10.7419 C   0  0  0  0  0  0  0  0  0  0  0  0
   42.3318   16.3647  -11.5666 C   0  0  0  0  0  0  0  0  0  0  0  0
   42.1631   15.5521  -12.6768 C   0  0  0  0  0  0  0  0  0  0  0  0
   40.9197   15.0286  -12.8867 C   0  0  0  0  0  0  0  0  0  0  0  0
   40.4973   14.2230  -13.9074 C   0  0  0  0  0  0  0  0  0  0  0  0
   41.0841   13.6211  -15.0109 C   0  0  0  0  0  0  0  0  0  0  0  0
   42.4982   13.7175  -15.4554 C   0  0  0  0  0  0  0  0  0  0  0  0
   42.5627   12.9201  -16.6474 N   0  0  0  0  0  0  0  0  0  0  0  0
   41.2708   12.3387  -16.9322 C   0  0  0  0  0  0  0  0  0  0  0  0
   41.1360   11.6074  -17.9248 O   0  0  0  0  0  0  0  0  0  0  0  0
   40.3966   12.8045  -15.8917 C   0  0  0  0  0  0  0  0  0  0  0  0
   39.0474   12.5597  -15.6886 C   0  0  0  0  0  0  0  0  0  0  0  0
   38.0578   11.8910  -16.3362 C   0  0  0  0  0  0  0  0  0  0  0  0
   38.0164   11.1165  -17.4548 C   0  0  0  0  0  0  0  0  0  0  0  0
   36.7695   10.5786  -17.8221 C   0  0  0  0  0  0  0  0  0  0  0  0
   35.6222   10.8081  -17.1002 C   0  0  0  0  0  0  0  0  0  0  0  0
   35.6751   11.5977  -15.9630 C   0  0  0  0  0  0  0  0  0  0  0  0
   36.9077   12.1188  -15.6159 C   0  0  0  0  0  0  0  0  0  0  0  0
   37.1497   12.8852  -14.5707 N   0  0  0  0  0  0  0  0  0  0  0  0
   38.4839   13.1663  -14.5885 C   0  0  0  0  0  0  0  0  0  0  0  0
   39.1905   13.9824  -13.6991 C   0  0  0  0  0  0  0  0  0  0  0  0
   43.4405   12.8072  -17.1981 H   0  0  0  0  0  0  0  0  0  0  0  0
   33.2662   15.6671  -11.0097 C   0  0  0  0  0  0  0  0  0  0  0  0
   34.1533   14.5496  -11.2516 N   0  0  0  0  0  0  0  0  0  0  0  0
   34.7404   14.4195  -10.4232 H   0  0  0  0  0  0  0  0  0  0  0  0
   36.6039   16.6077  -12.6768 O   0  0  0  0  0  0  0  0  0  0  0  0
   36.6093   17.6876  -11.8023 C   0  0  0  0  0  0  0  0  0  0  0  0
 33 34  1  0  0  0
 34  1  1  0  0  0
  1  2  1  0  0  0
  2  3  1  0  0  0
  3  4  1  0  0  0
  4  5  1  0  0  0
  5  6  1  0  0  0
  5  7  1  0  0  0
  7 36  1  0  0  0
 36 37  1  0  0  0
  5  8  1  0  0  0
  8  9  1  0  0  0
  9 10  2  0  0  0
 10 11  1  0  0  0
 11 12  2  0  0  0
 12 13  1  0  0  0
 13 14  2  0  0  0
 14 15  1  0  0  0
 15 16  2  0  0  0
 16 17  1  0  0  0
 17 18  1  0  0  0
 18 19  1  0  0  0
 19 20  2  0  0  0
 19 21  1  0  0  0
 21 22  2  0  0  0
 22 23  1  0  0  0
 23 24  2  0  0  0
 24 25  1  0  0  0
 25 26  2  0  0  0
 26 27  1  0  0  0
 27 28  2  0  0  0
 28 29  1  0  0  0
 29 30  1  0  0  0
 30 31  2  0  0  0
  7  1  1  0  0  0
 31  8  1  0  0  0
 29  3  1  0  0  0
 14  9  1  0  0  0
 31 15  1  0  0  0
 21 16  1  0  0  0
 30 22  1  0  0  0
 28 23  1  0  0  0
 34 35  1  0  0  0
 18 32  1  0  0  0
M  END
> <minimizedAffinity>
-8.54950

> <CNNscore>
0.4649252594

> <CNNaffinity>
6.9610319138

> <CNN_VS>
3.2363595963

> <CNNaffinity_variance>
0.1470239311

$$$$
[H]c1c([H])c([H])c2c(c1[H])c1c3c(c4c5c([H])c([H])c([H])c([H])c5n5c4c1n2[C@]1([H])O[C@]5(C([H])([H])[H])[C@@]([H])(OC([H])([H])[H])[C@]([H])(N([H])C([H])([H])[H])C1([H])[H])C([H])([H])N([H])C3=O


 37 44  0  0  0  0  0  0  0  0999 V2000
   34.4530   15.4770  -11.3171 C   0  0  0  0  0  0  0  0  0  0  0  0
   34.1413   14.2609  -12.2481 C   0  0  0  0  0  0  0  0  0  0  0  0
   35.3949   13.9634  -12.7299 C   0  0  0  0  0  0  0  0  0  0  0  0
   36.1327   13.6208  -11.6081 O   0  0  0  0  0  0  0  0  0  0  0  0
   36.9201   14.7784  -11.3127 C   0  0  0  0  0  0  0  0  0  0  0  0
   37.4701   14.4028   -9.9091 C   0  0  0  0  0  0  0  0  0  0  0  0
   35.9492   15.8430  -11.2687 C   0  0  0  0  0  0  0  0  0  0  0  0
   38.0552   14.7398  -12.1985 N   0  0  0  0  0  0  0  0  0  0  0  0
   39.2939   15.2633  -11.9323 C   0  0  0  0  0  0  0  0  0  0  0  0
   39.7844   16.0512  -10.9306 C   0  0  0  0  0  0  0  0  0  0  0  0
   41.1176   16.4446  -10.9341 C   0  0  0  0  0  0  0  0  0  0  0  0
   41.9841   16.0609  -11.9348 C   0  0  0  0  0  0  0  0  0  0  0  0
   41.5104   15.2618  -12.9636 C   0  0  0  0  0  0  0  0  0  0  0  0
   40.1948   14.8993  -12.9202 C   0  0  0  0  0  0  0  0  0  0  0  0
   39.4917   14.1408  -13.8144 C   0  0  0  0  0  0  0  0  0  0  0  0
   39.7814   13.4540  -14.9843 C   0  0  0  0  0  0  0  0  0  0  0  0
   41.0874   13.3624  -15.6861 C   0  0  0  0  0  0  0  0  0  0  0  0
   40.8274   12.5475  -16.8390 N   0  0  0  0  0  0  0  0  0  0  0  0
   39.4433   12.1326  -16.8580 C   0  0  0  0  0  0  0  0  0  0  0  0
   39.0349   11.4115  -17.7805 O   0  0  0  0  0  0  0  0  0  0  0  0
   38.8449   12.7205  -15.6917 C   0  0  0  0  0  0  0  0  0  0  0  0
   37.5384   12.6533  -15.2334 C   0  0  0  0  0  0  0  0  0  0  0  0
   36.3698   12.1084  -15.6614 C   0  0  0  0  0  0  0  0  0  0  0  0
   36.0233   11.3307  -16.7235 C   0  0  0  0  0  0  0  0  0  0  0  0
   34.6729   10.9521  -16.8334 C   0  0  0  0  0  0  0  0  0  0  0  0
   33.7192   11.3364  -15.9207 C   0  0  0  0  0  0  0  0  0  0  0  0
   34.0823   12.1278  -14.8430 C   0  0  0  0  0  0  0  0  0  0  0  0
   35.4129   12.4913  -14.7497 C   0  0  0  0  0  0  0  0  0  0  0  0
   35.9401   13.2343  -13.7965 N   0  0  0  0  0  0  0  0  0  0  0  0
   37.2713   13.3419  -14.0714 C   0  0  0  0  0  0  0  0  0  0  0  0
   38.2280   14.0725  -13.3591 C   0  0  0  0  0  0  0  0  0  0  0  0
   41.5651   12.3157  -17.5381 H   0  0  0  0  0  0  0  0  0  0  0  0
   34.4462   16.2515   -9.1173 C   0  0  0  0  0  0  0  0  0  0  0  0
   33.8509   15.3132  -10.0445 N   0  0  0  0  0  0  0  0  0  0  0  0
   34.0129   14.3658   -9.6921 H   0  0  0  0  0  0  0  0  0  0  0  0
   36.2241   17.0211  -11.9740 O   0  0  0  0  0  0  0  0  0  0  0  0
   36.8387   18.0015  -11.2046 C   0  0  0  0  0  0  0  0  0  0  0  0
 33 34  1  0  0  0
 34  1  1  0  0  0
  1  2  1  0  0  0
  2  3  1  0  0  0
  3  4  1  0  0  0
  4  5  1  0  0  0
  5  6  1  0  0  0
  5  7  1  0  0  0
  7 36  1  0  0  0
 36 37  1  0  0  0
  5  8  1  0  0  0
  8  9  1  0  0  0
  9 10  2  0  0  0
 10 11  1  0  0  0
 11 12  2  0  0  0
 12 13  1  0  0  0
 13 14  2  0  0  0
 14 15  1  0  0  0
 15 16  2  0  0  0
 16 17  1  0  0  0
 17 18  1  0  0  0
 18 19  1  0  0  0
 19 20  2  0  0  0
 19 21  1  0  0  0
 21 22  2  0  0  0
 22 23  1  0  0  0
 23 24  2  0  0  0
 24 25  1  0  0  0
 25 26  2  0  0  0
 26 27  1  0  0  0
 27 28  2  0  0  0
 28 29  1  0  0  0
 29 30  1  0  0  0
 30 31  2  0  0  0
  7  1  1  0  0  0
 31  8  1  0  0  0
 29  3  1  0  0  0
 14  9  1  0  0  0
 31 15  1  0  0  0
 21 16  1  0  0  0
 30 22  1  0  0  0
 28 23  1  0  0  0
 34 35  1  0  0  0
 18 32  1  0  0  0
M  END
> <minimizedAffinity>
-10.87276

> <CNNscore>
0.3974384665

> <CNNaffinity>
6.8391060829

> <CNN_VS>
2.7181239128

> <CNNaffinity_variance>
0.1302360594

$$$$
[H]c1c([H])c([H])c2c(c1[H])c1c3c(c4c5c([H])c([H])c([H])c([H])c5n5c4c1n2[C@]1([H])O[C@]5(C([H])([H])[H])[C@@]([H])(OC([H])([H])[H])[C@]([H])(N([H])C([H])([H])[H])C1([H])[H])C([H])([H])N([H])C3=O


 37 44  0  0  0  0  0  0  0  0999 V2000
   37.7348   15.1428  -11.7961 C   0  0  0  0  0  0  0  0  0  0  0  0
   39.1427   15.8214  -11.7821 C   0  0  0  0  0  0  0  0  0  0  0  0
   39.7481   15.2058  -12.8529 C   0  0  0  0  0  0  0  0  0  0  0  0
   38.9776   15.5628  -13.9480 O   0  0  0  0  0  0  0  0  0  0  0  0
   38.1623   14.4186  -14.2184 C   0  0  0  0  0  0  0  0  0  0  0  0
   37.1597   15.0148  -15.2447 C   0  0  0  0  0  0  0  0  0  0  0  0
   37.5550   14.1296  -12.9433 C   0  0  0  0  0  0  0  0  0  0  0  0
   38.9812   13.4979  -14.9642 N   0  0  0  0  0  0  0  0  0  0  0  0
   38.5260   12.5889  -15.8839 C   0  0  0  0  0  0  0  0  0  0  0  0
   37.2794   12.1713  -16.2532 C   0  0  0  0  0  0  0  0  0  0  0  0
   37.1255   11.1983  -17.2339 C   0  0  0  0  0  0  0  0  0  0  0  0
   38.2096   10.6245  -17.8623 C   0  0  0  0  0  0  0  0  0  0  0  0
   39.4857   11.0306  -17.5047 C   0  0  0  0  0  0  0  0  0  0  0  0
   39.5902   11.9883  -16.5373 C   0  0  0  0  0  0  0  0  0  0  0  0
   40.7225   12.5370  -16.0025 C   0  0  0  0  0  0  0  0  0  0  0  0
   42.0876   12.4121  -16.2152 C   0  0  0  0  0  0  0  0  0  0  0  0
   42.7801   11.5222  -17.1822 C   0  0  0  0  0  0  0  0  0  0  0  0
   44.1780   11.7794  -16.9806 N   0  0  0  0  0  0  0  0  0  0  0  0
   44.3605   12.7849  -15.9589 C   0  0  0  0  0  0  0  0  0  0  0  0
   45.5078   13.1441  -15.6542 O   0  0  0  0  0  0  0  0  0  0  0  0
   43.0389   13.1393  -15.5212 C   0  0  0  0  0  0  0  0  0  0  0  0
   42.6366   14.0457  -14.5527 C   0  0  0  0  0  0  0  0  0  0  0  0
   43.2443   14.8670  -13.6571 C   0  0  0  0  0  0  0  0  0  0  0  0
   44.5423   15.1784  -13.3906 C   0  0  0  0  0  0  0  0  0  0  0  0
   44.7859   16.1011  -12.3570 C   0  0  0  0  0  0  0  0  0  0  0  0
   43.7747   16.6815  -11.6286 C   0  0  0  0  0  0  0  0  0  0  0  0
   42.4568   16.3579  -11.9080 C   0  0  0  0  0  0  0  0  0  0  0  0
   42.2345   15.4496  -12.9262 C   0  0  0  0  0  0  0  0  0  0  0  0
   41.0536   15.0266  -13.3325 N   0  0  0  0  0  0  0  0  0  0  0  0
   41.2782   14.1546  -14.3566 C   0  0  0  0  0  0  0  0  0  0  0  0
   40.3247   13.4215  -15.0706 C   0  0  0  0  0  0  0  0  0  0  0  0
   44.9212   11.2843  -17.5182 H   0  0  0  0  0  0  0  0  0  0  0  0
   36.5915   16.5507  -10.3298 C   0  0  0  0  0  0  0  0  0  0  0  0
   36.7016   16.1088  -11.7036 N   0  0  0  0  0  0  0  0  0  0  0  0
   35.8053   15.7009  -11.9832 H   0  0  0  0  0  0  0  0  0  0  0  0
   37.5758   12.8072  -12.4832 O   0  0  0  0  0  0  0  0  0  0  0  0
   36.3445   12.1685  -12.5657 C   0  0  0  0  0  0  0  0  0  0  0  0
 33 34  1  0  0  0
 34  1  1  0  0  0
  1  2  1  0  0  0
  2  3  1  0  0  0
  3  4  1  0  0  0
  4  5  1  0  0  0
  5  6  1  0  0  0
  5  7  1  0  0  0
  7 36  1  0  0  0
 36 37  1  0  0  0
  5  8  1  0  0  0
  8  9  1  0  0  0
  9 10  2  0  0  0
 10 11  1  0  0  0
 11 12  2  0  0  0
 12 13  1  0  0  0
 13 14  2  0  0  0
 14 15  1  0  0  0
 15 16  2  0  0  0
 16 17  1  0  0  0
 17 18  1  0  0  0
 18 19  1  0  0  0
 19 20  2  0  0  0
 19 21  1  0  0  0
 21 22  2  0  0  0
 22 23  1  0  0  0
 23 24  2  0  0  0
 24 25  1  0  0  0
 25 26  2  0  0  0
 26 27  1  0  0  0
 27 28  2  0  0  0
 28 29  1  0  0  0
 29 30  1  0  0  0
 30 31  2  0  0  0
  7  1  1  0  0  0
 31  8  1  0  0  0
 29  3  1  0  0  0
 14  9  1  0  0  0
 31 15  1  0  0  0
 21 16  1  0  0  0
 30 22  1  0  0  0
 28 23  1  0  0  0
 34 35  1  0  0  0
 18 32  1  0  0  0
M  END
> <minimizedAffinity>
-9.11171

> <CNNscore>
0.2216881812

> <CNNaffinity>
6.4625868797

> <CNN_VS>
1.4326791763

> <CNNaffinity_variance>
0.1688145995

$$$$
[H]c1c([H])c([H])c2c(c1[H])c1c3c(c4c5c([H])c([H])c([H])c([H])c5n5c4c1n2[C@]1([H])O[C@]5(C([H])([H])[H])[C@@]([H])(OC([H])([H])[H])[C@]([H])(N([H])C([H])([H])[H])C1([H])[H])C([H])([H])N([H])C3=O


 37 44  0  0  0  0  0  0  0  0999 V2000
   34.1801   14.0263  -12.5076 C   0  0  0  0  0  0  0  0  0  0  0  0
   35.2250   15.0328  -11.9263 C   0  0  0  0  0  0  0  0  0  0  0  0
   36.3262   14.7546  -12.7022 C   0  0  0  0  0  0  0  0  0  0  0  0
   35.9329   15.0578  -13.9959 O   0  0  0  0  0  0  0  0  0  0  0  0
   35.6412   13.7949  -14.6019 C   0  0  0  0  0  0  0  0  0  0  0  0
   34.9477   14.2573  -15.9130 C   0  0  0  0  0  0  0  0  0  0  0  0
   34.7288   13.1784  -13.6716 C   0  0  0  0  0  0  0  0  0  0  0  0
   36.9038   13.2325  -15.0071 N   0  0  0  0  0  0  0  0  0  0  0  0
   37.0962   12.3808  -16.0639 C   0  0  0  0  0  0  0  0  0  0  0  0
   36.2458   11.7165  -16.9008 C   0  0  0  0  0  0  0  0  0  0  0  0
   36.7458   10.8895  -17.8999 C   0  0  0  0  0  0  0  0  0  0  0  0
   38.1001   10.7094  -18.0818 C   0  0  0  0  0  0  0  0  0  0  0  0
   38.9841   11.3719  -17.2446 C   0  0  0  0  0  0  0  0  0  0  0  0
   38.4495   12.1737  -16.2775 C   0  0  0  0  0  0  0  0  0  0  0  0
   39.1008   12.9100  -15.3273 C   0  0  0  0  0  0  0  0  0  0  0  0
   40.4237   13.1705  -15.0010 C   0  0  0  0  0  0  0  0  0  0  0  0
   41.6448   12.6374  -15.6578 C   0  0  0  0  0  0  0  0  0  0  0  0
   42.7363   13.2113  -14.9229 N   0  0  0  0  0  0  0  0  0  0  0  0
   42.2374   14.0708  -13.8738 C   0  0  0  0  0  0  0  0  0  0  0  0
   43.0399   14.6633  -13.1369 O   0  0  0  0  0  0  0  0  0  0  0  0
   40.8052   14.0081  -13.9674 C   0  0  0  0  0  0  0  0  0  0  0  0
   39.8361   14.6311  -13.1968 C   0  0  0  0  0  0  0  0  0  0  0  0
   39.8131   15.4414  -12.1065 C   0  0  0  0  0  0  0  0  0  0  0  0
   40.7770   16.0323  -11.3484 C   0  0  0  0  0  0  0  0  0  0  0  0
   40.3522   16.8265  -10.2678 C   0  0  0  0  0  0  0  0  0  0  0  0
   39.0246   17.0170   -9.9654 C   0  0  0  0  0  0  0  0  0  0  0  0
   38.0513   16.4113  -10.7435 C   0  0  0  0  0  0  0  0  0  0  0  0
   38.4853   15.6340  -11.8012 C   0  0  0  0  0  0  0  0  0  0  0  0
   37.7081   14.9868  -12.6470 N   0  0  0  0  0  0  0  0  0  0  0  0
   38.5297   14.3594  -13.5363 C   0  0  0  0  0  0  0  0  0  0  0  0
   38.1552   13.5184  -14.5894 C   0  0  0  0  0  0  0  0  0  0  0  0
   43.7327   13.0061  -15.1498 H   0  0  0  0  0  0  0  0  0  0  0  0
   32.5451   15.4356  -11.6246 C   0  0  0  0  0  0  0  0  0  0  0  0
   32.9493   14.6720  -12.7856 N   0  0  0  0  0  0  0  0  0  0  0  0
   32.2209   13.9812  -12.9859 H   0  0  0  0  0  0  0  0  0  0  0  0
   34.9676   11.8530  -13.2880 O   0  0  0  0  0  0  0  0  0  0  0  0
   34.2744   10.9188  -14.0481 C   0  0  0  0  0  0  0  0  0  0  0  0
 33 34  1  0  0  0
 34  1  1  0  0  0
  1  2  1  0  0  0
  2  3  1  0  0  0
  3  4  1  0  0  0
  4  5  1  0  0  0
  5  6  1  0  0  0
  5  7  1  0  0  0
  7 36  1  0  0  0
 36 37  1  0  0  0
  5  8  1  0  0  0
  8  9  1  0  0  0
  9 10  2  0  0  0
 10 11  1  0  0  0
 11 12  2  0  0  0
 12 13  1  0  0  0
 13 14  2  0  0  0
 14 15  1  0  0  0
 15 16  2  0  0  0
 16 17  1  0  0  0
 17 18  1  0  0  0
 18 19  1  0  0  0
 19 20  2  0  0  0
 19 21  1  0  0  0
 21 22  2  0  0  0
 22 23  1  0  0  0
 23 24  2  0  0  0
 24 25  1  0  0  0
 25 26  2  0  0  0
 26 27  1  0  0  0
 27 28  2  0  0  0
 28 29  1  0  0  0
 29 30  1  0  0  0
 30 31  2  0  0  0
  7  1  1  0  0  0
 31  8  1  0  0  0
 29  3  1  0  0  0
 14  9  1  0  0  0
 31 15  1  0  0  0
 21 16  1  0  0  0
 30 22  1  0  0  0
 28 23  1  0  0  0
 34 35  1  0  0  0
 18 32  1  0  0  0
M  END
> <minimizedAffinity>
-9.43719

> <CNNscore>
0.2121562809

> <CNNaffinity>
6.7677907944

> <CNN_VS>
1.4358292818

> <CNNaffinity_variance>
0.1918124408

$$$$
[H]c1c([H])c([H])c2c(c1[H])c1c3c(c4c5c([H])c([H])c([H])c([H])c5n5c4c1n2[C@]1([H])O[C@]5(C([H])([H])[H])[C@@]([H])(OC([H])([H])[H])[C@]([H])(N([H])C([H])([H])[H])C1([H])[H])C([H])([H])N([H])C3=O


 37 44  0  0  0  0  0  0  0  0999 V2000
   41.3426   13.9707  -15.2651 C   0  0  0  0  0  0  0  0  0  0  0  0
   41.0705   14.5447  -13.8371 C   0  0  0  0  0  0  0  0  0  0  0  0
   39.7337   14.2595  -13.6832 C   0  0  0  0  0  0  0  0  0  0  0  0
   39.6580   12.8771  -13.7427 O   0  0  0  0  0  0  0  0  0  0  0  0
   39.1936   12.5863  -15.0645 C   0  0  0  0  0  0  0  0  0  0  0  0
   39.4216   11.0504  -15.1191 C   0  0  0  0  0  0  0  0  0  0  0  0
   40.1034   13.3191  -15.9092 C   0  0  0  0  0  0  0  0  0  0  0  0
   37.7648   12.7672  -15.0468 N   0  0  0  0  0  0  0  0  0  0  0  0
   36.8660   12.1032  -15.8409 C   0  0  0  0  0  0  0  0  0  0  0  0
   36.9990   11.2624  -16.9087 C   0  0  0  0  0  0  0  0  0  0  0  0
   35.8744   10.7397  -17.5366 C   0  0  0  0  0  0  0  0  0  0  0  0
   34.5993   11.0459  -17.1125 C   0  0  0  0  0  0  0  0  0  0  0  0
   34.4375   11.8978  -16.0312 C   0  0  0  0  0  0  0  0  0  0  0  0
   35.5690   12.3878  -15.4449 C   0  0  0  0  0  0  0  0  0  0  0  0
   35.6749   13.2495  -14.3888 C   0  0  0  0  0  0  0  0  0  0  0  0
   34.7922   13.8854  -13.5282 C   0  0  0  0  0  0  0  0  0  0  0  0
   33.3083   13.8166  -13.5328 C   0  0  0  0  0  0  0  0  0  0  0  0
   32.8988   14.6648  -12.4494 N   0  0  0  0  0  0  0  0  0  0  0  0
   34.0545   15.2243  -11.7863 C   0  0  0  0  0  0  0  0  0  0  0  0
   33.8951   15.9792  -10.8154 O   0  0  0  0  0  0  0  0  0  0  0  0
   35.1951   14.7109  -12.4930 C   0  0  0  0  0  0  0  0  0  0  0  0
   36.5464   14.9366  -12.2827 C   0  0  0  0  0  0  0  0  0  0  0  0
   37.3012   15.6953  -11.4457 C   0  0  0  0  0  0  0  0  0  0  0  0
   37.0144   16.5202  -10.4016 C   0  0  0  0  0  0  0  0  0  0  0  0
   38.0965   17.1495   -9.7596 C   0  0  0  0  0  0  0  0  0  0  0  0
   39.4013   16.9583  -10.1483 C   0  0  0  0  0  0  0  0  0  0  0  0
   39.6826   16.1164  -11.2121 C   0  0  0  0  0  0  0  0  0  0  0  0
   38.6082   15.5060  -11.8323 C   0  0  0  0  0  0  0  0  0  0  0  0
   38.6826   14.6752  -12.8533 N   0  0  0  0  0  0  0  0  0  0  0  0
   37.4059   14.2970  -13.1475 C   0  0  0  0  0  0  0  0  0  0  0  0
   36.9881   13.4569  -14.1848 C   0  0  0  0  0  0  0  0  0  0  0  0
   31.8965   14.8257  -12.2128 H   0  0  0  0  0  0  0  0  0  0  0  0
   43.3452   13.5217  -14.1574 C   0  0  0  0  0  0  0  0  0  0  0  0
   42.5022   13.1557  -15.2754 N   0  0  0  0  0  0  0  0  0  0  0  0
   43.0324   13.2999  -16.1391 H   0  0  0  0  0  0  0  0  0  0  0  0
   39.5670   14.1102  -16.9326 O   0  0  0  0  0  0  0  0  0  0  0  0
   40.4764   14.4123  -17.9389 C   0  0  0  0  0  0  0  0  0  0  0  0
 33 34  1  0  0  0
 34  1  1  0  0  0
  1  2  1  0  0  0
  2  3  1  0  0  0
  3  4  1  0  0  0
  4  5  1  0  0  0
  5  6  1  0  0  0
  5  7  1  0  0  0
  7 36  1  0  0  0
 36 37  1  0  0  0
  5  8  1  0  0  0
  8  9  1  0  0  0
  9 10  2  0  0  0
 10 11  1  0  0  0
 11 12  2  0  0  0
 12 13  1  0  0  0
 13 14  2  0  0  0
 14 15  1  0  0  0
 15 16  2  0  0  0
 16 17  1  0  0  0
 17 18  1  0  0  0
 18 19  1  0  0  0
 19 20  2  0  0  0
 19 21  1  0  0  0
 21 22  2  0  0  0
 22 23  1  0  0  0
 23 24  2  0  0  0
 24 25  1  0  0  0
 25 26  2  0  0  0
 26 27  1  0  0  0
 27 28  2  0  0  0
 28 29  1  0  0  0
 29 30  1  0  0  0
 30 31  2  0  0  0
  7  1  1  0  0  0
 31  8  1  0  0  0
 29  3  1  0  0  0
 14  9  1  0  0  0
 31 15  1  0  0  0
 21 16  1  0  0  0
 30 22  1  0  0  0
 28 23  1  0  0  0
 34 35  1  0  0  0
 18 32  1  0  0  0
M  END
> <minimizedAffinity>
-7.24282

> <CNNscore>
0.2034591734

> <CNNaffinity>
6.6610498428

> <CNN_VS>
1.3552516699

> <CNNaffinity_variance>
0.1024302840

$$$$
[H]c1c([H])c([H])c2c(c1[H])c1c3c(c4c5c([H])c([H])c([H])c([H])c5n5c4c1n2[C@]1([H])O[C@]5(C([H])([H])[H])[C@@]([H])(OC([H])([H])[H])[C@]([H])(N([H])C([H])([H])[H])C1([H])[H])C([H])([H])N([H])C3=O


 37 44  0  0  0  0  0  0  0  0999 V2000
   43.6149   14.2755  -11.8659 C   0  0  0  0  0  0  0  0  0  0  0  0
   44.2492   12.8682  -11.6211 C   0  0  0  0  0  0  0  0  0  0  0  0
   44.6490   12.9783  -10.3096 C   0  0  0  0  0  0  0  0  0  0  0  0
   43.4772   13.1833   -9.5988 O   0  0  0  0  0  0  0  0  0  0  0  0
   43.4480   14.5876   -9.3263 C   0  0  0  0  0  0  0  0  0  0  0  0
   41.9946   14.7496   -8.8016 C   0  0  0  0  0  0  0  0  0  0  0  0
   43.6466   15.1858  -10.6228 C   0  0  0  0  0  0  0  0  0  0  0  0
   44.2999   14.8022   -8.1849 N   0  0  0  0  0  0  0  0  0  0  0  0
   44.1555   15.8012   -7.2574 C   0  0  0  0  0  0  0  0  0  0  0  0
   43.3556   16.9056   -7.1842 C   0  0  0  0  0  0  0  0  0  0  0  0
   43.4445   17.7676   -6.0973 C   0  0  0  0  0  0  0  0  0  0  0  0
   44.3314   17.5450   -5.0661 C   0  0  0  0  0  0  0  0  0  0  0  0
   45.1551   16.4314   -5.1173 C   0  0  0  0  0  0  0  0  0  0  0  0
   45.0342   15.6122   -6.2028 C   0  0  0  0  0  0  0  0  0  0  0  0
   45.7365   14.4756   -6.4929 C   0  0  0  0  0  0  0  0  0  0  0  0
   46.7213   13.7249   -5.8677 C   0  0  0  0  0  0  0  0  0  0  0  0
   47.3817   13.9950   -4.5647 C   0  0  0  0  0  0  0  0  0  0  0  0
   48.3223   12.9229   -4.4015 N   0  0  0  0  0  0  0  0  0  0  0  0
   48.2505   12.0175   -5.5255 C   0  0  0  0  0  0  0  0  0  0  0  0
   48.9882   11.0210   -5.5545 O   0  0  0  0  0  0  0  0  0  0  0  0
   47.2477   12.5605   -6.3992 C   0  0  0  0  0  0  0  0  0  0  0  0
   46.7890   12.0968   -7.6222 C   0  0  0  0  0  0  0  0  0  0  0  0
   47.0860   11.0716   -8.4628 C   0  0  0  0  0  0  0  0  0  0  0  0
   47.9467   10.0189   -8.4014 C   0  0  0  0  0  0  0  0  0  0  0  0
   47.9717    9.1402   -9.4998 C   0  0  0  0  0  0  0  0  0  0  0  0
   47.1709    9.3118  -10.6040 C   0  0  0  0  0  0  0  0  0  0  0  0
   46.2980   10.3865  -10.6566 C   0  0  0  0  0  0  0  0  0  0  0  0
   46.2858   11.2406   -9.5695 C   0  0  0  0  0  0  0  0  0  0  0  0
   45.5231   12.3084   -9.4415 N   0  0  0  0  0  0  0  0  0  0  0  0
   45.8122   12.8560   -8.2266 C   0  0  0  0  0  0  0  0  0  0  0  0
   45.2803   14.0265   -7.6758 C   0  0  0  0  0  0  0  0  0  0  0  0
   48.9497   12.8505   -3.5723 H   0  0  0  0  0  0  0  0  0  0  0  0
   42.4985   13.6181  -13.8051 C   0  0  0  0  0  0  0  0  0  0  0  0
   42.3393   14.1619  -12.4734 N   0  0  0  0  0  0  0  0  0  0  0  0
   41.8980   15.0822  -12.5523 H   0  0  0  0  0  0  0  0  0  0  0  0
   44.5983   16.2059  -10.7438 O   0  0  0  0  0  0  0  0  0  0  0  0
   45.1167   16.3358  -12.0265 C   0  0  0  0  0  0  0  0  0  0  0  0
 33 34  1  0  0  0
 34  1  1  0  0  0
  1  2  1  0  0  0
  2  3  1  0  0  0
  3  4  1  0  0  0
  4  5  1  0  0  0
  5  6  1  0  0  0
  5  7  1  0  0  0
  7 36  1  0  0  0
 36 37  1  0  0  0
  5  8  1  0  0  0
  8  9  1  0  0  0
  9 10  2  0  0  0
 10 11  1  0  0  0
 11 12  2  0  0  0
 12 13  1  0  0  0
 13 14  2  0  0  0
 14 15  1  0  0  0
 15 16  2  0  0  0
 16 17  1  0  0  0
 17 18  1  0  0  0
 18 19  1  0  0  0
 19 20  2  0  0  0
 19 21  1  0  0  0
 21 22  2  0  0  0
 22 23  1  0  0  0
 23 24  2  0  0  0
 24 25  1  0  0  0
 25 26  2  0  0  0
 26 27  1  0  0  0
 27 28  2  0  0  0
 28 29  1  0  0  0
 29 30  1  0  0  0
 30 31  2  0  0  0
  7  1  1  0  0  0
 31  8  1  0  0  0
 29  3  1  0  0  0
 14  9  1  0  0  0
 31 15  1  0  0  0
 21 16  1  0  0  0
 30 22  1  0  0  0
 28 23  1  0  0  0
 34 35  1  0  0  0
 18 32  1  0  0  0
M  END
> <minimizedAffinity>
-5.69869

> <CNNscore>
0.1943226159

> <CNNaffinity>
5.1480360031

> <CNN_VS>
1.0003798008

> <CNNaffinity_variance>
0.0916389078

$$$$
[H]c1c([H])c([H])c2c(c1[H])c1c3c(c4c5c([H])c([H])c([H])c([H])c5n5c4c1n2[C@]1([H])O[C@]5(C([H])([H])[H])[C@@]([H])(OC([H])([H])[H])[C@]([H])(N([H])C([H])([H])[H])C1([H])[H])C([H])([H])N([H])C3=O


 37 44  0  0  0  0  0  0  0  0999 V2000
   41.2110   16.6776  -11.3127 C   0  0  0  0  0  0  0  0  0  0  0  0
   40.1933   15.6971  -11.9803 C   0  0  0  0  0  0  0  0  0  0  0  0
   41.0279   14.9403  -12.7696 C   0  0  0  0  0  0  0  0  0  0  0  0
   41.8873   14.3168  -11.8792 O   0  0  0  0  0  0  0  0  0  0  0  0
   43.1033   15.0679  -11.9477 C   0  0  0  0  0  0  0  0  0  0  0  0
   43.8727   14.4827  -10.7314 C   0  0  0  0  0  0  0  0  0  0  0  0
   42.6711   16.4270  -11.7374 C   0  0  0  0  0  0  0  0  0  0  0  0
   43.8081   14.6027  -13.1144 N   0  0  0  0  0  0  0  0  0  0  0  0
   45.1696   14.5942  -13.2742 C   0  0  0  0  0  0  0  0  0  0  0  0
   46.2034   15.1094  -12.5457 C   0  0  0  0  0  0  0  0  0  0  0  0
   47.5154   14.9488  -12.9756 C   0  0  0  0  0  0  0  0  0  0  0  0
   47.8200   14.2734  -14.1378 C   0  0  0  0  0  0  0  0  0  0  0  0
   46.7884   13.7417  -14.8957 C   0  0  0  0  0  0  0  0  0  0  0  0
   45.5156   13.9231  -14.4361 C   0  0  0  0  0  0  0  0  0  0  0  0
   44.3403   13.5164  -15.0039 C   0  0  0  0  0  0  0  0  0  0  0  0
   43.9745   12.7912  -16.1284 C   0  0  0  0  0  0  0  0  0  0  0  0
   44.8651   12.2071  -17.1639 C   0  0  0  0  0  0  0  0  0  0  0  0
   43.9761   11.5792  -18.1000 N   0  0  0  0  0  0  0  0  0  0  0  0
   42.6045   11.7404  -17.6744 C   0  0  0  0  0  0  0  0  0  0  0  0
   41.6920   11.2530  -18.3583 O   0  0  0  0  0  0  0  0  0  0  0  0
   42.6621   12.4957  -16.4537 C   0  0  0  0  0  0  0  0  0  0  0  0
   41.6363   12.9381  -15.6331 C   0  0  0  0  0  0  0  0  0  0  0  0
   40.2782   12.9023  -15.6453 C   0  0  0  0  0  0  0  0  0  0  0  0
   39.3556   12.3409  -16.4738 C   0  0  0  0  0  0  0  0  0  0  0  0
   37.9993   12.5239  -16.1484 C   0  0  0  0  0  0  0  0  0  0  0  0
   37.5918   13.2355  -15.0449 C   0  0  0  0  0  0  0  0  0  0  0  0
   38.5389   13.8027  -14.2077 C   0  0  0  0  0  0  0  0  0  0  0  0
   39.8672   13.6138  -14.5416 C   0  0  0  0  0  0  0  0  0  0  0  0
   40.9010   14.0743  -13.8653 N   0  0  0  0  0  0  0  0  0  0  0  0
   42.0201   13.6562  -14.5228 C   0  0  0  0  0  0  0  0  0  0  0  0
   43.3505   13.9411  -14.1984 C   0  0  0  0  0  0  0  0  0  0  0  0
   44.3181   11.0889  -18.9538 H   0  0  0  0  0  0  0  0  0  0  0  0
   39.8921   15.8991   -9.5538 C   0  0  0  0  0  0  0  0  0  0  0  0
   41.0139   16.7410   -9.9104 N   0  0  0  0  0  0  0  0  0  0  0  0
   40.8008   17.7000   -9.6228 H   0  0  0  0  0  0  0  0  0  0  0  0
   43.1398   17.4149  -12.6121 O   0  0  0  0  0  0  0  0  0  0  0  0
   44.2961   18.0472  -12.1714 C   0  0  0  0  0  0  0  0  0  0  0  0
 33 34  1  0  0  0
 34  1  1  0  0  0
  1  2  1  0  0  0
  2  3  1  0  0  0
  3  4  1  0  0  0
  4  5  1  0  0  0
  5  6  1  0  0  0
  5  7  1  0  0  0
  7 36  1  0  0  0
 36 37  1  0  0  0
  5  8  1  0  0  0
  8  9  1  0  0  0
  9 10  2  0  0  0
 10 11  1  0  0  0
 11 12  2  0  0  0
 12 13  1  0  0  0
 13 14  2  0  0  0
 14 15  1  0  0  0
 15 16  2  0  0  0
 16 17  1  0  0  0
 17 18  1  0  0  0
 18 19  1  0  0  0
 19 20  2  0  0  0
 19 21  1  0  0  0
 21 22  2  0  0  0
 22 23  1  0  0  0
 23 24  2  0  0  0
 24 25  1  0  0  0
 25 26  2  0  0  0
 26 27  1  0  0  0
 27 28  2  0  0  0
 28 29  1  0  0  0
 29 30  1  0  0  0
 30 31  2  0  0  0
  7  1  1  0  0  0
 31  8  1  0  0  0
 29  3  1  0  0  0
 14  9  1  0  0  0
 31 15  1  0  0  0
 21 16  1  0  0  0
 30 22  1  0  0  0
 28 23  1  0  0  0
 34 35  1  0  0  0
 18 32  1  0  0  0
M  END
> <minimizedAffinity>
-6.51139

> <CNNscore>
0.1754050553

> <CNNaffinity>
5.8964567184

> <CNN_VS>
1.0342682600

> <CNNaffinity_variance>
0.1039875895

$$$$
[H]c1c([H])c([H])c2c(c1[H])c1c3c(c4c5c([H])c([H])c([H])c([H])c5n5c4c1n2[C@]1([H])O[C@]5(C([H])([H])[H])[C@@]([H])(OC([H])([H])[H])[C@@]([H])(N([H])C([H])([H])[H])C1([H])[H])C([H])([H])N([H])C3=O


 37 44  0  0  0  0  0  0  0  0999 V2000
   34.4451   14.7873  -11.5938 C   0  0  0  0  0  0  0  0  0  0  0  0
   34.3279   13.6265  -12.6396 C   0  0  0  0  0  0  0  0  0  0  0  0
   35.6221   13.5147  -13.0790 C   0  0  0  0  0  0  0  0  0  0  0  0
   36.3452   13.2156  -11.9331 O   0  0  0  0  0  0  0  0  0  0  0  0
   36.9626   14.4492  -11.5441 C   0  0  0  0  0  0  0  0  0  0  0  0
   37.4206   14.0662  -10.0926 C   0  0  0  0  0  0  0  0  0  0  0  0
   35.8697   15.3918  -11.5267 C   0  0  0  0  0  0  0  0  0  0  0  0
   38.1357   14.5718  -12.3691 N   0  0  0  0  0  0  0  0  0  0  0  0
   39.2785   15.2050  -12.0170 C   0  0  0  0  0  0  0  0  0  0  0  0
   39.6551   15.9984  -10.9408 C   0  0  0  0  0  0  0  0  0  0  0  0
   40.9357   16.5352  -10.8452 C   0  0  0  0  0  0  0  0  0  0  0  0
   41.8770   16.2960  -11.8219 C   0  0  0  0  0  0  0  0  0  0  0  0
   41.5361   15.5133  -12.9040 C   0  0  0  0  0  0  0  0  0  0  0  0
   40.2696   15.0027  -12.9644 C   0  0  0  0  0  0  0  0  0  0  0  0
   39.7131   14.2229  -13.9318 C   0  0  0  0  0  0  0  0  0  0  0  0
   40.1392   13.6232  -15.1248 C   0  0  0  0  0  0  0  0  0  0  0  0
   41.4685   13.7086  -15.7549 C   0  0  0  0  0  0  0  0  0  0  0  0
   41.3709   12.9359  -16.9665 N   0  0  0  0  0  0  0  0  0  0  0  0
   40.0478   12.3683  -17.0728 C   0  0  0  0  0  0  0  0  0  0  0  0
   39.7649   11.6525  -18.0441 O   0  0  0  0  0  0  0  0  0  0  0  0
   39.3244   12.8250  -15.9077 C   0  0  0  0  0  0  0  0  0  0  0  0
   38.0103   12.5826  -15.5307 C   0  0  0  0  0  0  0  0  0  0  0  0
   36.9300   11.9231  -16.0412 C   0  0  0  0  0  0  0  0  0  0  0  0
   36.7342   11.1643  -17.1496 C   0  0  0  0  0  0  0  0  0  0  0  0
   35.4513   10.6273  -17.3618 C   0  0  0  0  0  0  0  0  0  0  0  0
   34.4253   10.8618  -16.4760 C   0  0  0  0  0  0  0  0  0  0  0  0
   34.6319   11.6412  -15.3402 C   0  0  0  0  0  0  0  0  0  0  0  0
   35.8930   12.1534  -15.1561 C   0  0  0  0  0  0  0  0  0  0  0  0
   36.2943   12.9099  -14.1482 N   0  0  0  0  0  0  0  0  0  0  0  0
   37.6104   13.1769  -14.3628 C   0  0  0  0  0  0  0  0  0  0  0  0
   38.4469   13.9809  -13.5670 C   0  0  0  0  0  0  0  0  0  0  0  0
   42.1723   12.8375  -17.6302 H   0  0  0  0  0  0  0  0  0  0  0  0
   32.2337   15.7615  -11.6619 C   0  0  0  0  0  0  0  0  0  0  0  0
   33.5993   15.8606  -12.0780 N   0  0  0  0  0  0  0  0  0  0  0  0
   33.7567   16.1255  -13.0533 H   0  0  0  0  0  0  0  0  0  0  0  0
   35.9759   16.5925  -12.1953 O   0  0  0  0  0  0  0  0  0  0  0  0
   36.5558   17.6270  -11.5194 C   0  0  0  0  0  0  0  0  0  0  0  0
 33 34  1  0  0  0
 34  1  1  0  0  0
  1  2  1  0  0  0
  2  3  1  0  0  0
  3  4  1  0  0  0
  4  5  1  0  0  0
  5  6  1  0  0  0
  5  7  1  0  0  0
  7 36  1  0  0  0
 36 37  1  0  0  0
  5  8  1  0  0  0
  8  9  1  0  0  0
  9 10  2  0  0  0
 10 11  1  0  0  0
 11 12  2  0  0  0
 12 13  1  0  0  0
 13 14  2  0  0  0
 14 15  1  0  0  0
 15 16  2  0  0  0
 16 17  1  0  0  0
 17 18  1  0  0  0
 18 19  1  0  0  0
 19 20  2  0  0  0
 19 21  1  0  0  0
 21 22  2  0  0  0
 22 23  1  0  0  0
 23 24  2  0  0  0
 24 25  1  0  0  0
 25 26  2  0  0  0
 26 27  1  0  0  0
 27 28  2  0  0  0
 28 29  1  0  0  0
 29 30  1  0  0  0
 30 31  2  0  0  0
  7  1  1  0  0  0
 31  8  1  0  0  0
 29  3  1  0  0  0
 14  9  1  0  0  0
 31 15  1  0  0  0
 21 16  1  0  0  0
 30 22  1  0  0  0
 28 23  1  0  0  0
 34 35  1  0  0  0
 18 32  1  0  0  0
M  END
> <minimizedAffinity>
-9.33298

> <CNNscore>
0.5296071172

> <CNNaffinity>
7.1289467812

> <CNN_VS>
3.7755410671

> <CNNaffinity_variance>
0.1689954996

$$$$
[H]c1c([H])c([H])c2c(c1[H])c1c3c(c4c5c([H])c([H])c([H])c([H])c5n5c4c1n2[C@]1([H])O[C@]5(C([H])([H])[H])[C@@]([H])(OC([H])([H])[H])[C@@]([H])(N([H])C([H])([H])[H])C1([H])[H])C([H])([H])N([H])C3=O


 37 44  0  0  0  0  0  0  0  0999 V2000
   36.1765   14.7597  -11.6313 C   0  0  0  0  0  0  0  0  0  0  0  0
   37.5670   15.4766  -11.5445 C   0  0  0  0  0  0  0  0  0  0  0  0
   38.2209   14.9499  -12.6287 C   0  0  0  0  0  0  0  0  0  0  0  0
   37.4298   15.3099  -13.7105 O   0  0  0  0  0  0  0  0  0  0  0  0
   36.6834   14.1316  -14.0404 C   0  0  0  0  0  0  0  0  0  0  0  0
   35.6074   14.7619  -14.9935 C   0  0  0  0  0  0  0  0  0  0  0  0
   36.1069   13.7244  -12.7813 C   0  0  0  0  0  0  0  0  0  0  0  0
   37.5697   13.3218  -14.8344 N   0  0  0  0  0  0  0  0  0  0  0  0
   37.1856   12.4582  -15.8028 C   0  0  0  0  0  0  0  0  0  0  0  0
   35.9589   11.9743  -16.2391 C   0  0  0  0  0  0  0  0  0  0  0  0
   35.8672   11.0606  -17.2850 C   0  0  0  0  0  0  0  0  0  0  0  0
   36.9979   10.6032  -17.9250 C   0  0  0  0  0  0  0  0  0  0  0  0
   38.2315   11.0627  -17.5165 C   0  0  0  0  0  0  0  0  0  0  0  0
   38.2832   11.9597  -16.4864 C   0  0  0  0  0  0  0  0  0  0  0  0
   39.3769   12.5340  -15.9140 C   0  0  0  0  0  0  0  0  0  0  0  0
   40.7628   12.5126  -16.1216 C   0  0  0  0  0  0  0  0  0  0  0  0
   41.5145   11.7399  -17.1261 C   0  0  0  0  0  0  0  0  0  0  0  0
   42.9007   12.0582  -16.8989 N   0  0  0  0  0  0  0  0  0  0  0  0
   43.0074   13.0111  -15.8196 C   0  0  0  0  0  0  0  0  0  0  0  0
   44.1238   13.4265  -15.4777 O   0  0  0  0  0  0  0  0  0  0  0  0
   41.6554   13.2587  -15.3726 C   0  0  0  0  0  0  0  0  0  0  0  0
   41.1972   14.0809  -14.3519 C   0  0  0  0  0  0  0  0  0  0  0  0
   41.7448   14.8930  -13.4015 C   0  0  0  0  0  0  0  0  0  0  0  0
   43.0164   15.2692  -13.1110 C   0  0  0  0  0  0  0  0  0  0  0  0
   43.2127   16.1463  -12.0287 C   0  0  0  0  0  0  0  0  0  0  0  0
   42.1517   16.6100  -11.2860 C   0  0  0  0  0  0  0  0  0  0  0  0
   40.8489   16.2208  -11.5886 C   0  0  0  0  0  0  0  0  0  0  0  0
   40.6844   15.3643  -12.6498 C   0  0  0  0  0  0  0  0  0  0  0  0
   39.5381   14.8812  -13.0990 N   0  0  0  0  0  0  0  0  0  0  0  0
   39.8404   14.0891  -14.1624 C   0  0  0  0  0  0  0  0  0  0  0  0
   38.9376   13.3341  -14.9332 C   0  0  0  0  0  0  0  0  0  0  0  0
   43.6698   11.6313  -17.4633 H   0  0  0  0  0  0  0  0  0  0  0  0
   36.2628   14.7350   -9.2156 C   0  0  0  0  0  0  0  0  0  0  0  0
   36.0394   13.9850  -10.4137 N   0  0  0  0  0  0  0  0  0  0  0  0
   36.4579   13.0524  -10.4479 H   0  0  0  0  0  0  0  0  0  0  0  0
   36.2412   12.4244  -12.3428 O   0  0  0  0  0  0  0  0  0  0  0  0
   35.3588   11.5099  -12.8410 C   0  0  0  0  0  0  0  0  0  0  0  0
 33 34  1  0  0  0
 34  1  1  0  0  0
  1  2  1  0  0  0
  2  3  1  0  0  0
  3  4  1  0  0  0
  4  5  1  0  0  0
  5  6  1  0  0  0
  5  7  1  0  0  0
  7 36  1  0  0  0
 36 37  1  0  0  0
  5  8  1  0  0  0
  8  9  1  0  0  0
  9 10  2  0  0  0
 10 11  1  0  0  0
 11 12  2  0  0  0
 12 13  1  0  0  0
 13 14  2  0  0  0
 14 15  1  0  0  0
 15 16  2  0  0  0
 16 17  1  0  0  0
 17 18  1  0  0  0
 18 19  1  0  0  0
 19 20  2  0  0  0
 19 21  1  0  0  0
 21 22  2  0  0  0
 22 23  1  0  0  0
 23 24  2  0  0  0
 24 25  1  0  0  0
 25 26  2  0  0  0
 26 27  1  0  0  0
 27 28  2  0  0  0
 28 29  1  0  0  0
 29 30  1  0  0  0
 30 31  2  0  0  0
  7  1  1  0  0  0
 31  8  1  0  0  0
 29  3  1  0  0  0
 14  9  1  0  0  0
 31 15  1  0  0  0
 21 16  1  0  0  0
 30 22  1  0  0  0
 28 23  1  0  0  0
 34 35  1  0  0  0
 18 32  1  0  0  0
M  END
> <minimizedAffinity>
-11.24602

> <CNNscore>
0.3376271725

> <CNNaffinity>
6.7868905067

> <CNN_VS>
2.2914385796

> <CNNaffinity_variance>
0.0638231486

$$$$
[H]c1c([H])c([H])c2c(c1[H])c1c3c(c4c5c([H])c([H])c([H])c([H])c5n5c4c1n2[C@]1([H])O[C@]5(C([H])([H])[H])[C@@]([H])(OC([H])([H])[H])[C@@]([H])(N([H])C([H])([H])[H])C1([H])[H])C([H])([H])N([H])C3=O


 37 44  0  0  0  0  0  0  0  0999 V2000
   44.0565   14.1538  -12.0577 C   0  0  0  0  0  0  0  0  0  0  0  0
   44.6942   12.7539  -11.7599 C   0  0  0  0  0  0  0  0  0  0  0  0
   45.0609   12.8880  -10.4453 C   0  0  0  0  0  0  0  0  0  0  0  0
   43.8694   13.1542   -9.7857 O   0  0  0  0  0  0  0  0  0  0  0  0
   43.8725   14.5693   -9.5580 C   0  0  0  0  0  0  0  0  0  0  0  0
   42.3679   14.7736   -9.1608 C   0  0  0  0  0  0  0  0  0  0  0  0
   44.1610   15.1274  -10.8575 C   0  0  0  0  0  0  0  0  0  0  0  0
   44.6799   14.7705   -8.3836 N   0  0  0  0  0  0  0  0  0  0  0  0
   44.5259   15.7744   -7.4894 C   0  0  0  0  0  0  0  0  0  0  0  0
   43.7425   16.9206   -7.4442 C   0  0  0  0  0  0  0  0  0  0  0  0
   43.8009   17.8001   -6.3672 C   0  0  0  0  0  0  0  0  0  0  0  0
   44.6439   17.5610   -5.3043 C   0  0  0  0  0  0  0  0  0  0  0  0
   45.4357   16.4329   -5.3175 C   0  0  0  0  0  0  0  0  0  0  0  0
   45.3517   15.5916   -6.3915 C   0  0  0  0  0  0  0  0  0  0  0  0
   46.0381   14.4389   -6.6236 C   0  0  0  0  0  0  0  0  0  0  0  0
   46.9820   13.6618   -5.9384 C   0  0  0  0  0  0  0  0  0  0  0  0
   47.5906   13.9301   -4.6236 C   0  0  0  0  0  0  0  0  0  0  0  0
   48.5055   12.8419   -4.3931 N   0  0  0  0  0  0  0  0  0  0  0  0
   48.4483   11.9190   -5.5019 C   0  0  0  0  0  0  0  0  0  0  0  0
   49.1547   10.9009   -5.4881 O   0  0  0  0  0  0  0  0  0  0  0  0
   47.4907   12.4735   -6.4317 C   0  0  0  0  0  0  0  0  0  0  0  0
   47.0741   11.9919   -7.6656 C   0  0  0  0  0  0  0  0  0  0  0  0
   47.3698   10.9352   -8.4771 C   0  0  0  0  0  0  0  0  0  0  0  0
   48.1922    9.8622   -8.3548 C   0  0  0  0  0  0  0  0  0  0  0  0
   48.2447    8.9476   -9.4226 C   0  0  0  0  0  0  0  0  0  0  0  0
   47.4879    9.1320  -10.5564 C   0  0  0  0  0  0  0  0  0  0  0  0
   46.6456   10.2350  -10.6765 C   0  0  0  0  0  0  0  0  0  0  0  0
   46.6125   11.1125   -9.6202 C   0  0  0  0  0  0  0  0  0  0  0  0
   45.8824   12.2119   -9.5349 N   0  0  0  0  0  0  0  0  0  0  0  0
   46.1520   12.7642   -8.3217 C   0  0  0  0  0  0  0  0  0  0  0  0
   45.6327   13.9676   -7.8104 C   0  0  0  0  0  0  0  0  0  0  0  0
   49.0961   12.7836   -3.5328 H   0  0  0  0  0  0  0  0  0  0  0  0
   45.0896   13.8978  -14.2282 C   0  0  0  0  0  0  0  0  0  0  0  0
   44.8593   14.7541  -13.1050 N   0  0  0  0  0  0  0  0  0  0  0  0
   45.6635   15.2930  -12.7750 H   0  0  0  0  0  0  0  0  0  0  0  0
   45.1663   16.0586  -11.0070 O   0  0  0  0  0  0  0  0  0  0  0  0
   44.8083   17.3732  -10.9237 C   0  0  0  0  0  0  0  0  0  0  0  0
 33 34  1  0  0  0
 34  1  1  0  0  0
  1  2  1  0  0  0
  2  3  1  0  0  0
  3  4  1  0  0  0
  4  5  1  0  0  0
  5  6  1  0  0  0
  5  7  1  0  0  0
  7 36  1  0  0  0
 36 37  1  0  0  0
  5  8  1  0  0  0
  8  9  1  0  0  0
  9 10  2  0  0  0
 10 11  1  0  0  0
 11 12  2  0  0  0
 12 13  1  0  0  0
 13 14  2  0  0  0
 14 15  1  0  0  0
 15 16  2  0  0  0
 16 17  1  0  0  0
 17 18  1  0  0  0
 18 19  1  0  0  0
 19 20  2  0  0  0
 19 21  1  0  0  0
 21 22  2  0  0  0
 22 23  1  0  0  0
 23 24  2  0  0  0
 24 25  1  0  0  0
 25 26  2  0  0  0
 26 27  1  0  0  0
 27 28  2  0  0  0
 28 29  1  0  0  0
 29 30  1  0  0  0
 30 31  2  0  0  0
  7  1  1  0  0  0
 31  8  1  0  0  0
 29  3  1  0  0  0
 14  9  1  0  0  0
 31 15  1  0  0  0
 21 16  1  0  0  0
 30 22  1  0  0  0
 28 23  1  0  0  0
 34 35  1  0  0  0
 18 32  1  0  0  0
M  END
> <minimizedAffinity>
-4.92918

> <CNNscore>
0.2746373117

> <CNNaffinity>
5.3435573578

> <CNN_VS>
1.4675402641

> <CNNaffinity_variance>
0.2052818537

$$$$
[H]c1c([H])c([H])c2c(c1[H])c1c3c(c4c5c([H])c([H])c([H])c([H])c5n5c4c1n2[C@]1([H])O[C@]5(C([H])([H])[H])[C@@]([H])(OC([H])([H])[H])[C@@]([H])(N([H])C([H])([H])[H])C1([H])[H])C([H])([H])N([H])C3=O


 37 44  0  0  0  0  0  0  0  0999 V2000
   44.4603   12.7547   -5.5702 C   0  0  0  0  0  0  0  0  0  0  0  0
   44.9497   13.2437   -6.9760 C   0  0  0  0  0  0  0  0  0  0  0  0
   43.8915   14.0123   -7.3884 C   0  0  0  0  0  0  0  0  0  0  0  0
   43.7876   14.9970   -6.4162 O   0  0  0  0  0  0  0  0  0  0  0  0
   42.6996   14.5864   -5.5783 C   0  0  0  0  0  0  0  0  0  0  0  0
   42.9281   15.5510   -4.3615 C   0  0  0  0  0  0  0  0  0  0  0  0
   43.0195   13.2196   -5.2423 C   0  0  0  0  0  0  0  0  0  0  0  0
   41.5046   15.0019   -6.2646 N   0  0  0  0  0  0  0  0  0  0  0  0
   40.3396   15.3482   -5.6696 C   0  0  0  0  0  0  0  0  0  0  0  0
   39.8651   15.2983   -4.3651 C   0  0  0  0  0  0  0  0  0  0  0  0
   38.5826   15.7306   -4.0400 C   0  0  0  0  0  0  0  0  0  0  0  0
   37.7367   16.2246   -5.0083 C   0  0  0  0  0  0  0  0  0  0  0  0
   38.1758   16.2875   -6.3133 C   0  0  0  0  0  0  0  0  0  0  0  0
   39.4412   15.8544   -6.5956 C   0  0  0  0  0  0  0  0  0  0  0  0
   40.0761   15.8121   -7.7992 C   0  0  0  0  0  0  0  0  0  0  0  0
   39.7836   16.1891   -9.1171 C   0  0  0  0  0  0  0  0  0  0  0  0
   38.5372   16.7828   -9.6319 C   0  0  0  0  0  0  0  0  0  0  0  0
   38.7477   16.9546  -11.0464 N   0  0  0  0  0  0  0  0  0  0  0  0
   40.0783   16.5153  -11.3941 C   0  0  0  0  0  0  0  0  0  0  0  0
   40.4619   16.5957  -12.5697 O   0  0  0  0  0  0  0  0  0  0  0  0
   40.6775   16.0498  -10.1639 C   0  0  0  0  0  0  0  0  0  0  0  0
   41.9376   15.5108   -9.9417 C   0  0  0  0  0  0  0  0  0  0  0  0
   43.0287   15.1793  -10.6917 C   0  0  0  0  0  0  0  0  0  0  0  0
   43.3342   15.3079  -12.0081 C   0  0  0  0  0  0  0  0  0  0  0  0
   44.5889   14.8422  -12.4415 C   0  0  0  0  0  0  0  0  0  0  0  0
   45.4806   14.2737  -11.5616 C   0  0  0  0  0  0  0  0  0  0  0  0
   45.1619   14.1444  -10.2118 C   0  0  0  0  0  0  0  0  0  0  0  0
   43.9311   14.6069   -9.8144 C   0  0  0  0  0  0  0  0  0  0  0  0
   43.4411   14.5805   -8.5863 N   0  0  0  0  0  0  0  0  0  0  0  0
   42.2063   15.1473   -8.6485 C   0  0  0  0  0  0  0  0  0  0  0  0
   41.2956   15.2994   -7.5870 C   0  0  0  0  0  0  0  0  0  0  0  0
   38.0100   17.3442  -11.6759 H   0  0  0  0  0  0  0  0  0  0  0  0
   45.2054   10.6317   -4.6860 C   0  0  0  0  0  0  0  0  0  0  0  0
   44.3855   11.3088   -5.6437 N   0  0  0  0  0  0  0  0  0  0  0  0
   44.3878   10.9257   -6.5920 H   0  0  0  0  0  0  0  0  0  0  0  0
   42.0818   12.2237   -5.4123 O   0  0  0  0  0  0  0  0  0  0  0  0
   41.5898   12.0469   -6.6733 C   0  0  0  0  0  0  0  0  0  0  0  0
 33 34  1  0  0  0
 34  1  1  0  0  0
  1  2  1  0  0  0
  2  3  1  0  0  0
  3  4  1  0  0  0
  4  5  1  0  0  0
  5  6  1  0  0  0
  5  7  1  0  0  0
  7 36  1  0  0  0
 36 37  1  0  0  0
  5  8  1  0  0  0
  8  9  1  0  0  0
  9 10  2  0  0  0
 10 11  1  0  0  0
 11 12  2  0  0  0
 12 13  1  0  0  0
 13 14  2  0  0  0
 14 15  1  0  0  0
 15 16  2  0  0  0
 16 17  1  0  0  0
 17 18  1  0  0  0
 18 19  1  0  0  0
 19 20  2  0  0  0
 19 21  1  0  0  0
 21 22  2  0  0  0
 22 23  1  0  0  0
 23 24  2  0  0  0
 24 25  1  0  0  0
 25 26  2  0  0  0
 26 27  1  0  0  0
 27 28  2  0  0  0
 28 29  1  0  0  0
 29 30  1  0  0  0
 30 31  2  0  0  0
  7  1  1  0  0  0
 31  8  1  0  0  0
 29  3  1  0  0  0
 14  9  1  0  0  0
 31 15  1  0  0  0
 21 16  1  0  0  0
 30 22  1  0  0  0
 28 23  1  0  0  0
 34 35  1  0  0  0
 18 32  1  0  0  0
M  END
> <minimizedAffinity>
-6.81358

> <CNNscore>
0.1510924250

> <CNNaffinity>
5.0983948708

> <CNN_VS>
0.7703288198

> <CNNaffinity_variance>
0.2933849692

$$$$
[H]c1c([H])c([H])c2c(c1[H])c1c3c(c4c5c([H])c([H])c([H])c([H])c5n5c4c1n2[C@]1([H])O[C@]5(C([H])([H])[H])[C@@]([H])(OC([H])([H])[H])[C@@]([H])(N([H])C([H])([H])[H])C1([H])[H])C([H])([H])N([H])C3=O


 37 44  0  0  0  0  0  0  0  0999 V2000
   44.3480   14.0658  -13.1609 C   0  0  0  0  0  0  0  0  0  0  0  0
   43.7395   13.5739  -14.5183 C   0  0  0  0  0  0  0  0  0  0  0  0
   42.4073   13.8481  -14.3430 C   0  0  0  0  0  0  0  0  0  0  0  0
   42.3676   15.2191  -14.1324 O   0  0  0  0  0  0  0  0  0  0  0  0
   42.2190   15.3789  -12.7159 C   0  0  0  0  0  0  0  0  0  0  0  0
   42.5520   16.9074  -12.5887 C   0  0  0  0  0  0  0  0  0  0  0  0
   43.2692   14.5570  -12.1637 C   0  0  0  0  0  0  0  0  0  0  0  0
   40.8155   15.2001  -12.4514 N   0  0  0  0  0  0  0  0  0  0  0  0
   40.1275   15.7842  -11.4432 C   0  0  0  0  0  0  0  0  0  0  0  0
   40.4860   16.5506  -10.3416 C   0  0  0  0  0  0  0  0  0  0  0  0
   39.5341   17.0232   -9.4428 C   0  0  0  0  0  0  0  0  0  0  0  0
   38.1967   16.7436   -9.6178 C   0  0  0  0  0  0  0  0  0  0  0  0
   37.8066   15.9850  -10.7005 C   0  0  0  0  0  0  0  0  0  0  0  0
   38.7688   15.5382  -11.5624 C   0  0  0  0  0  0  0  0  0  0  0  0
   38.6205   14.7734  -12.6789 C   0  0  0  0  0  0  0  0  0  0  0  0
   37.5529   14.2102  -13.3914 C   0  0  0  0  0  0  0  0  0  0  0  0
   36.1167   14.2749  -13.0688 C   0  0  0  0  0  0  0  0  0  0  0  0
   35.4554   13.5186  -14.1008 N   0  0  0  0  0  0  0  0  0  0  0  0
   36.4333   13.0288  -15.0432 C   0  0  0  0  0  0  0  0  0  0  0  0
   36.0620   12.3631  -16.0204 O   0  0  0  0  0  0  0  0  0  0  0  0
   37.7163   13.4840  -14.5577 C   0  0  0  0  0  0  0  0  0  0  0  0
   38.9853   13.2761  -15.0814 C   0  0  0  0  0  0  0  0  0  0  0  0
   39.5336   12.6008  -16.1330 C   0  0  0  0  0  0  0  0  0  0  0  0
   39.0111   11.8787  -17.1569 C   0  0  0  0  0  0  0  0  0  0  0  0
   39.9032   11.3101  -18.0842 C   0  0  0  0  0  0  0  0  0  0  0  0
   41.2629   11.4785  -17.9603 C   0  0  0  0  0  0  0  0  0  0  0  0
   41.7936   12.2206  -16.9077 C   0  0  0  0  0  0  0  0  0  0  0  0
   40.9015   12.7652  -16.0164 C   0  0  0  0  0  0  0  0  0  0  0  0
   41.1983   13.5003  -14.9579 N   0  0  0  0  0  0  0  0  0  0  0  0
   40.0168   13.8327  -14.3720 C   0  0  0  0  0  0  0  0  0  0  0  0
   39.8428   14.5772  -13.1910 C   0  0  0  0  0  0  0  0  0  0  0  0
   34.4196   13.3798  -14.1125 H   0  0  0  0  0  0  0  0  0  0  0  0
   46.1443   12.4480  -13.1654 C   0  0  0  0  0  0  0  0  0  0  0  0
   44.9429   12.9018  -12.5341 N   0  0  0  0  0  0  0  0  0  0  0  0
   44.2778   12.1770  -12.2540 H   0  0  0  0  0  0  0  0  0  0  0  0
   42.9854   13.6331  -11.1809 O   0  0  0  0  0  0  0  0  0  0  0  0
   43.2349   14.0060   -9.8917 C   0  0  0  0  0  0  0  0  0  0  0  0
 33 34  1  0  0  0
 34  1  1  0  0  0
  1  2  1  0  0  0
  2  3  1  0  0  0
  3  4  1  0  0  0
  4  5  1  0  0  0
  5  6  1  0  0  0
  5  7  1  0  0  0
  7 36  1  0  0  0
 36 37  1  0  0  0
  5  8  1  0  0  0
  8  9  1  0  0  0
  9 10  2  0  0  0
 10 11  1  0  0  0
 11 12  2  0  0  0
 12 13  1  0  0  0
 13 14  2  0  0  0
 14 15  1  0  0  0
 15 16  2  0  0  0
 16 17  1  0  0  0
 17 18  1  0  0  0
 18 19  1  0  0  0
 19 20  2  0  0  0
 19 21  1  0  0  0
 21 22  2  0  0  0
 22 23  1  0  0  0
 23 24  2  0  0  0
 24 25  1  0  0  0
 25 26  2  0  0  0
 26 27  1  0  0  0
 27 28  2  0  0  0
 28 29  1  0  0  0
 29 30  1  0  0  0
 30 31  2  0  0  0
  7  1  1  0  0  0
 31  8  1  0  0  0
 29  3  1  0  0  0
 14  9  1  0  0  0
 31 15  1  0  0  0
 21 16  1  0  0  0
 30 22  1  0  0  0
 28 23  1  0  0  0
 34 35  1  0  0  0
 18 32  1  0  0  0
M  END
> <minimizedAffinity>
-9.05141

> <CNNscore>
0.0932731628

> <CNNaffinity>
5.9926137924

> <CNN_VS>
0.5589500666

> <CNNaffinity_variance>
0.3839968443

$$$$
[H]c1c([H])c([H])c2c(c1[H])c1c3c(c4c5c([H])c([H])c([H])c([H])c5n5c4c1n2[C@]1([H])O[C@]5(C([H])([H])[H])[C@@]([H])(OC([H])([H])[H])[C@@]([H])(N([H])C([H])([H])[H])C1([H])[H])C([H])([H])N([H])C3=O


 37 44  0  0  0  0  0  0  0  0999 V2000
   43.0588   14.8831   -4.3786 C   0  0  0  0  0  0  0  0  0  0  0  0
   41.7040   15.2979   -5.0475 C   0  0  0  0  0  0  0  0  0  0  0  0
   41.9704   15.0819   -6.3752 C   0  0  0  0  0  0  0  0  0  0  0  0
   42.2817   13.7313   -6.4440 O   0  0  0  0  0  0  0  0  0  0  0  0
   43.7121   13.6773   -6.5174 C   0  0  0  0  0  0  0  0  0  0  0  0
   43.9317   12.1513   -6.2234 C   0  0  0  0  0  0  0  0  0  0  0  0
   44.1457   14.5004   -5.4138 C   0  0  0  0  0  0  0  0  0  0  0  0
   44.0382   13.9218   -7.8978 N   0  0  0  0  0  0  0  0  0  0  0  0
   45.1217   13.4341   -8.5452 C   0  0  0  0  0  0  0  0  0  0  0  0
   46.2551   12.7360   -8.1483 C   0  0  0  0  0  0  0  0  0  0  0  0
   47.2358   12.3607   -9.0619 C   0  0  0  0  0  0  0  0  0  0  0  0
   47.1134   12.6721  -10.3980 C   0  0  0  0  0  0  0  0  0  0  0  0
   46.0012   13.3649  -10.8256 C   0  0  0  0  0  0  0  0  0  0  0  0
   45.0585   13.7168   -9.9005 C   0  0  0  0  0  0  0  0  0  0  0  0
   43.8990   14.4052  -10.0885 C   0  0  0  0  0  0  0  0  0  0  0  0
   43.2061   14.9521  -11.1771 C   0  0  0  0  0  0  0  0  0  0  0  0
   43.6096   14.9591  -12.5942 C   0  0  0  0  0  0  0  0  0  0  0  0
   42.5625   15.6622  -13.2897 N   0  0  0  0  0  0  0  0  0  0  0  0
   41.5357   16.0508  -12.3522 C   0  0  0  0  0  0  0  0  0  0  0  0
   40.5342   16.6577  -12.7578 O   0  0  0  0  0  0  0  0  0  0  0  0
   41.9831   15.5881  -11.0580 C   0  0  0  0  0  0  0  0  0  0  0  0
   41.3780   15.7154   -9.8148 C   0  0  0  0  0  0  0  0  0  0  0  0
   40.2521   16.2955   -9.3066 C   0  0  0  0  0  0  0  0  0  0  0  0
   39.2082   16.9605   -9.8641 C   0  0  0  0  0  0  0  0  0  0  0  0
   38.1953   17.4316   -9.0089 C   0  0  0  0  0  0  0  0  0  0  0  0
   38.2576   17.2266   -7.6501 C   0  0  0  0  0  0  0  0  0  0  0  0
   39.3311   16.5434   -7.0834 C   0  0  0  0  0  0  0  0  0  0  0  0
   40.3064   16.0938   -7.9398 C   0  0  0  0  0  0  0  0  0  0  0  0
   41.3980   15.4259   -7.6060 N   0  0  0  0  0  0  0  0  0  0  0  0
   42.0693   15.1759   -8.7621 C   0  0  0  0  0  0  0  0  0  0  0  0
   43.3088   14.5232   -8.8915 C   0  0  0  0  0  0  0  0  0  0  0  0
   42.5967   15.8348  -14.3199 H   0  0  0  0  0  0  0  0  0  0  0  0
   42.5562   17.0178   -3.3614 C   0  0  0  0  0  0  0  0  0  0  0  0
   43.5664   16.0678   -3.7149 N   0  0  0  0  0  0  0  0  0  0  0  0
   44.4262   16.4501   -4.1157 H   0  0  0  0  0  0  0  0  0  0  0  0
   45.0727   15.5007   -5.6142 O   0  0  0  0  0  0  0  0  0  0  0  0
   46.3847   15.1739   -5.4264 C   0  0  0  0  0  0  0  0  0  0  0  0
 33 34  1  0  0  0
 34  1  1  0  0  0
  1  2  1  0  0  0
  2  3  1  0  0  0
  3  4  1  0  0  0
  4  5  1  0  0  0
  5  6  1  0  0  0
  5  7  1  0  0  0
  7 36  1  0  0  0
 36 37  1  0  0  0
  5  8  1  0  0  0
  8  9  1  0  0  0
  9 10  2  0  0  0
 10 11  1  0  0  0
 11 12  2  0  0  0
 12 13  1  0  0  0
 13 14  2  0  0  0
 14 15  1  0  0  0
 15 16  2  0  0  0
 16 17  1  0  0  0
 17 18  1  0  0  0
 18 19  1  0  0  0
 19 20  2  0  0  0
 19 21  1  0  0  0
 21 22  2  0  0  0
 22 23  1  0  0  0
 23 24  2  0  0  0
 24 25  1  0  0  0
 25 26  2  0  0  0
 26 27  1  0  0  0
 27 28  2  0  0  0
 28 29  1  0  0  0
 29 30  1  0  0  0
 30 31  2  0  0  0
  7  1  1  0  0  0
 31  8  1  0  0  0
 29  3  1  0  0  0
 14  9  1  0  0  0
 31 15  1  0  0  0
 21 16  1  0  0  0
 30 22  1  0  0  0
 28 23  1  0  0  0
 34 35  1  0  0  0
 18 32  1  0  0  0
M  END
> <minimizedAffinity>
-5.79725

> <CNNscore>
0.0926158279

> <CNNaffinity>
5.1757884026

> <CNN_VS>
0.4793599248

> <CNNaffinity_variance>
0.2142124474

$$$$
[H]c1c([H])c([H])c2c(c1[H])c1c3c(c4c5c([H])c([H])c([H])c([H])c5n5c4c1n2[C@]1([H])O[C@]5(C([H])([H])[H])[C@@]([H])(OC([H])([H])[H])[C@@]([H])(N([H])C([H])([H])[H])C1([H])[H])C([H])([H])N([H])C3=O


 37 44  0  0  0  0  0  0  0  0999 V2000
   39.1522   15.8299  -10.4568 C   0  0  0  0  0  0  0  0  0  0  0  0
   39.8149   15.3500  -11.7929 C   0  0  0  0  0  0  0  0  0  0  0  0
   38.7260   14.9161  -12.5047 C   0  0  0  0  0  0  0  0  0  0  0  0
   37.9182   16.0396  -12.6084 O   0  0  0  0  0  0  0  0  0  0  0  0
   36.8944   15.8604  -11.6215 C   0  0  0  0  0  0  0  0  0  0  0  0
   36.3000   17.3127  -11.5944 C   0  0  0  0  0  0  0  0  0  0  0  0
   37.6272   15.5619  -10.4142 C   0  0  0  0  0  0  0  0  0  0  0  0
   35.9229   14.9871  -12.2259 N   0  0  0  0  0  0  0  0  0  0  0  0
   34.5968   14.9846  -11.9568 C   0  0  0  0  0  0  0  0  0  0  0  0
   33.7968   15.6249  -11.0190 C   0  0  0  0  0  0  0  0  0  0  0  0
   32.4211   15.4188  -10.9737 C   0  0  0  0  0  0  0  0  0  0  0  0
   31.8045   14.5668  -11.8632 C   0  0  0  0  0  0  0  0  0  0  0  0
   32.5691   13.9147  -12.8066 C   0  0  0  0  0  0  0  0  0  0  0  0
   33.9170   14.1415  -12.8215 C   0  0  0  0  0  0  0  0  0  0  0  0
   34.8596   13.6060  -13.6450 C   0  0  0  0  0  0  0  0  0  0  0  0
   34.8746   12.7328  -14.7412 C   0  0  0  0  0  0  0  0  0  0  0  0
   33.7307   12.0431  -15.3633 C   0  0  0  0  0  0  0  0  0  0  0  0
   34.2903   11.2541  -16.4304 N   0  0  0  0  0  0  0  0  0  0  0  0
   35.7172   11.4654  -16.4911 C   0  0  0  0  0  0  0  0  0  0  0  0
   36.3859   10.8840  -17.3574 O   0  0  0  0  0  0  0  0  0  0  0  0
   36.0282   12.3886  -15.4233 C   0  0  0  0  0  0  0  0  0  0  0  0
   37.2545   12.9096  -15.0329 C   0  0  0  0  0  0  0  0  0  0  0  0
   38.5610   12.7743  -15.4036 C   0  0  0  0  0  0  0  0  0  0  0  0
   39.1881   12.0798  -16.3870 C   0  0  0  0  0  0  0  0  0  0  0  0
   40.5887   12.1796  -16.4734 C   0  0  0  0  0  0  0  0  0  0  0  0
   41.3035   12.9555  -15.5905 C   0  0  0  0  0  0  0  0  0  0  0  0
   40.6547   13.6661  -14.5833 C   0  0  0  0  0  0  0  0  0  0  0  0
   39.2873   13.5519  -14.5208 C   0  0  0  0  0  0  0  0  0  0  0  0
   38.4888   14.1432  -13.6480 N   0  0  0  0  0  0  0  0  0  0  0  0
   37.2214   13.7605  -13.9596 C   0  0  0  0  0  0  0  0  0  0  0  0
   36.0436   14.1127  -13.2757 C   0  0  0  0  0  0  0  0  0  0  0  0
   33.7011   10.6396  -17.0366 H   0  0  0  0  0  0  0  0  0  0  0  0
   40.3438   15.7471   -8.3550 C   0  0  0  0  0  0  0  0  0  0  0  0
   39.7123   15.0059   -9.4037 N   0  0  0  0  0  0  0  0  0  0  0  0
   40.2061   14.1708   -9.7278 H   0  0  0  0  0  0  0  0  0  0  0  0
   37.2961   14.4609   -9.6538 O   0  0  0  0  0  0  0  0  0  0  0  0
   36.4148   14.6590   -8.6305 C   0  0  0  0  0  0  0  0  0  0  0  0
 33 34  1  0  0  0
 34  1  1  0  0  0
  1  2  1  0  0  0
  2  3  1  0  0  0
  3  4  1  0  0  0
  4  5  1  0  0  0
  5  6  1  0  0  0
  5  7  1  0  0  0
  7 36  1  0  0  0
 36 37  1  0  0  0
  5  8  1  0  0  0
  8  9  1  0  0  0
  9 10  2  0  0  0
 10 11  1  0  0  0
 11 12  2  0  0  0
 12 13  1  0  0  0
 13 14  2  0  0  0
 14 15  1  0  0  0
 15 16  2  0  0  0
 16 17  1  0  0  0
 17 18  1  0  0  0
 18 19  1  0  0  0
 19 20  2  0  0  0
 19 21  1  0  0  0
 21 22  2  0  0  0
 22 23  1  0  0  0
 23 24  2  0  0  0
 24 25  1  0  0  0
 25 26  2  0  0  0
 26 27  1  0  0  0
 27 28  2  0  0  0
 28 29  1  0  0  0
 29 30  1  0  0  0
 30 31  2  0  0  0
  7  1  1  0  0  0
 31  8  1  0  0  0
 29  3  1  0  0  0
 14  9  1  0  0  0
 31 15  1  0  0  0
 21 16  1  0  0  0
 30 22  1  0  0  0
 28 23  1  0  0  0
 34 35  1  0  0  0
 18 32  1  0  0  0
M  END
> <minimizedAffinity>
-10.38368

> <CNNscore>
0.0875671059

> <CNNaffinity>
6.0879526138

> <CNN_VS>
0.5331044197

> <CNNaffinity_variance>
0.4226034582

$$$$
[H]c1c([H])c([H])c2c(c1[H])c1c3c(c4c5c([H])c([H])c([H])c([H])c5n5c4c1n2[C@]1([H])O[C@]5(C([H])([H])[H])[C@@]([H])(OC([H])([H])[H])[C@@]([H])(N([H])C([H])([H])[H])C1([H])[H])C([H])([H])N([H])C3=O


 37 44  0  0  0  0  0  0  0  0999 V2000
   35.4241   18.5454   -5.1182 C   0  0  0  0  0  0  0  0  0  0  0  0
   33.9544   18.0151   -5.0011 C   0  0  0  0  0  0  0  0  0  0  0  0
   33.8083   17.3338   -6.1823 C   0  0  0  0  0  0  0  0  0  0  0  0
   34.7989   16.3630   -6.1392 O   0  0  0  0  0  0  0  0  0  0  0  0
   35.8528   16.8624   -6.9725 C   0  0  0  0  0  0  0  0  0  0  0  0
   37.0059   15.8852   -6.5496 C   0  0  0  0  0  0  0  0  0  0  0  0
   36.0793   18.1995   -6.4784 C   0  0  0  0  0  0  0  0  0  0  0  0
   35.4638   16.5434   -8.3211 N   0  0  0  0  0  0  0  0  0  0  0  0
   36.3142   16.2940   -9.3437 C   0  0  0  0  0  0  0  0  0  0  0  0
   37.6910   16.3852   -9.5037 C   0  0  0  0  0  0  0  0  0  0  0  0
   38.3069   16.0590  -10.7084 C   0  0  0  0  0  0  0  0  0  0  0  0
   37.5658   15.6329  -11.7884 C   0  0  0  0  0  0  0  0  0  0  0  0
   36.1969   15.5317  -11.6640 C   0  0  0  0  0  0  0  0  0  0  0  0
   35.6265   15.8602  -10.4660 C   0  0  0  0  0  0  0  0  0  0  0  0
   34.3097   15.8481  -10.1202 C   0  0  0  0  0  0  0  0  0  0  0  0
   33.1004   15.4931  -10.7334 C   0  0  0  0  0  0  0  0  0  0  0  0
   32.8936   15.0011  -12.1068 C   0  0  0  0  0  0  0  0  0  0  0  0
   31.4721   14.8096  -12.2376 N   0  0  0  0  0  0  0  0  0  0  0  0
   30.8231   15.1388  -10.9908 C   0  0  0  0  0  0  0  0  0  0  0  0
   29.5930   15.0249  -10.8921 O   0  0  0  0  0  0  0  0  0  0  0  0
   31.8757   15.5571  -10.0929 C   0  0  0  0  0  0  0  0  0  0  0  0
   31.7954   15.9927   -8.7770 C   0  0  0  0  0  0  0  0  0  0  0  0
   30.8112   16.2330   -7.8626 C   0  0  0  0  0  0  0  0  0  0  0  0
   29.4628   16.0770   -7.8755 C   0  0  0  0  0  0  0  0  0  0  0  0
   28.7469   16.4385   -6.7197 C   0  0  0  0  0  0  0  0  0  0  0  0
   29.3899   16.9349   -5.6095 C   0  0  0  0  0  0  0  0  0  0  0  0
   30.7739   17.0928   -5.6017 C   0  0  0  0  0  0  0  0  0  0  0  0
   31.4492   16.7324   -6.7422 C   0  0  0  0  0  0  0  0  0  0  0  0
   32.7556   16.8012   -6.9365 N   0  0  0  0  0  0  0  0  0  0  0  0
   32.9864   16.3362   -8.1935 C   0  0  0  0  0  0  0  0  0  0  0  0
   34.2295   16.2608   -8.8481 C   0  0  0  0  0  0  0  0  0  0  0  0
   31.0343   14.4796  -13.1274 H   0  0  0  0  0  0  0  0  0  0  0  0
   34.2894   20.5028   -4.2667 C   0  0  0  0  0  0  0  0  0  0  0  0
   35.3395   19.9924   -5.0941 N   0  0  0  0  0  0  0  0  0  0  0  0
   35.4595   20.4454   -6.0032 H   0  0  0  0  0  0  0  0  0  0  0  0
   36.1056   19.2677   -7.3492 O   0  0  0  0  0  0  0  0  0  0  0  0
   37.3249   19.6333   -7.8421 C   0  0  0  0  0  0  0  0  0  0  0  0
 33 34  1  0  0  0
 34  1  1  0  0  0
  1  2  1  0  0  0
  2  3  1  0  0  0
  3  4  1  0  0  0
  4  5  1  0  0  0
  5  6  1  0  0  0
  5  7  1  0  0  0
  7 36  1  0  0  0
 36 37  1  0  0  0
  5  8  1  0  0  0
  8  9  1  0  0  0
  9 10  2  0  0  0
 10 11  1  0  0  0
 11 12  2  0  0  0
 12 13  1  0  0  0
 13 14  2  0  0  0
 14 15  1  0  0  0
 15 16  2  0  0  0
 16 17  1  0  0  0
 17 18  1  0  0  0
 18 19  1  0  0  0
 19 20  2  0  0  0
 19 21  1  0  0  0
 21 22  2  0  0  0
 22 23  1  0  0  0
 23 24  2  0  0  0
 24 25  1  0  0  0
 25 26  2  0  0  0
 26 27  1  0  0  0
 27 28  2  0  0  0
 28 29  1  0  0  0
 29 30  1  0  0  0
 30 31  2  0  0  0
  7  1  1  0  0  0
 31  8  1  0  0  0
 29  3  1  0  0  0
 14  9  1  0  0  0
 31 15  1  0  0  0
 21 16  1  0  0  0
 30 22  1  0  0  0
 28 23  1  0  0  0
 34 35  1  0  0  0
 18 32  1  0  0  0
M  END
> <minimizedAffinity>
-8.06042

> <CNNscore>
0.0773155615

> <CNNaffinity>
5.3249530792

> <CNN_VS>
0.4117017388

> <CNNaffinity_variance>
0.7641055584

$$$$
[H]c1c([H])c([H])c2c(c1[H])c1c3c(c4c5c([H])c([H])c([H])c([H])c5n5c4c1n2[C@]1([H])O[C@]5(C([H])([H])[H])[C@@]([H])(OC([H])([H])[H])[C@@]([H])(N([H])C([H])([H])[H])C1([H])[H])C([H])([H])N([H])C3=O


 37 44  0  0  0  0  0  0  0  0999 V2000
   44.4670   10.8315   -4.3826 C   0  0  0  0  0  0  0  0  0  0  0  0
   45.3094   10.6186   -5.6864 C   0  0  0  0  0  0  0  0  0  0  0  0
   44.8596   11.6425   -6.4800 C   0  0  0  0  0  0  0  0  0  0  0  0
   45.1575   12.7888   -5.7568 O   0  0  0  0  0  0  0  0  0  0  0  0
   43.9188   13.1885   -5.1565 C   0  0  0  0  0  0  0  0  0  0  0  0
   44.4576   14.2308   -4.1142 C   0  0  0  0  0  0  0  0  0  0  0  0
   43.4440   11.9873   -4.5123 C   0  0  0  0  0  0  0  0  0  0  0  0
   43.2052   13.9039   -6.1816 N   0  0  0  0  0  0  0  0  0  0  0  0
   42.3216   14.9061   -5.9672 C   0  0  0  0  0  0  0  0  0  0  0  0
   41.7307   15.4517   -4.8347 C   0  0  0  0  0  0  0  0  0  0  0  0
   40.8254   16.5053   -4.9218 C   0  0  0  0  0  0  0  0  0  0  0  0
   40.4835   17.0441   -6.1425 C   0  0  0  0  0  0  0  0  0  0  0  0
   41.0511   16.5258   -7.2866 C   0  0  0  0  0  0  0  0  0  0  0  0
   41.9362   15.4915   -7.1628 C   0  0  0  0  0  0  0  0  0  0  0  0
   42.6030   14.8218   -8.1429 C   0  0  0  0  0  0  0  0  0  0  0  0
   42.7136   14.9056   -9.5375 C   0  0  0  0  0  0  0  0  0  0  0  0
   42.0269   15.8425  -10.4441 C   0  0  0  0  0  0  0  0  0  0  0  0
   42.4704   15.4918  -11.7688 N   0  0  0  0  0  0  0  0  0  0  0  0
   43.4157   14.4034  -11.6900 C   0  0  0  0  0  0  0  0  0  0  0  0
   43.9292   13.9620  -12.7279 O   0  0  0  0  0  0  0  0  0  0  0  0
   43.5304   14.0773  -10.2865 C   0  0  0  0  0  0  0  0  0  0  0  0
   44.2936   13.0980   -9.6650 C   0  0  0  0  0  0  0  0  0  0  0  0
   45.1414   12.0994  -10.0479 C   0  0  0  0  0  0  0  0  0  0  0  0
   45.6310   11.6956  -11.2478 C   0  0  0  0  0  0  0  0  0  0  0  0
   46.5092   10.5966  -11.2647 C   0  0  0  0  0  0  0  0  0  0  0  0
   46.8626    9.9492  -10.1035 C   0  0  0  0  0  0  0  0  0  0  0  0
   46.3572   10.3679   -8.8749 C   0  0  0  0  0  0  0  0  0  0  0  0
   45.5023   11.4430   -8.8858 C   0  0  0  0  0  0  0  0  0  0  0  0
   44.9199   11.9942   -7.8341 N   0  0  0  0  0  0  0  0  0  0  0  0
   44.1727   13.0297   -8.3020 C   0  0  0  0  0  0  0  0  0  0  0  0
   43.3463   13.8807   -7.5456 C   0  0  0  0  0  0  0  0  0  0  0  0
   42.1242   15.9873  -12.6214 H   0  0  0  0  0  0  0  0  0  0  0  0
   44.4210    8.4778   -3.8330 C   0  0  0  0  0  0  0  0  0  0  0  0
   43.6678    9.6340   -4.2123 N   0  0  0  0  0  0  0  0  0  0  0  0
   42.9493    9.4914   -4.9261 H   0  0  0  0  0  0  0  0  0  0  0  0
   42.1570   11.5439   -4.7292 O   0  0  0  0  0  0  0  0  0  0  0  0
   41.7879   11.3283   -6.0256 C   0  0  0  0  0  0  0  0  0  0  0  0
 33 34  1  0  0  0
 34  1  1  0  0  0
  1  2  1  0  0  0
  2  3  1  0  0  0
  3  4  1  0  0  0
  4  5  1  0  0  0
  5  6  1  0  0  0
  5  7  1  0  0  0
  7 36  1  0  0  0
 36 37  1  0  0  0
  5  8  1  0  0  0
  8  9  1  0  0  0
  9 10  2  0  0  0
 10 11  1  0  0  0
 11 12  2  0  0  0
 12 13  1  0  0  0
 13 14  2  0  0  0
 14 15  1  0  0  0
 15 16  2  0  0  0
 16 17  1  0  0  0
 17 18  1  0  0  0
 18 19  1  0  0  0
 19 20  2  0  0  0
 19 21  1  0  0  0
 21 22  2  0  0  0
 22 23  1  0  0  0
 23 24  2  0  0  0
 24 25  1  0  0  0
 25 26  2  0  0  0
 26 27  1  0  0  0
 27 28  2  0  0  0
 28 29  1  0  0  0
 29 30  1  0  0  0
 30 31  2  0  0  0
  7  1  1  0  0  0
 31  8  1  0  0  0
 29  3  1  0  0  0
 14  9  1  0  0  0
 31 15  1  0  0  0
 21 16  1  0  0  0
 30 22  1  0  0  0
 28 23  1  0  0  0
 34 35  1  0  0  0
 18 32  1  0  0  0
M  END
> <minimizedAffinity>
-6.34554

> <CNNscore>
0.0770667419

> <CNNaffinity>
4.7676668167

> <CNN_VS>
0.3674285412

> <CNNaffinity_variance>
0.5808447599

$$$$
[H]c1c([H])c([H])c2c(c1[H])c1c3c(c4c5c([H])c([H])c([H])c([H])c5n5c4c1n2[C@@]1(C([H])([H])[H])O[C@]5([H])C([H])([H])[C@]([H])(N([H])C([H])([H])[H])[C@]1([H])OC([H])([H])[H])C(=O)N([H])C3([H])[H]


 37 44  0  0  0  0  0  0  0  0999 V2000
   43.4941   17.7868   -6.2692 C   0  0  0  0  0  0  0  0  0  0  0  0
   44.6177   17.4683   -7.2361 C   0  0  0  0  0  0  0  0  0  0  0  0
   44.5602   16.0472   -7.7206 C   0  0  0  0  0  0  0  0  0  0  0  0
   44.1075   15.1171   -6.8838 O   0  0  0  0  0  0  0  0  0  0  0  0
   43.0261   15.3934   -6.0409 C   0  0  0  0  0  0  0  0  0  0  0  0
   43.0683   14.2308   -5.0659 C   0  0  0  0  0  0  0  0  0  0  0  0
   43.4134   16.6562   -5.3007 C   0  0  0  0  0  0  0  0  0  0  0  0
   41.7882   15.4667   -6.7817 N   0  0  0  0  0  0  0  0  0  0  0  0
   40.5581   15.2512   -6.2542 C   0  0  0  0  0  0  0  0  0  0  0  0
   40.1045   15.0158   -4.9914 C   0  0  0  0  0  0  0  0  0  0  0  0
   38.7528   14.8314   -4.6914 C   0  0  0  0  0  0  0  0  0  0  0  0
   37.8107   14.8830   -5.6819 C   0  0  0  0  0  0  0  0  0  0  0  0
   38.2549   15.1204   -6.9550 C   0  0  0  0  0  0  0  0  0  0  0  0
   39.5856   15.3036   -7.2623 C   0  0  0  0  0  0  0  0  0  0  0  0
   40.2530   15.5642   -8.4307 C   0  0  0  0  0  0  0  0  0  0  0  0
   39.8126   15.7241   -9.7280 C   0  0  0  0  0  0  0  0  0  0  0  0
   38.4477   15.6619  -10.3064 C   0  0  0  0  0  0  0  0  0  0  0  0
   38.6230   15.9026  -11.6995 N   0  0  0  0  0  0  0  0  0  0  0  0
   40.0163   16.1123  -11.9982 C   0  0  0  0  0  0  0  0  0  0  0  0
   40.4022   16.3420  -13.1512 O   0  0  0  0  0  0  0  0  0  0  0  0
   40.7336   15.9946  -10.7469 C   0  0  0  0  0  0  0  0  0  0  0  0
   42.0813   16.0955  -10.4035 C   0  0  0  0  0  0  0  0  0  0  0  0
   43.2441   16.3765  -11.1178 C   0  0  0  0  0  0  0  0  0  0  0  0
   43.4856   16.6281  -12.4257 C   0  0  0  0  0  0  0  0  0  0  0  0
   44.8072   16.8808  -12.8347 C   0  0  0  0  0  0  0  0  0  0  0  0
   45.8289   16.8722  -11.9256 C   0  0  0  0  0  0  0  0  0  0  0  0
   45.6046   16.6187  -10.5924 C   0  0  0  0  0  0  0  0  0  0  0  0
   44.2995   16.3716  -10.2032 C   0  0  0  0  0  0  0  0  0  0  0  0
   43.8074   16.0993   -8.9872 N   0  0  0  0  0  0  0  0  0  0  0  0
   42.4873   15.9282   -9.0882 C   0  0  0  0  0  0  0  0  0  0  0  0
   41.5588   15.6601   -8.1203 C   0  0  0  0  0  0  0  0  0  0  0  0
   37.8430   15.9204  -12.3867 H   0  0  0  0  0  0  0  0  0  0  0  0
   42.7703   19.4923   -4.6762 C   0  0  0  0  0  0  0  0  0  0  0  0
   43.5281   19.0924   -5.7896 N   0  0  0  0  0  0  0  0  0  0  0  0
   43.5460   19.8484   -6.5064 H   0  0  0  0  0  0  0  0  0  0  0  0
   44.6928   16.4236   -4.8225 O   0  0  0  0  0  0  0  0  0  0  0  0
   44.9801   16.7542   -3.5419 C   0  0  0  0  0  0  0  0  0  0  0  0
 33 34  1  0  0  0
 34  1  1  0  0  0
  1  2  1  0  0  0
  2  3  1  0  0  0
  3  4  1  0  0  0
  4  5  1  0  0  0
  5  6  1  0  0  0
  5  7  1  0  0  0
  7 36  1  0  0  0
 36 37  1  0  0  0
  5  8  1  0  0  0
  8  9  1  0  0  0
  9 10  2  0  0  0
 10 11  1  0  0  0
 11 12  2  0  0  0
 12 13  1  0  0  0
 13 14  2  0  0  0
 14 15  1  0  0  0
 15 16  2  0  0  0
 16 17  1  0  0  0
 17 18  1  0  0  0
 18 19  1  0  0  0
 19 20  2  0  0  0
 19 21  1  0  0  0
 21 22  2  0  0  0
 22 23  1  0  0  0
 23 24  2  0  0  0
 24 25  1  0  0  0
 25 26  2  0  0  0
 26 27  1  0  0  0
 27 28  2  0  0  0
 28 29  1  0  0  0
 29 30  1  0  0  0
 30 31  2  0  0  0
  7  1  1  0  0  0
 31  8  1  0  0  0
 29  3  1  0  0  0
 14  9  1  0  0  0
 31 15  1  0  0  0
 21 16  1  0  0  0
 30 22  1  0  0  0
 28 23  1  0  0  0
 34 35  1  0  0  0
 18 32  1  0  0  0
M  END
> <minimizedAffinity>
-7.11907

> <CNNscore>
0.1934036165

> <CNNaffinity>
5.2324748039

> <CNN_VS>
1.0119795799

> <CNNaffinity_variance>
0.1710256487

$$$$
[H]c1c([H])c([H])c2c(c1[H])c1c3c(c4c5c([H])c([H])c([H])c([H])c5n5c4c1n2[C@@]1(C([H])([H])[H])O[C@]5([H])C([H])([H])[C@]([H])(N([H])C([H])([H])[H])[C@]1([H])OC([H])([H])[H])C(=O)N([H])C3([H])[H]


 37 44  0  0  0  0  0  0  0  0999 V2000
   46.0118   10.9129   -9.3525 C   0  0  0  0  0  0  0  0  0  0  0  0
   46.1323   10.4290   -7.9207 C   0  0  0  0  0  0  0  0  0  0  0  0
   46.1354   11.5661   -6.9385 C   0  0  0  0  0  0  0  0  0  0  0  0
   46.6942   12.7148   -7.3107 O   0  0  0  0  0  0  0  0  0  0  0  0
   46.5238   13.1916   -8.6145 C   0  0  0  0  0  0  0  0  0  0  0  0
   47.5636   14.2945   -8.6960 C   0  0  0  0  0  0  0  0  0  0  0  0
   46.9590   12.0530   -9.5128 C   0  0  0  0  0  0  0  0  0  0  0  0
   45.1765   13.6666   -8.8282 N   0  0  0  0  0  0  0  0  0  0  0  0
   44.8187   14.5815   -9.7625 C   0  0  0  0  0  0  0  0  0  0  0  0
   45.4923   15.2199  -10.7597 C   0  0  0  0  0  0  0  0  0  0  0  0
   44.8851   16.1367  -11.6212 C   0  0  0  0  0  0  0  0  0  0  0  0
   43.5562   16.4332  -11.4911 C   0  0  0  0  0  0  0  0  0  0  0  0
   42.8686   15.7964  -10.4930 C   0  0  0  0  0  0  0  0  0  0  0  0
   43.4573   14.8905   -9.6376 C   0  0  0  0  0  0  0  0  0  0  0  0
   42.9822   14.1331   -8.5989 C   0  0  0  0  0  0  0  0  0  0  0  0
   41.7280   14.0249   -8.0351 C   0  0  0  0  0  0  0  0  0  0  0  0
   40.4516   14.7060   -8.3642 C   0  0  0  0  0  0  0  0  0  0  0  0
   39.5040   14.1894   -7.4344 N   0  0  0  0  0  0  0  0  0  0  0  0
   40.1320   13.2298   -6.5630 C   0  0  0  0  0  0  0  0  0  0  0  0
   39.4948   12.6494   -5.6752 O   0  0  0  0  0  0  0  0  0  0  0  0
   41.5204   13.1490   -6.9630 C   0  0  0  0  0  0  0  0  0  0  0  0
   42.6074   12.4071   -6.5019 C   0  0  0  0  0  0  0  0  0  0  0  0
   42.7705   11.4434   -5.5090 C   0  0  0  0  0  0  0  0  0  0  0  0
   41.9235   10.8963   -4.6059 C   0  0  0  0  0  0  0  0  0  0  0  0
   42.4148    9.9211   -3.7197 C   0  0  0  0  0  0  0  0  0  0  0  0
   43.7254    9.5336   -3.7711 C   0  0  0  0  0  0  0  0  0  0  0  0
   44.6021   10.0771   -4.6810 C   0  0  0  0  0  0  0  0  0  0  0  0
   44.1057   11.0358   -5.5473 C   0  0  0  0  0  0  0  0  0  0  0  0
   44.7310   11.7179   -6.5162 N   0  0  0  0  0  0  0  0  0  0  0  0
   43.8542   12.5425   -7.0934 C   0  0  0  0  0  0  0  0  0  0  0  0
   44.0198   13.4122   -8.1360 C   0  0  0  0  0  0  0  0  0  0  0  0
   38.5053   14.4770   -7.4052 H   0  0  0  0  0  0  0  0  0  0  0  0
   46.3647   10.1081  -11.6325 C   0  0  0  0  0  0  0  0  0  0  0  0
   46.0214    9.8837  -10.2887 N   0  0  0  0  0  0  0  0  0  0  0  0
   45.2452    9.1917  -10.2236 H   0  0  0  0  0  0  0  0  0  0  0  0
   48.1889   11.6468   -9.0207 O   0  0  0  0  0  0  0  0  0  0  0  0
   49.2065   11.4501   -9.8910 C   0  0  0  0  0  0  0  0  0  0  0  0
 33 34  1  0  0  0
 34  1  1  0  0  0
  1  2  1  0  0  0
  2  3  1  0  0  0
  3  4  1  0  0  0
  4  5  1  0  0  0
  5  6  1  0  0  0
  5  7  1  0  0  0
  7 36  1  0  0  0
 36 37  1  0  0  0
  5  8  1  0  0  0
  8  9  1  0  0  0
  9 10  2  0  0  0
 10 11  1  0  0  0
 11 12  2  0  0  0
 12 13  1  0  0  0
 13 14  2  0  0  0
 14 15  1  0  0  0
 15 16  2  0  0  0
 16 17  1  0  0  0
 17 18  1  0  0  0
 18 19  1  0  0  0
 19 20  2  0  0  0
 19 21  1  0  0  0
 21 22  2  0  0  0
 22 23  1  0  0  0
 23 24  2  0  0  0
 24 25  1  0  0  0
 25 26  2  0  0  0
 26 27  1  0  0  0
 27 28  2  0  0  0
 28 29  1  0  0  0
 29 30  1  0  0  0
 30 31  2  0  0  0
  7  1  1  0  0  0
 31  8  1  0  0  0
 29  3  1  0  0  0
 14  9  1  0  0  0
 31 15  1  0  0  0
 21 16  1  0  0  0
 30 22  1  0  0  0
 28 23  1  0  0  0
 34 35  1  0  0  0
 18 32  1  0  0  0
M  END
> <minimizedAffinity>
-7.04512

> <CNNscore>
0.1628058702

> <CNNaffinity>
4.8560938835

> <CNN_VS>
0.7906005979

> <CNNaffinity_variance>
0.7744780779

$$$$
[H]c1c([H])c([H])c2c(c1[H])c1c3c(c4c5c([H])c([H])c([H])c([H])c5n5c4c1n2[C@@]1(C([H])([H])[H])O[C@]5([H])C([H])([H])[C@]([H])(N([H])C([H])([H])[H])[C@]1([H])OC([H])([H])[H])C(=O)N([H])C3([H])[H]


 37 44  0  0  0  0  0  0  0  0999 V2000
   41.4655   14.8778   -8.4897 C   0  0  0  0  0  0  0  0  0  0  0  0
   42.0038   15.9305   -9.4387 C   0  0  0  0  0  0  0  0  0  0  0  0
   43.4544   16.2300   -9.1861 C   0  0  0  0  0  0  0  0  0  0  0  0
   43.9005   16.1598   -7.9345 O   0  0  0  0  0  0  0  0  0  0  0  0
   43.4521   15.1454   -7.0823 C   0  0  0  0  0  0  0  0  0  0  0  0
   43.9274   15.6281   -5.7238 C   0  0  0  0  0  0  0  0  0  0  0  0
   41.9411   15.2336   -7.1222 C   0  0  0  0  0  0  0  0  0  0  0  0
   44.0061   13.8642   -7.4537 N   0  0  0  0  0  0  0  0  0  0  0  0
   44.1595   12.8146   -6.6094 C   0  0  0  0  0  0  0  0  0  0  0  0
   43.8065   12.5914   -5.3128 C   0  0  0  0  0  0  0  0  0  0  0  0
   44.0725   11.3918   -4.6484 C   0  0  0  0  0  0  0  0  0  0  0  0
   44.7135   10.3704   -5.2941 C   0  0  0  0  0  0  0  0  0  0  0  0
   45.0719   10.5829   -6.5983 C   0  0  0  0  0  0  0  0  0  0  0  0
   44.8147   11.7621   -7.2634 C   0  0  0  0  0  0  0  0  0  0  0  0
   45.0572   12.1920   -8.5419 C   0  0  0  0  0  0  0  0  0  0  0  0
   45.6650   11.5825   -9.6198 C   0  0  0  0  0  0  0  0  0  0  0  0
   46.2753   10.2375   -9.7597 C   0  0  0  0  0  0  0  0  0  0  0  0
   46.7439   10.1798  -11.1037 N   0  0  0  0  0  0  0  0  0  0  0  0
   46.4480   11.4119  -11.7886 C   0  0  0  0  0  0  0  0  0  0  0  0
   46.7634   11.5845  -12.9726 O   0  0  0  0  0  0  0  0  0  0  0  0
   45.7742   12.2675  -10.8357 C   0  0  0  0  0  0  0  0  0  0  0  0
   45.2535   13.5589  -10.9104 C   0  0  0  0  0  0  0  0  0  0  0  0
   45.1527   14.5048  -11.9284 C   0  0  0  0  0  0  0  0  0  0  0  0
   45.5563   14.5166  -13.2205 C   0  0  0  0  0  0  0  0  0  0  0  0
   45.2938   15.6558  -14.0023 C   0  0  0  0  0  0  0  0  0  0  0  0
   44.6424   16.7315  -13.4650 C   0  0  0  0  0  0  0  0  0  0  0  0
   44.2243   16.7395  -12.1546 C   0  0  0  0  0  0  0  0  0  0  0  0
   44.4888   15.6123  -11.3962 C   0  0  0  0  0  0  0  0  0  0  0  0
   44.1979   15.3577  -10.1134 N   0  0  0  0  0  0  0  0  0  0  0  0
   44.6495   14.1397   -9.8056 C   0  0  0  0  0  0  0  0  0  0  0  0
   44.5656   13.4413   -8.6326 C   0  0  0  0  0  0  0  0  0  0  0  0
   47.2284    9.3561  -11.5133 H   0  0  0  0  0  0  0  0  0  0  0  0
   39.2582   15.4834   -9.3452 C   0  0  0  0  0  0  0  0  0  0  0  0
   40.1191   14.5885   -8.6879 N   0  0  0  0  0  0  0  0  0  0  0  0
   39.6242   14.1241   -7.8973 H   0  0  0  0  0  0  0  0  0  0  0  0
   41.6457   16.5709   -6.9121 O   0  0  0  0  0  0  0  0  0  0  0  0
   40.6168   16.8902   -6.0928 C   0  0  0  0  0  0  0  0  0  0  0  0
 33 34  1  0  0  0
 34  1  1  0  0  0
  1  2  1  0  0  0
  2  3  1  0  0  0
  3  4  1  0  0  0
  4  5  1  0  0  0
  5  6  1  0  0  0
  5  7  1  0  0  0
  7 36  1  0  0  0
 36 37  1  0  0  0
  5  8  1  0  0  0
  8  9  1  0  0  0
  9 10  2  0  0  0
 10 11  1  0  0  0
 11 12  2  0  0  0
 12 13  1  0  0  0
 13 14  2  0  0  0
 14 15  1  0  0  0
 15 16  2  0  0  0
 16 17  1  0  0  0
 17 18  1  0  0  0
 18 19  1  0  0  0
 19 20  2  0  0  0
 19 21  1  0  0  0
 21 22  2  0  0  0
 22 23  1  0  0  0
 23 24  2  0  0  0
 24 25  1  0  0  0
 25 26  2  0  0  0
 26 27  1  0  0  0
 27 28  2  0  0  0
 28 29  1  0  0  0
 29 30  1  0  0  0
 30 31  2  0  0  0
  7  1  1  0  0  0
 31  8  1  0  0  0
 29  3  1  0  0  0
 14  9  1  0  0  0
 31 15  1  0  0  0
 21 16  1  0  0  0
 30 22  1  0  0  0
 28 23  1  0  0  0
 34 35  1  0  0  0
 18 32  1  0  0  0
M  END
> <minimizedAffinity>
-6.59149

> <CNNscore>
0.1333681196

> <CNNaffinity>
5.1293764114

> <CNN_VS>
0.6840952635

> <CNNaffinity_variance>
0.3016787171

$$$$
[H]c1c([H])c([H])c2c(c1[H])c1c3c(c4c5c([H])c([H])c([H])c([H])c5n5c4c1n2[C@@]1(C([H])([H])[H])O[C@]5([H])C([H])([H])[C@]([H])(N([H])C([H])([H])[H])[C@]1([H])OC([H])([H])[H])C(=O)N([H])C3([H])[H]


 37 44  0  0  0  0  0  0  0  0999 V2000
   44.5829   16.1472   -8.7457 C   0  0  0  0  0  0  0  0  0  0  0  0
   43.0890   16.2092   -8.9966 C   0  0  0  0  0  0  0  0  0  0  0  0
   42.5717   14.9540   -9.6404 C   0  0  0  0  0  0  0  0  0  0  0  0
   43.3705   14.3076  -10.4856 O   0  0  0  0  0  0  0  0  0  0  0  0
   44.7382   14.1942  -10.2158 C   0  0  0  0  0  0  0  0  0  0  0  0
   45.2924   13.7086  -11.5429 C   0  0  0  0  0  0  0  0  0  0  0  0
   45.2154   15.6126   -9.9855 C   0  0  0  0  0  0  0  0  0  0  0  0
   44.9848   13.2754   -9.1288 N   0  0  0  0  0  0  0  0  0  0  0  0
   46.1449   12.6012   -8.9351 C   0  0  0  0  0  0  0  0  0  0  0  0
   47.3578   12.6193   -9.5548 C   0  0  0  0  0  0  0  0  0  0  0  0
   48.4286   11.8172   -9.1532 C   0  0  0  0  0  0  0  0  0  0  0  0
   48.2937   10.9624   -8.0939 C   0  0  0  0  0  0  0  0  0  0  0  0
   47.0793   10.9366   -7.4623 C   0  0  0  0  0  0  0  0  0  0  0  0
   46.0163   11.7232   -7.8499 C   0  0  0  0  0  0  0  0  0  0  0  0
   44.7405   11.8797   -7.3745 C   0  0  0  0  0  0  0  0  0  0  0  0
   44.0661   11.2820   -6.3302 C   0  0  0  0  0  0  0  0  0  0  0  0
   44.4988   10.2486   -5.3576 C   0  0  0  0  0  0  0  0  0  0  0  0
   43.3671   10.0286   -4.5208 N   0  0  0  0  0  0  0  0  0  0  0  0
   42.2739   10.8736   -4.9275 C   0  0  0  0  0  0  0  0  0  0  0  0
   41.1865   10.8518   -4.3375 O   0  0  0  0  0  0  0  0  0  0  0  0
   42.7413   11.6444   -6.0596 C   0  0  0  0  0  0  0  0  0  0  0  0
   42.1475   12.6126   -6.8686 C   0  0  0  0  0  0  0  0  0  0  0  0
   40.8985   13.2299   -6.8820 C   0  0  0  0  0  0  0  0  0  0  0  0
   39.7899   13.0862   -6.1186 C   0  0  0  0  0  0  0  0  0  0  0  0
   38.6653   13.8826   -6.3997 C   0  0  0  0  0  0  0  0  0  0  0  0
   38.6933   14.7856   -7.4264 C   0  0  0  0  0  0  0  0  0  0  0  0
   39.8096   14.9468   -8.2137 C   0  0  0  0  0  0  0  0  0  0  0  0
   40.9093   14.1569   -7.9265 C   0  0  0  0  0  0  0  0  0  0  0  0
   42.1070   14.1091   -8.5251 N   0  0  0  0  0  0  0  0  0  0  0  0
   42.8566   13.1915   -7.9101 C   0  0  0  0  0  0  0  0  0  0  0  0
   44.1480   12.8085   -8.1472 C   0  0  0  0  0  0  0  0  0  0  0  0
   43.3523    9.3499   -3.7333 H   0  0  0  0  0  0  0  0  0  0  0  0
   44.6115   17.7927   -6.9397 C   0  0  0  0  0  0  0  0  0  0  0  0
   45.0963   17.3019   -8.1636 N   0  0  0  0  0  0  0  0  0  0  0  0
   45.3116   18.0899   -8.8104 H   0  0  0  0  0  0  0  0  0  0  0  0
   44.7229   16.3437  -11.0544 O   0  0  0  0  0  0  0  0  0  0  0  0
   45.5085   17.2953  -11.6104 C   0  0  0  0  0  0  0  0  0  0  0  0
 33 34  1  0  0  0
 34  1  1  0  0  0
  1  2  1  0  0  0
  2  3  1  0  0  0
  3  4  1  0  0  0
  4  5  1  0  0  0
  5  6  1  0  0  0
  5  7  1  0  0  0
  7 36  1  0  0  0
 36 37  1  0  0  0
  5  8  1  0  0  0
  8  9  1  0  0  0
  9 10  2  0  0  0
 10 11  1  0  0  0
 11 12  2  0  0  0
 12 13  1  0  0  0
 13 14  2  0  0  0
 14 15  1  0  0  0
 15 16  2  0  0  0
 16 17  1  0  0  0
 17 18  1  0  0  0
 18 19  1  0  0  0
 19 20  2  0  0  0
 19 21  1  0  0  0
 21 22  2  0  0  0
 22 23  1  0  0  0
 23 24  2  0  0  0
 24 25  1  0  0  0
 25 26  2  0  0  0
 26 27  1  0  0  0
 27 28  2  0  0  0
 28 29  1  0  0  0
 29 30  1  0  0  0
 30 31  2  0  0  0
  7  1  1  0  0  0
 31  8  1  0  0  0
 29  3  1  0  0  0
 14  9  1  0  0  0
 31 15  1  0  0  0
 21 16  1  0  0  0
 30 22  1  0  0  0
 28 23  1  0  0  0
 34 35  1  0  0  0
 18 32  1  0  0  0
M  END
> <minimizedAffinity>
-6.60317

> <CNNscore>
0.1137244031

> <CNNaffinity>
4.9520006180

> <CNN_VS>
0.5631633401

> <CNNaffinity_variance>
0.3326393664

$$$$
[H]c1c([H])c([H])c2c(c1[H])c1c3c(c4c5c([H])c([H])c([H])c([H])c5n5c4c1n2[C@@]1(C([H])([H])[H])O[C@]5([H])C([H])([H])[C@]([H])(N([H])C([H])([H])[H])[C@]1([H])OC([H])([H])[H])C(=O)N([H])C3([H])[H]


 37 44  0  0  0  0  0  0  0  0999 V2000
   45.2325   16.7400  -10.9918 C   0  0  0  0  0  0  0  0  0  0  0  0
   43.9235   16.5778  -10.2442 C   0  0  0  0  0  0  0  0  0  0  0  0
   43.2148   15.3059  -10.6154 C   0  0  0  0  0  0  0  0  0  0  0  0
   43.3377   14.8607  -11.8632 O   0  0  0  0  0  0  0  0  0  0  0  0
   44.5661   14.9507  -12.5259 C   0  0  0  0  0  0  0  0  0  0  0  0
   44.1814   14.6594  -13.9651 C   0  0  0  0  0  0  0  0  0  0  0  0
   44.9674   16.4069  -12.4206 C   0  0  0  0  0  0  0  0  0  0  0  0
   45.5208   14.0069  -11.9927 N   0  0  0  0  0  0  0  0  0  0  0  0
   46.5857   13.5167  -12.6737 C   0  0  0  0  0  0  0  0  0  0  0  0
   47.1176   13.7760  -13.9007 C   0  0  0  0  0  0  0  0  0  0  0  0
   48.2568   13.1304  -14.3872 C   0  0  0  0  0  0  0  0  0  0  0  0
   48.8967   12.1899  -13.6276 C   0  0  0  0  0  0  0  0  0  0  0  0
   48.3719   11.9220  -12.3918 C   0  0  0  0  0  0  0  0  0  0  0  0
   47.2488   12.5526  -11.9020 C   0  0  0  0  0  0  0  0  0  0  0  0
   46.5630   12.4655  -10.7186 C   0  0  0  0  0  0  0  0  0  0  0  0
   46.7600   11.6919   -9.5937 C   0  0  0  0  0  0  0  0  0  0  0  0
   47.7932   10.6737   -9.2823 C   0  0  0  0  0  0  0  0  0  0  0  0
   47.4781   10.2130   -7.9716 N   0  0  0  0  0  0  0  0  0  0  0  0
   46.3150   10.8976   -7.4683 C   0  0  0  0  0  0  0  0  0  0  0  0
   45.8607   10.6571   -6.3428 O   0  0  0  0  0  0  0  0  0  0  0  0
   45.8898   11.8145   -8.5040 C   0  0  0  0  0  0  0  0  0  0  0  0
   44.8428   12.7304   -8.6002 C   0  0  0  0  0  0  0  0  0  0  0  0
   43.8294   13.1369   -7.7347 C   0  0  0  0  0  0  0  0  0  0  0  0
   43.4790   12.7604   -6.4826 C   0  0  0  0  0  0  0  0  0  0  0  0
   42.3760   13.3829   -5.8712 C   0  0  0  0  0  0  0  0  0  0  0  0
   41.6713   14.3511   -6.5315 C   0  0  0  0  0  0  0  0  0  0  0  0
   42.0110   14.7479   -7.8041 C   0  0  0  0  0  0  0  0  0  0  0  0
   43.0984   14.1274   -8.3942 C   0  0  0  0  0  0  0  0  0  0  0  0
   43.6371   14.3177   -9.6061 N   0  0  0  0  0  0  0  0  0  0  0  0
   44.6756   13.4910   -9.7475 C   0  0  0  0  0  0  0  0  0  0  0  0
   45.5433   13.3402  -10.7940 C   0  0  0  0  0  0  0  0  0  0  0  0
   48.0226    9.4851   -7.4671 H   0  0  0  0  0  0  0  0  0  0  0  0
   47.1724   18.2085  -11.2167 C   0  0  0  0  0  0  0  0  0  0  0  0
   45.9066   17.9169  -10.6814 N   0  0  0  0  0  0  0  0  0  0  0  0
   45.8499   18.2353   -9.6909 H   0  0  0  0  0  0  0  0  0  0  0  0
   43.8506   17.1249  -12.8167 O   0  0  0  0  0  0  0  0  0  0  0  0
   44.0273   18.2990  -13.4663 C   0  0  0  0  0  0  0  0  0  0  0  0
 33 34  1  0  0  0
 34  1  1  0  0  0
  1  2  1  0  0  0
  2  3  1  0  0  0
  3  4  1  0  0  0
  4  5  1  0  0  0
  5  6  1  0  0  0
  5  7  1  0  0  0
  7 36  1  0  0  0
 36 37  1  0  0  0
  5  8  1  0  0  0
  8  9  1  0  0  0
  9 10  2  0  0  0
 10 11  1  0  0  0
 11 12  2  0  0  0
 12 13  1  0  0  0
 13 14  2  0  0  0
 14 15  1  0  0  0
 15 16  2  0  0  0
 16 17  1  0  0  0
 17 18  1  0  0  0
 18 19  1  0  0  0
 19 20  2  0  0  0
 19 21  1  0  0  0
 21 22  2  0  0  0
 22 23  1  0  0  0
 23 24  2  0  0  0
 24 25  1  0  0  0
 25 26  2  0  0  0
 26 27  1  0  0  0
 27 28  2  0  0  0
 28 29  1  0  0  0
 29 30  1  0  0  0
 30 31  2  0  0  0
  7  1  1  0  0  0
 31  8  1  0  0  0
 29  3  1  0  0  0
 14  9  1  0  0  0
 31 15  1  0  0  0
 21 16  1  0  0  0
 30 22  1  0  0  0
 28 23  1  0  0  0
 34 35  1  0  0  0
 18 32  1  0  0  0
M  END
> <minimizedAffinity>
-5.52822

> <CNNscore>
0.0990530327

> <CNNaffinity>
5.0873475075

> <CNN_VS>
0.5039172173

> <CNNaffinity_variance>
0.2298327386

$$$$
[H]c1c([H])c([H])c2c(c1[H])c1c3c(c4c5c([H])c([H])c([H])c([H])c5n5c4c1n2[C@@]1(C([H])([H])[H])O[C@]5([H])C([H])([H])[C@]([H])(N([H])C([H])([H])[H])[C@]1([H])OC([H])([H])[H])C(=O)N([H])C3([H])[H]


 37 44  0  0  0  0  0  0  0  0999 V2000
   43.3686   13.9026  -11.1406 C   0  0  0  0  0  0  0  0  0  0  0  0
   42.4264   14.9897  -10.6617 C   0  0  0  0  0  0  0  0  0  0  0  0
   42.1001   15.9738  -11.7493 C   0  0  0  0  0  0  0  0  0  0  0  0
   43.0394   16.2457  -12.6516 O   0  0  0  0  0  0  0  0  0  0  0  0
   43.8623   15.2263  -13.1415 C   0  0  0  0  0  0  0  0  0  0  0  0
   44.9573   16.0039  -13.8489 C   0  0  0  0  0  0  0  0  0  0  0  0
   44.4554   14.5707  -11.9122 C   0  0  0  0  0  0  0  0  0  0  0  0
   43.1354   14.3424  -14.0229 N   0  0  0  0  0  0  0  0  0  0  0  0
   43.7004   13.5818  -14.9925 C   0  0  0  0  0  0  0  0  0  0  0  0
   44.9875   13.3393  -15.3670 C   0  0  0  0  0  0  0  0  0  0  0  0
   45.3247   12.4853  -16.4197 C   0  0  0  0  0  0  0  0  0  0  0  0
   44.3478   11.8440  -17.1306 C   0  0  0  0  0  0  0  0  0  0  0  0
   43.0504   12.0790  -16.7622 C   0  0  0  0  0  0  0  0  0  0  0  0
   42.7063   12.9193  -15.7257 C   0  0  0  0  0  0  0  0  0  0  0  0
   41.5073   13.2903  -15.1751 C   0  0  0  0  0  0  0  0  0  0  0  0
   40.2066   12.9510  -15.4843 C   0  0  0  0  0  0  0  0  0  0  0  0
   39.6576   12.0606  -16.5364 C   0  0  0  0  0  0  0  0  0  0  0  0
   38.2443   12.1097  -16.3648 N   0  0  0  0  0  0  0  0  0  0  0  0
   37.9049   12.9756  -15.2649 C   0  0  0  0  0  0  0  0  0  0  0  0
   36.7285   13.1665  -14.9323 O   0  0  0  0  0  0  0  0  0  0  0  0
   39.1515   13.4857  -14.7356 C   0  0  0  0  0  0  0  0  0  0  0  0
   39.4630   14.3524  -13.6887 C   0  0  0  0  0  0  0  0  0  0  0  0
   38.7061   15.0318  -12.7364 C   0  0  0  0  0  0  0  0  0  0  0  0
   37.3753   15.1148  -12.5031 C   0  0  0  0  0  0  0  0  0  0  0  0
   36.9228   15.9069  -11.4327 C   0  0  0  0  0  0  0  0  0  0  0  0
   37.8130   16.5804  -10.6426 C   0  0  0  0  0  0  0  0  0  0  0  0
   39.1689   16.5092  -10.8628 C   0  0  0  0  0  0  0  0  0  0  0  0
   39.6009   15.7263  -11.9194 C   0  0  0  0  0  0  0  0  0  0  0  0
   40.8461   15.4852  -12.3512 N   0  0  0  0  0  0  0  0  0  0  0  0
   40.7828   14.6711  -13.4073 C   0  0  0  0  0  0  0  0  0  0  0  0
   41.7871   14.1328  -14.1639 C   0  0  0  0  0  0  0  0  0  0  0  0
   37.5701   11.5873  -16.9595 H   0  0  0  0  0  0  0  0  0  0  0  0
   43.4561   13.2350   -8.7917 C   0  0  0  0  0  0  0  0  0  0  0  0
   43.7028   12.9828  -10.1517 N   0  0  0  0  0  0  0  0  0  0  0  0
   44.6114   12.4865  -10.2693 H   0  0  0  0  0  0  0  0  0  0  0  0
   44.9380   15.6128  -11.1372 O   0  0  0  0  0  0  0  0  0  0  0  0
   46.1380   15.4703  -10.5276 C   0  0  0  0  0  0  0  0  0  0  0  0
 33 34  1  0  0  0
 34  1  1  0  0  0
  1  2  1  0  0  0
  2  3  1  0  0  0
  3  4  1  0  0  0
  4  5  1  0  0  0
  5  6  1  0  0  0
  5  7  1  0  0  0
  7 36  1  0  0  0
 36 37  1  0  0  0
  5  8  1  0  0  0
  8  9  1  0  0  0
  9 10  2  0  0  0
 10 11  1  0  0  0
 11 12  2  0  0  0
 12 13  1  0  0  0
 13 14  2  0  0  0
 14 15  1  0  0  0
 15 16  2  0  0  0
 16 17  1  0  0  0
 17 18  1  0  0  0
 18 19  1  0  0  0
 19 20  2  0  0  0
 19 21  1  0  0  0
 21 22  2  0  0  0
 22 23  1  0  0  0
 23 24  2  0  0  0
 24 25  1  0  0  0
 25 26  2  0  0  0
 26 27  1  0  0  0
 27 28  2  0  0  0
 28 29  1  0  0  0
 29 30  1  0  0  0
 30 31  2  0  0  0
  7  1  1  0  0  0
 31  8  1  0  0  0
 29  3  1  0  0  0
 14  9  1  0  0  0
 31 15  1  0  0  0
 21 16  1  0  0  0
 30 22  1  0  0  0
 28 23  1  0  0  0
 34 35  1  0  0  0
 18 32  1  0  0  0
M  END
> <minimizedAffinity>
-9.99489

> <CNNscore>
0.0914915875

> <CNNaffinity>
5.6384363174

> <CNN_VS>
0.5158694983

> <CNNaffinity_variance>
0.7749496698

$$$$
[H]c1c([H])c([H])c2c(c1[H])c1c3c(c4c5c([H])c([H])c([H])c([H])c5n5c4c1n2[C@@]1(C([H])([H])[H])O[C@]5([H])C([H])([H])[C@]([H])(N([H])C([H])([H])[H])[C@]1([H])OC([H])([H])[H])C(=O)N([H])C3([H])[H]


 37 44  0  0  0  0  0  0  0  0999 V2000
   43.2723   14.2736  -10.4297 C   0  0  0  0  0  0  0  0  0  0  0  0
   41.9657   15.0421  -10.4035 C   0  0  0  0  0  0  0  0  0  0  0  0
   41.8692   16.0308  -11.5309 C   0  0  0  0  0  0  0  0  0  0  0  0
   42.9880   16.6180  -11.9476 O   0  0  0  0  0  0  0  0  0  0  0  0
   44.1773   15.8871  -12.0349 C   0  0  0  0  0  0  0  0  0  0  0  0
   45.2176   16.9784  -12.2113 C   0  0  0  0  0  0  0  0  0  0  0  0
   44.3609   15.2643  -10.6671 C   0  0  0  0  0  0  0  0  0  0  0  0
   44.1413   14.9553  -13.1381 N   0  0  0  0  0  0  0  0  0  0  0  0
   45.2352   14.4639  -13.7705 C   0  0  0  0  0  0  0  0  0  0  0  0
   46.5758   14.5817  -13.5591 C   0  0  0  0  0  0  0  0  0  0  0  0
   47.5301   13.9543  -14.3634 C   0  0  0  0  0  0  0  0  0  0  0  0
   47.1417   13.1774  -15.4201 C   0  0  0  0  0  0  0  0  0  0  0  0
   45.7965   13.0506  -15.6414 C   0  0  0  0  0  0  0  0  0  0  0  0
   44.8465   13.6649  -14.8547 C   0  0  0  0  0  0  0  0  0  0  0  0
   43.4762   13.6731  -14.8698 C   0  0  0  0  0  0  0  0  0  0  0  0
   42.5598   13.0656  -15.7028 C   0  0  0  0  0  0  0  0  0  0  0  0
   42.7511   12.1890  -16.8844 C   0  0  0  0  0  0  0  0  0  0  0  0
   41.4354   11.8764  -17.3323 N   0  0  0  0  0  0  0  0  0  0  0  0
   40.4566   12.5096  -16.4863 C   0  0  0  0  0  0  0  0  0  0  0  0
   39.2435   12.3734  -16.6881 O   0  0  0  0  0  0  0  0  0  0  0  0
   41.1897   13.2448  -15.4782 C   0  0  0  0  0  0  0  0  0  0  0  0
   40.7999   14.0417  -14.4024 C   0  0  0  0  0  0  0  0  0  0  0  0
   39.5675   14.4104  -13.8671 C   0  0  0  0  0  0  0  0  0  0  0  0
   38.2893   14.1437  -14.2242 C   0  0  0  0  0  0  0  0  0  0  0  0
   37.2436   14.6816  -13.4527 C   0  0  0  0  0  0  0  0  0  0  0  0
   37.5153   15.4599  -12.3615 C   0  0  0  0  0  0  0  0  0  0  0  0
   38.8068   15.7427  -11.9820 C   0  0  0  0  0  0  0  0  0  0  0  0
   39.8265   15.2072  -12.7497 C   0  0  0  0  0  0  0  0  0  0  0  0
   41.1538   15.3224  -12.6080 N   0  0  0  0  0  0  0  0  0  0  0  0
   41.7498   14.6372  -13.5864 C   0  0  0  0  0  0  0  0  0  0  0  0
   43.0798   14.4430  -13.8398 C   0  0  0  0  0  0  0  0  0  0  0  0
   41.2314   11.2747  -18.1553 H   0  0  0  0  0  0  0  0  0  0  0  0
   42.5956   13.4306   -8.2383 C   0  0  0  0  0  0  0  0  0  0  0  0
   43.3994   13.3595   -9.3885 N   0  0  0  0  0  0  0  0  0  0  0  0
   44.3703   13.0784   -9.1353 H   0  0  0  0  0  0  0  0  0  0  0  0
   44.1859   16.3013   -9.7651 O   0  0  0  0  0  0  0  0  0  0  0  0
   45.0182   16.3873   -8.7013 C   0  0  0  0  0  0  0  0  0  0  0  0
 33 34  1  0  0  0
 34  1  1  0  0  0
  1  2  1  0  0  0
  2  3  1  0  0  0
  3  4  1  0  0  0
  4  5  1  0  0  0
  5  6  1  0  0  0
  5  7  1  0  0  0
  7 36  1  0  0  0
 36 37  1  0  0  0
  5  8  1  0  0  0
  8  9  1  0  0  0
  9 10  2  0  0  0
 10 11  1  0  0  0
 11 12  2  0  0  0
 12 13  1  0  0  0
 13 14  2  0  0  0
 14 15  1  0  0  0
 15 16  2  0  0  0
 16 17  1  0  0  0
 17 18  1  0  0  0
 18 19  1  0  0  0
 19 20  2  0  0  0
 19 21  1  0  0  0
 21 22  2  0  0  0
 22 23  1  0  0  0
 23 24  2  0  0  0
 24 25  1  0  0  0
 25 26  2  0  0  0
 26 27  1  0  0  0
 27 28  2  0  0  0
 28 29  1  0  0  0
 29 30  1  0  0  0
 30 31  2  0  0  0
  7  1  1  0  0  0
 31  8  1  0  0  0
 29  3  1  0  0  0
 14  9  1  0  0  0
 31 15  1  0  0  0
 21 16  1  0  0  0
 30 22  1  0  0  0
 28 23  1  0  0  0
 34 35  1  0  0  0
 18 32  1  0  0  0
M  END
> <minimizedAffinity>
-8.51999

> <CNNscore>
0.0907895267

> <CNNaffinity>
5.7374181747

> <CNN_VS>
0.5208975077

> <CNNaffinity_variance>
0.6914194822

$$$$
[H]c1c([H])c([H])c2c(c1[H])c1c3c(c4c5c([H])c([H])c([H])c([H])c5n5c4c1n2[C@@]1(C([H])([H])[H])O[C@]5([H])C([H])([H])[C@]([H])(N([H])C([H])([H])[H])[C@]1([H])OC([H])([H])[H])C(=O)N([H])C3([H])[H]


 37 44  0  0  0  0  0  0  0  0999 V2000
   37.6193   17.5875   -9.4922 C   0  0  0  0  0  0  0  0  0  0  0  0
   36.6775   16.9386  -10.4874 C   0  0  0  0  0  0  0  0  0  0  0  0
   36.3693   15.5129  -10.1267 C   0  0  0  0  0  0  0  0  0  0  0  0
   37.3206   14.7964   -9.5334 O   0  0  0  0  0  0  0  0  0  0  0  0
   38.1437   15.3816   -8.5658 C   0  0  0  0  0  0  0  0  0  0  0  0
   39.2512   14.3542   -8.4163 C   0  0  0  0  0  0  0  0  0  0  0  0
   38.7187   16.6156   -9.2286 C   0  0  0  0  0  0  0  0  0  0  0  0
   37.4225   15.6197   -7.3371 N   0  0  0  0  0  0  0  0  0  0  0  0
   37.9949   15.7207   -6.1123 C   0  0  0  0  0  0  0  0  0  0  0  0
   39.2850   15.7287   -5.6750 C   0  0  0  0  0  0  0  0  0  0  0  0
   39.6300   15.8587   -4.3276 C   0  0  0  0  0  0  0  0  0  0  0  0
   38.6581   15.9869   -3.3737 C   0  0  0  0  0  0  0  0  0  0  0  0
   37.3577   15.9816   -3.8017 C   0  0  0  0  0  0  0  0  0  0  0  0
   37.0059   15.8539   -5.1279 C   0  0  0  0  0  0  0  0  0  0  0  0
   35.8025   15.8377   -5.7836 C   0  0  0  0  0  0  0  0  0  0  0  0
   34.5037   15.9341   -5.3292 C   0  0  0  0  0  0  0  0  0  0  0  0
   33.9625   16.0849   -3.9560 C   0  0  0  0  0  0  0  0  0  0  0  0
   32.5475   16.1237   -4.1164 N   0  0  0  0  0  0  0  0  0  0  0  0
   32.1998   16.0100   -5.5095 C   0  0  0  0  0  0  0  0  0  0  0  0
   31.0206   16.0228   -5.8841 O   0  0  0  0  0  0  0  0  0  0  0  0
   33.4428   15.8931   -6.2415 C   0  0  0  0  0  0  0  0  0  0  0  0
   33.7465   15.7565   -7.5955 C   0  0  0  0  0  0  0  0  0  0  0  0
   32.9822   15.7115   -8.7595 C   0  0  0  0  0  0  0  0  0  0  0  0
   31.6491   15.7571   -8.9905 C   0  0  0  0  0  0  0  0  0  0  0  0
   31.1883   15.6873  -10.3174 C   0  0  0  0  0  0  0  0  0  0  0  0
   32.0727   15.5753  -11.3545 C   0  0  0  0  0  0  0  0  0  0  0  0
   33.4307   15.5272  -11.1411 C   0  0  0  0  0  0  0  0  0  0  0  0
   33.8710   15.5968   -9.8307 C   0  0  0  0  0  0  0  0  0  0  0  0
   35.1198   15.5715   -9.3462 N   0  0  0  0  0  0  0  0  0  0  0  0
   35.0647   15.6620   -8.0155 C   0  0  0  0  0  0  0  0  0  0  0  0
   36.0749   15.7010   -7.0942 C   0  0  0  0  0  0  0  0  0  0  0  0
   31.8776   16.2209   -3.3272 H   0  0  0  0  0  0  0  0  0  0  0  0
   37.7755   19.9475   -8.8785 C   0  0  0  0  0  0  0  0  0  0  0  0
   37.9370   18.9051   -9.8066 N   0  0  0  0  0  0  0  0  0  0  0  0
   37.6784   19.2280  -10.7629 H   0  0  0  0  0  0  0  0  0  0  0  0
   39.1978   16.1841  -10.4549 O   0  0  0  0  0  0  0  0  0  0  0  0
   40.4315   16.5781  -10.8481 C   0  0  0  0  0  0  0  0  0  0  0  0
 33 34  1  0  0  0
 34  1  1  0  0  0
  1  2  1  0  0  0
  2  3  1  0  0  0
  3  4  1  0  0  0
  4  5  1  0  0  0
  5  6  1  0  0  0
  5  7  1  0  0  0
  7 36  1  0  0  0
 36 37  1  0  0  0
  5  8  1  0  0  0
  8  9  1  0  0  0
  9 10  2  0  0  0
 10 11  1  0  0  0
 11 12  2  0  0  0
 12 13  1  0  0  0
 13 14  2  0  0  0
 14 15  1  0  0  0
 15 16  2  0  0  0
 16 17  1  0  0  0
 17 18  1  0  0  0
 18 19  1  0  0  0
 19 20  2  0  0  0
 19 21  1  0  0  0
 21 22  2  0  0  0
 22 23  1  0  0  0
 23 24  2  0  0  0
 24 25  1  0  0  0
 25 26  2  0  0  0
 26 27  1  0  0  0
 27 28  2  0  0  0
 28 29  1  0  0  0
 29 30  1  0  0  0
 30 31  2  0  0  0
  7  1  1  0  0  0
 31  8  1  0  0  0
 29  3  1  0  0  0
 14  9  1  0  0  0
 31 15  1  0  0  0
 21 16  1  0  0  0
 30 22  1  0  0  0
 28 23  1  0  0  0
 34 35  1  0  0  0
 18 32  1  0  0  0
M  END
> <minimizedAffinity>
-7.69336

> <CNNscore>
0.0876185372

> <CNNaffinity>
5.2190451622

> <CNN_VS>
0.4572851062

> <CNNaffinity_variance>
0.6528892517

$$$$
[H]c1c([H])c([H])c2c(c1[H])c1c3c(c4c5c([H])c([H])c([H])c([H])c5n5c4c1n2[C@@]1(C([H])([H])[H])O[C@]5([H])C([H])([H])[C@]([H])(N([H])C([H])([H])[H])[C@]1([H])OC([H])([H])[H])C(=O)N([H])C3([H])[H]


 37 44  0  0  0  0  0  0  0  0999 V2000
   47.3589   13.6183   -9.0790 C   0  0  0  0  0  0  0  0  0  0  0  0
   47.3560   12.9396  -10.4347 C   0  0  0  0  0  0  0  0  0  0  0  0
   46.1739   12.0283  -10.6077 C   0  0  0  0  0  0  0  0  0  0  0  0
   45.7099   11.3925   -9.5350 O   0  0  0  0  0  0  0  0  0  0  0  0
   45.6509   12.0452   -8.2994 C   0  0  0  0  0  0  0  0  0  0  0  0
   45.3982   10.8985   -7.3374 C   0  0  0  0  0  0  0  0  0  0  0  0
   47.0505   12.5721   -8.0625 C   0  0  0  0  0  0  0  0  0  0  0  0
   44.6047   13.0411   -8.2808 N   0  0  0  0  0  0  0  0  0  0  0  0
   43.9888   13.4941   -7.1613 C   0  0  0  0  0  0  0  0  0  0  0  0
   44.1765   13.2736   -5.8302 C   0  0  0  0  0  0  0  0  0  0  0  0
   43.3987   13.8817   -4.8420 C   0  0  0  0  0  0  0  0  0  0  0  0
   42.3941   14.7443   -5.1852 C   0  0  0  0  0  0  0  0  0  0  0  0
   42.1971   14.9746   -6.5204 C   0  0  0  0  0  0  0  0  0  0  0  0
   42.9582   14.3803   -7.5035 C   0  0  0  0  0  0  0  0  0  0  0  0
   42.9594   14.4657   -8.8713 C   0  0  0  0  0  0  0  0  0  0  0  0
   42.1748   15.1821   -9.7510 C   0  0  0  0  0  0  0  0  0  0  0  0
   41.0442   16.1121   -9.5101 C   0  0  0  0  0  0  0  0  0  0  0  0
   40.6316   16.5390  -10.8051 N   0  0  0  0  0  0  0  0  0  0  0  0
   41.4510   15.9243  -11.8177 C   0  0  0  0  0  0  0  0  0  0  0  0
   41.2724   16.1539  -13.0204 O   0  0  0  0  0  0  0  0  0  0  0  0
   42.4052   15.0828  -11.1282 C   0  0  0  0  0  0  0  0  0  0  0  0
   43.4372   14.2517  -11.5625 C   0  0  0  0  0  0  0  0  0  0  0  0
   43.9651   13.9361  -12.8128 C   0  0  0  0  0  0  0  0  0  0  0  0
   43.6399   14.3092  -14.0727 C   0  0  0  0  0  0  0  0  0  0  0  0
   44.3913   13.7985  -15.1462 C   0  0  0  0  0  0  0  0  0  0  0  0
   45.4316   12.9403  -14.9192 C   0  0  0  0  0  0  0  0  0  0  0  0
   45.7781   12.5489  -13.6469 C   0  0  0  0  0  0  0  0  0  0  0  0
   45.0306   13.0588  -12.5994 C   0  0  0  0  0  0  0  0  0  0  0  0
   45.1491   12.8460  -11.2820 N   0  0  0  0  0  0  0  0  0  0  0  0
   44.2052   13.5461  -10.6487 C   0  0  0  0  0  0  0  0  0  0  0  0
   43.9473   13.6647   -9.3108 C   0  0  0  0  0  0  0  0  0  0  0  0
   39.8478   17.2008  -10.9744 H   0  0  0  0  0  0  0  0  0  0  0  0
   48.7162   15.0455   -7.6329 C   0  0  0  0  0  0  0  0  0  0  0  0
   48.4502   14.4583   -8.8812 N   0  0  0  0  0  0  0  0  0  0  0  0
   48.6636   15.1285   -9.6499 H   0  0  0  0  0  0  0  0  0  0  0  0
   47.8923   11.4977   -8.3003 O   0  0  0  0  0  0  0  0  0  0  0  0
   48.9105   11.2643   -7.4396 C   0  0  0  0  0  0  0  0  0  0  0  0
 33 34  1  0  0  0
 34  1  1  0  0  0
  1  2  1  0  0  0
  2  3  1  0  0  0
  3  4  1  0  0  0
  4  5  1  0  0  0
  5  6  1  0  0  0
  5  7  1  0  0  0
  7 36  1  0  0  0
 36 37  1  0  0  0
  5  8  1  0  0  0
  8  9  1  0  0  0
  9 10  2  0  0  0
 10 11  1  0  0  0
 11 12  2  0  0  0
 12 13  1  0  0  0
 13 14  2  0  0  0
 14 15  1  0  0  0
 15 16  2  0  0  0
 16 17  1  0  0  0
 17 18  1  0  0  0
 18 19  1  0  0  0
 19 20  2  0  0  0
 19 21  1  0  0  0
 21 22  2  0  0  0
 22 23  1  0  0  0
 23 24  2  0  0  0
 24 25  1  0  0  0
 25 26  2  0  0  0
 26 27  1  0  0  0
 27 28  2  0  0  0
 28 29  1  0  0  0
 29 30  1  0  0  0
 30 31  2  0  0  0
  7  1  1  0  0  0
 31  8  1  0  0  0
 29  3  1  0  0  0
 14  9  1  0  0  0
 31 15  1  0  0  0
 21 16  1  0  0  0
 30 22  1  0  0  0
 28 23  1  0  0  0
 34 35  1  0  0  0
 18 32  1  0  0  0
M  END
> <minimizedAffinity>
-5.93777

> <CNNscore>
0.0866238177

> <CNNaffinity>
5.0360312462

> <CNN_VS>
0.4362402558

> <CNNaffinity_variance>
0.3260239065

$$$$
[H]c1c([H])c([H])c2c(c1[H])c1c3c(c4c5c([H])c([H])c([H])c([H])c5n5c4c1n2[C@]1([H])O[C@]5(C([H])([H])[H])[C@]([H])(OC([H])([H])[H])[C@@]([H])(N([H])C([H])([H])[H])C1([H])[H])C([H])([H])N([H])C3=O


 37 44  0  0  0  0  0  0  0  0999 V2000
   34.1786   14.8291  -11.8353 C   0  0  0  0  0  0  0  0  0  0  0  0
   34.0505   13.6112  -12.8082 C   0  0  0  0  0  0  0  0  0  0  0  0
   35.3405   13.4951  -13.2636 C   0  0  0  0  0  0  0  0  0  0  0  0
   36.0791   13.2508  -12.1096 O   0  0  0  0  0  0  0  0  0  0  0  0
   36.6929   14.4979  -11.7708 C   0  0  0  0  0  0  0  0  0  0  0  0
   37.1195   14.2128  -10.3098 C   0  0  0  0  0  0  0  0  0  0  0  0
   35.6041   15.4498  -11.8661 C   0  0  0  0  0  0  0  0  0  0  0  0
   37.8659   14.5404  -12.6187 N   0  0  0  0  0  0  0  0  0  0  0  0
   39.0330   15.1653  -12.3203 C   0  0  0  0  0  0  0  0  0  0  0  0
   39.3955   15.9921  -11.2959 C   0  0  0  0  0  0  0  0  0  0  0  0
   40.6806   16.5144  -11.2267 C   0  0  0  0  0  0  0  0  0  0  0  0
   41.6450   16.2175  -12.1949 C   0  0  0  0  0  0  0  0  0  0  0  0
   41.2882   15.3840  -13.2340 C   0  0  0  0  0  0  0  0  0  0  0  0
   40.0041   14.8845  -13.2697 C   0  0  0  0  0  0  0  0  0  0  0  0
   39.4351   14.0727  -14.1825 C   0  0  0  0  0  0  0  0  0  0  0  0
   39.8447   13.4008  -15.3443 C   0  0  0  0  0  0  0  0  0  0  0  0
   41.1728   13.4370  -15.9783 C   0  0  0  0  0  0  0  0  0  0  0  0
   41.0557   12.5911  -17.1385 N   0  0  0  0  0  0  0  0  0  0  0  0
   39.7219   12.0451  -17.2084 C   0  0  0  0  0  0  0  0  0  0  0  0
   39.4238   11.2798  -18.1386 O   0  0  0  0  0  0  0  0  0  0  0  0
   39.0057   12.5769  -16.0730 C   0  0  0  0  0  0  0  0  0  0  0  0
   37.6905   12.3802  -15.6755 C   0  0  0  0  0  0  0  0  0  0  0  0
   36.5951   11.7097  -16.1435 C   0  0  0  0  0  0  0  0  0  0  0  0
   36.3901   10.8944  -17.2075 C   0  0  0  0  0  0  0  0  0  0  0  0
   35.1010   10.3615  -17.3902 C   0  0  0  0  0  0  0  0  0  0  0  0
   34.0856   10.6636  -16.5103 C   0  0  0  0  0  0  0  0  0  0  0  0
   34.3080   11.4996  -15.4243 C   0  0  0  0  0  0  0  0  0  0  0  0
   35.5703   12.0061  -15.2676 C   0  0  0  0  0  0  0  0  0  0  0  0
   35.9943   12.8146  -14.3028 N   0  0  0  0  0  0  0  0  0  0  0  0
   37.3127   13.0470  -14.5394 C   0  0  0  0  0  0  0  0  0  0  0  0
   38.1666   13.8778  -13.7933 C   0  0  0  0  0  0  0  0  0  0  0  0
   41.8545   12.4361  -17.7938 H   0  0  0  0  0  0  0  0  0  0  0  0
   31.9918   15.8117  -11.7609 C   0  0  0  0  0  0  0  0  0  0  0  0
   33.2806   15.8336  -12.3735 N   0  0  0  0  0  0  0  0  0  0  0  0
   33.1984   15.6857  -13.4244 H   0  0  0  0  0  0  0  0  0  0  0  0
   35.5861   16.1728  -10.6368 O   0  0  0  0  0  0  0  0  0  0  0  0
   36.3770   17.2778  -10.6433 C   0  0  0  0  0  0  0  0  0  0  0  0
 33 34  1  0  0  0
 34  1  1  0  0  0
  1  2  1  0  0  0
  2  3  1  0  0  0
  3  4  1  0  0  0
  4  5  1  0  0  0
  5  6  1  0  0  0
  5  7  1  0  0  0
  7 36  1  0  0  0
 36 37  1  0  0  0
  5  8  1  0  0  0
  8  9  1  0  0  0
  9 10  2  0  0  0
 10 11  1  0  0  0
 11 12  2  0  0  0
 12 13  1  0  0  0
 13 14  2  0  0  0
 14 15  1  0  0  0
 15 16  2  0  0  0
 16 17  1  0  0  0
 17 18  1  0  0  0
 18 19  1  0  0  0
 19 20  2  0  0  0
 19 21  1  0  0  0
 21 22  2  0  0  0
 22 23  1  0  0  0
 23 24  2  0  0  0
 24 25  1  0  0  0
 25 26  2  0  0  0
 26 27  1  0  0  0
 27 28  2  0  0  0
 28 29  1  0  0  0
 29 30  1  0  0  0
 30 31  2  0  0  0
  7  1  1  0  0  0
 31  8  1  0  0  0
 29  3  1  0  0  0
 14  9  1  0  0  0
 31 15  1  0  0  0
 21 16  1  0  0  0
 30 22  1  0  0  0
 28 23  1  0  0  0
 34 35  1  0  0  0
 18 32  1  0  0  0
M  END
> <minimizedAffinity>
-11.11739

> <CNNscore>
0.6463197470

> <CNNaffinity>
7.2720007896

> <CNN_VS>
4.7000374794

> <CNNaffinity_variance>
0.0904759318

$$$$
[H]c1c([H])c([H])c2c(c1[H])c1c3c(c4c5c([H])c([H])c([H])c([H])c5n5c4c1n2[C@]1([H])O[C@]5(C([H])([H])[H])[C@]([H])(OC([H])([H])[H])[C@@]([H])(N([H])C([H])([H])[H])C1([H])[H])C([H])([H])N([H])C3=O


 37 44  0  0  0  0  0  0  0  0999 V2000
   34.2787   13.8829  -13.5894 C   0  0  0  0  0  0  0  0  0  0  0  0
   34.8151   12.7662  -14.5440 C   0  0  0  0  0  0  0  0  0  0  0  0
   36.1716   12.9444  -14.4294 C   0  0  0  0  0  0  0  0  0  0  0  0
   36.4211   12.7318  -13.0768 O   0  0  0  0  0  0  0  0  0  0  0  0
   36.5646   14.0329  -12.4996 C   0  0  0  0  0  0  0  0  0  0  0  0
   36.4222   13.6903  -10.9963 C   0  0  0  0  0  0  0  0  0  0  0  0
   35.4278   14.7642  -13.0227 C   0  0  0  0  0  0  0  0  0  0  0  0
   37.9396   14.3829  -12.7888 N   0  0  0  0  0  0  0  0  0  0  0  0
   38.7261   15.1861  -12.0285 C   0  0  0  0  0  0  0  0  0  0  0  0
   38.4619   15.9605  -10.9353 C   0  0  0  0  0  0  0  0  0  0  0  0
   39.4671   16.7090  -10.3367 C   0  0  0  0  0  0  0  0  0  0  0  0
   40.7773   16.6996  -10.8257 C   0  0  0  0  0  0  0  0  0  0  0  0
   41.0538   15.9212  -11.9299 C   0  0  0  0  0  0  0  0  0  0  0  0
   40.0312   15.1920  -12.4974 C   0  0  0  0  0  0  0  0  0  0  0  0
   40.0634   14.3816  -13.5737 C   0  0  0  0  0  0  0  0  0  0  0  0
   41.0372   13.9195  -14.4721 C   0  0  0  0  0  0  0  0  0  0  0  0
   42.4662   14.2716  -14.5026 C   0  0  0  0  0  0  0  0  0  0  0  0
   43.0074   13.5389  -15.6186 N   0  0  0  0  0  0  0  0  0  0  0  0
   41.9642   12.7581  -16.2383 C   0  0  0  0  0  0  0  0  0  0  0  0
   42.2348   12.0466  -17.2183 O   0  0  0  0  0  0  0  0  0  0  0  0
   40.7579   13.0275  -15.4919 C   0  0  0  0  0  0  0  0  0  0  0  0
   39.4693   12.5448  -15.6736 C   0  0  0  0  0  0  0  0  0  0  0  0
   38.8244   11.7276  -16.5595 C   0  0  0  0  0  0  0  0  0  0  0  0
   39.2422   10.9984  -17.6238 C   0  0  0  0  0  0  0  0  0  0  0  0
   38.2810   10.2502  -18.3276 C   0  0  0  0  0  0  0  0  0  0  0  0
   36.9596   10.2637  -17.9402 C   0  0  0  0  0  0  0  0  0  0  0  0
   36.5441   11.0141  -16.8484 C   0  0  0  0  0  0  0  0  0  0  0  0
   37.4974   11.7341  -16.1796 C   0  0  0  0  0  0  0  0  0  0  0  0
   37.3159   12.5083  -15.1157 N   0  0  0  0  0  0  0  0  0  0  0  0
   38.5352   13.0105  -14.7855 C   0  0  0  0  0  0  0  0  0  0  0  0
   38.8195   13.9104  -13.7437 C   0  0  0  0  0  0  0  0  0  0  0  0
   44.0144   13.6054  -15.8889 H   0  0  0  0  0  0  0  0  0  0  0  0
   33.1030   14.1252  -15.6660 C   0  0  0  0  0  0  0  0  0  0  0  0
   33.4776   14.7461  -14.4369 N   0  0  0  0  0  0  0  0  0  0  0  0
   34.0236   15.6412  -14.6206 H   0  0  0  0  0  0  0  0  0  0  0  0
   34.7651   15.3442  -11.9009 O   0  0  0  0  0  0  0  0  0  0  0  0
   33.4114   15.2370  -11.9529 C   0  0  0  0  0  0  0  0  0  0  0  0
 33 34  1  0  0  0
 34  1  1  0  0  0
  1  2  1  0  0  0
  2  3  1  0  0  0
  3  4  1  0  0  0
  4  5  1  0  0  0
  5  6  1  0  0  0
  5  7  1  0  0  0
  7 36  1  0  0  0
 36 37  1  0  0  0
  5  8  1  0  0  0
  8  9  1  0  0  0
  9 10  2  0  0  0
 10 11  1  0  0  0
 11 12  2  0  0  0
 12 13  1  0  0  0
 13 14  2  0  0  0
 14 15  1  0  0  0
 15 16  2  0  0  0
 16 17  1  0  0  0
 17 18  1  0  0  0
 18 19  1  0  0  0
 19 20  2  0  0  0
 19 21  1  0  0  0
 21 22  2  0  0  0
 22 23  1  0  0  0
 23 24  2  0  0  0
 24 25  1  0  0  0
 25 26  2  0  0  0
 26 27  1  0  0  0
 27 28  2  0  0  0
 28 29  1  0  0  0
 29 30  1  0  0  0
 30 31  2  0  0  0
  7  1  1  0  0  0
 31  8  1  0  0  0
 29  3  1  0  0  0
 14  9  1  0  0  0
 31 15  1  0  0  0
 21 16  1  0  0  0
 30 22  1  0  0  0
 28 23  1  0  0  0
 34 35  1  0  0  0
 18 32  1  0  0  0
M  END
> <minimizedAffinity>
-9.10371

> <CNNscore>
0.4116431177

> <CNNaffinity>
7.0070495605

> <CNN_VS>
2.8844037056

> <CNNaffinity_variance>
0.1671586931

$$$$
[H]c1c([H])c([H])c2c(c1[H])c1c3c(c4c5c([H])c([H])c([H])c([H])c5n5c4c1n2[C@]1([H])O[C@]5(C([H])([H])[H])[C@]([H])(OC([H])([H])[H])[C@@]([H])(N([H])C([H])([H])[H])C1([H])[H])C([H])([H])N([H])C3=O


 37 44  0  0  0  0  0  0  0  0999 V2000
   39.0757   15.7154  -10.2063 C   0  0  0  0  0  0  0  0  0  0  0  0
   40.2731   15.6281  -11.2087 C   0  0  0  0  0  0  0  0  0  0  0  0
   39.6832   14.9989  -12.2769 C   0  0  0  0  0  0  0  0  0  0  0  0
   38.6638   15.8687  -12.6527 O   0  0  0  0  0  0  0  0  0  0  0  0
   37.4600   15.3090  -12.1194 C   0  0  0  0  0  0  0  0  0  0  0  0
   36.5096   16.5260  -12.2346 C   0  0  0  0  0  0  0  0  0  0  0  0
   37.8100   14.9929  -10.7489 C   0  0  0  0  0  0  0  0  0  0  0  0
   37.0878   14.3090  -13.0983 N   0  0  0  0  0  0  0  0  0  0  0  0
   35.8205   13.9136  -13.3797 C   0  0  0  0  0  0  0  0  0  0  0  0
   34.6199   14.1947  -12.7933 C   0  0  0  0  0  0  0  0  0  0  0  0
   33.4441   13.6413  -13.2835 C   0  0  0  0  0  0  0  0  0  0  0  0
   33.4435   12.7817  -14.3866 C   0  0  0  0  0  0  0  0  0  0  0  0
   34.6513   12.4910  -14.9853 C   0  0  0  0  0  0  0  0  0  0  0  0
   35.7973   13.0586  -14.4713 C   0  0  0  0  0  0  0  0  0  0  0  0
   37.0732   12.9113  -14.8795 C   0  0  0  0  0  0  0  0  0  0  0  0
   37.7402   12.2403  -15.9158 C   0  0  0  0  0  0  0  0  0  0  0  0
   37.1479   11.3759  -16.9497 C   0  0  0  0  0  0  0  0  0  0  0  0
   38.2614   10.9341  -17.7497 N   0  0  0  0  0  0  0  0  0  0  0  0
   39.4826   11.5122  -17.2431 C   0  0  0  0  0  0  0  0  0  0  0  0
   40.5583   11.2569  -17.8066 O   0  0  0  0  0  0  0  0  0  0  0  0
   39.1088   12.3155  -16.1030 C   0  0  0  0  0  0  0  0  0  0  0  0
   39.8970   13.0741  -15.2488 C   0  0  0  0  0  0  0  0  0  0  0  0
   41.2284   13.3401  -15.0904 C   0  0  0  0  0  0  0  0  0  0  0  0
   42.3361   12.9811  -15.7854 C   0  0  0  0  0  0  0  0  0  0  0  0
   43.5811   13.4504  -15.3285 C   0  0  0  0  0  0  0  0  0  0  0  0
   43.6624   14.2492  -14.2098 C   0  0  0  0  0  0  0  0  0  0  0  0
   42.5210   14.6103  -13.5066 C   0  0  0  0  0  0  0  0  0  0  0  0
   41.3211   14.1413  -13.9703 C   0  0  0  0  0  0  0  0  0  0  0  0
   40.1190   14.3689  -13.4532 N   0  0  0  0  0  0  0  0  0  0  0  0
   39.2243   13.7192  -14.2440 C   0  0  0  0  0  0  0  0  0  0  0  0
   37.8327   13.6504  -14.0578 C   0  0  0  0  0  0  0  0  0  0  0  0
   38.1380   10.2904  -18.5633 H   0  0  0  0  0  0  0  0  0  0  0  0
   39.7565   15.7995   -7.9079 C   0  0  0  0  0  0  0  0  0  0  0  0
   39.5086   14.9676   -9.0407 N   0  0  0  0  0  0  0  0  0  0  0  0
   40.3813   14.4153   -9.2980 H   0  0  0  0  0  0  0  0  0  0  0  0
   36.8112   15.5909   -9.9249 O   0  0  0  0  0  0  0  0  0  0  0  0
   36.0585   14.6898   -9.2407 C   0  0  0  0  0  0  0  0  0  0  0  0
 33 34  1  0  0  0
 34  1  1  0  0  0
  1  2  1  0  0  0
  2  3  1  0  0  0
  3  4  1  0  0  0
  4  5  1  0  0  0
  5  6  1  0  0  0
  5  7  1  0  0  0
  7 36  1  0  0  0
 36 37  1  0  0  0
  5  8  1  0  0  0
  8  9  1  0  0  0
  9 10  2  0  0  0
 10 11  1  0  0  0
 11 12  2  0  0  0
 12 13  1  0  0  0
 13 14  2  0  0  0
 14 15  1  0  0  0
 15 16  2  0  0  0
 16 17  1  0  0  0
 17 18  1  0  0  0
 18 19  1  0  0  0
 19 20  2  0  0  0
 19 21  1  0  0  0
 21 22  2  0  0  0
 22 23  1  0  0  0
 23 24  2  0  0  0
 24 25  1  0  0  0
 25 26  2  0  0  0
 26 27  1  0  0  0
 27 28  2  0  0  0
 28 29  1  0  0  0
 29 30  1  0  0  0
 30 31  2  0  0  0
  7  1  1  0  0  0
 31  8  1  0  0  0
 29  3  1  0  0  0
 14  9  1  0  0  0
 31 15  1  0  0  0
 21 16  1  0  0  0
 30 22  1  0  0  0
 28 23  1  0  0  0
 34 35  1  0  0  0
 18 32  1  0  0  0
M  END
> <minimizedAffinity>
-10.90854

> <CNNscore>
0.3601589203

> <CNNaffinity>
6.8576841354

> <CNN_VS>
2.4698560238

> <CNNaffinity_variance>
0.1179279909

$$$$
[H]c1c([H])c([H])c2c(c1[H])c1c3c(c4c5c([H])c([H])c([H])c([H])c5n5c4c1n2[C@]1([H])O[C@]5(C([H])([H])[H])[C@]([H])(OC([H])([H])[H])[C@@]([H])(N([H])C([H])([H])[H])C1([H])[H])C([H])([H])N([H])C3=O


 37 44  0  0  0  0  0  0  0  0999 V2000
   40.6049   12.2434  -17.3631 C   0  0  0  0  0  0  0  0  0  0  0  0
   40.9955   12.9686  -16.0336 C   0  0  0  0  0  0  0  0  0  0  0  0
   39.7769   13.0544  -15.4071 C   0  0  0  0  0  0  0  0  0  0  0  0
   39.3852   11.7271  -15.2599 O   0  0  0  0  0  0  0  0  0  0  0  0
   38.4304   11.4871  -16.2979 C   0  0  0  0  0  0  0  0  0  0  0  0
   38.3919    9.9392  -16.2914 C   0  0  0  0  0  0  0  0  0  0  0  0
   39.0687   12.0316  -17.4797 C   0  0  0  0  0  0  0  0  0  0  0  0
   37.1946   12.0049  -15.7488 N   0  0  0  0  0  0  0  0  0  0  0  0
   35.9501   11.5465  -16.0364 C   0  0  0  0  0  0  0  0  0  0  0  0
   35.4946   10.6394  -16.9497 C   0  0  0  0  0  0  0  0  0  0  0  0
   34.1397   10.3494  -17.0465 C   0  0  0  0  0  0  0  0  0  0  0  0
   33.1972   10.9696  -16.2203 C   0  0  0  0  0  0  0  0  0  0  0  0
   33.6474   11.8879  -15.2952 C   0  0  0  0  0  0  0  0  0  0  0  0
   34.9988   12.1502  -15.2279 C   0  0  0  0  0  0  0  0  0  0  0  0
   35.6574   13.0061  -14.4218 C   0  0  0  0  0  0  0  0  0  0  0  0
   35.3255   13.8787  -13.3741 C   0  0  0  0  0  0  0  0  0  0  0  0
   33.9865   14.1532  -12.8277 C   0  0  0  0  0  0  0  0  0  0  0  0
   34.2007   15.1238  -11.7850 N   0  0  0  0  0  0  0  0  0  0  0  0
   35.6087   15.4222  -11.6815 C   0  0  0  0  0  0  0  0  0  0  0  0
   35.9991   16.2353  -10.8293 O   0  0  0  0  0  0  0  0  0  0  0  0
   36.2675   14.6254  -12.6894 C   0  0  0  0  0  0  0  0  0  0  0  0
   37.6122   14.5416  -13.0227 C   0  0  0  0  0  0  0  0  0  0  0  0
   38.7785   15.1345  -12.6264 C   0  0  0  0  0  0  0  0  0  0  0  0
   39.0787   16.0417  -11.6643 C   0  0  0  0  0  0  0  0  0  0  0  0
   40.4216   16.4384  -11.5292 C   0  0  0  0  0  0  0  0  0  0  0  0
   41.3939   15.9159  -12.3525 C   0  0  0  0  0  0  0  0  0  0  0  0
   41.0741   14.9873  -13.3340 C   0  0  0  0  0  0  0  0  0  0  0  0
   39.7608   14.6169  -13.4464 C   0  0  0  0  0  0  0  0  0  0  0  0
   39.2453   13.7476  -14.3082 N   0  0  0  0  0  0  0  0  0  0  0  0
   37.9123   13.6845  -14.0491 C   0  0  0  0  0  0  0  0  0  0  0  0
   36.9572   12.9188  -14.7401 C   0  0  0  0  0  0  0  0  0  0  0  0
   33.4122   15.5156  -11.2225 H   0  0  0  0  0  0  0  0  0  0  0  0
   40.7065   14.5306  -18.0783 C   0  0  0  0  0  0  0  0  0  0  0  0
   40.9737   13.1702  -18.4167 N   0  0  0  0  0  0  0  0  0  0  0  0
   40.4552   12.8964  -19.3051 H   0  0  0  0  0  0  0  0  0  0  0  0
   39.0346   11.0062  -18.4704 O   0  0  0  0  0  0  0  0  0  0  0  0
   38.1047   11.2155  -19.4390 C   0  0  0  0  0  0  0  0  0  0  0  0
 33 34  1  0  0  0
 34  1  1  0  0  0
  1  2  1  0  0  0
  2  3  1  0  0  0
  3  4  1  0  0  0
  4  5  1  0  0  0
  5  6  1  0  0  0
  5  7  1  0  0  0
  7 36  1  0  0  0
 36 37  1  0  0  0
  5  8  1  0  0  0
  8  9  1  0  0  0
  9 10  2  0  0  0
 10 11  1  0  0  0
 11 12  2  0  0  0
 12 13  1  0  0  0
 13 14  2  0  0  0
 14 15  1  0  0  0
 15 16  2  0  0  0
 16 17  1  0  0  0
 17 18  1  0  0  0
 18 19  1  0  0  0
 19 20  2  0  0  0
 19 21  1  0  0  0
 21 22  2  0  0  0
 22 23  1  0  0  0
 23 24  2  0  0  0
 24 25  1  0  0  0
 25 26  2  0  0  0
 26 27  1  0  0  0
 27 28  2  0  0  0
 28 29  1  0  0  0
 29 30  1  0  0  0
 30 31  2  0  0  0
  7  1  1  0  0  0
 31  8  1  0  0  0
 29  3  1  0  0  0
 14  9  1  0  0  0
 31 15  1  0  0  0
 21 16  1  0  0  0
 30 22  1  0  0  0
 28 23  1  0  0  0
 34 35  1  0  0  0
 18 32  1  0  0  0
M  END
> <minimizedAffinity>
-8.54432

> <CNNscore>
0.3212648630

> <CNNaffinity>
7.0553116798

> <CNN_VS>
2.2666237354

> <CNNaffinity_variance>
0.0947620720

$$$$
[H]c1c([H])c([H])c2c(c1[H])c1c3c(c4c5c([H])c([H])c([H])c([H])c5n5c4c1n2[C@]1([H])O[C@]5(C([H])([H])[H])[C@]([H])(OC([H])([H])[H])[C@@]([H])(N([H])C([H])([H])[H])C1([H])[H])C([H])([H])N([H])C3=O


 37 44  0  0  0  0  0  0  0  0999 V2000
   36.1151   14.6430  -11.7820 C   0  0  0  0  0  0  0  0  0  0  0  0
   37.4759   15.3998  -11.6350 C   0  0  0  0  0  0  0  0  0  0  0  0
   38.1943   14.8640  -12.6751 C   0  0  0  0  0  0  0  0  0  0  0  0
   37.4510   15.2038  -13.8015 O   0  0  0  0  0  0  0  0  0  0  0  0
   36.7315   14.0212  -14.1629 C   0  0  0  0  0  0  0  0  0  0  0  0
   35.6734   14.6187  -15.1226 C   0  0  0  0  0  0  0  0  0  0  0  0
   36.1652   13.5707  -12.9071 C   0  0  0  0  0  0  0  0  0  0  0  0
   37.6973   13.2551  -14.9226 N   0  0  0  0  0  0  0  0  0  0  0  0
   37.4045   12.3896  -15.9260 C   0  0  0  0  0  0  0  0  0  0  0  0
   36.2210   11.9010  -16.4004 C   0  0  0  0  0  0  0  0  0  0  0  0
   36.1982   11.0002  -17.4573 C   0  0  0  0  0  0  0  0  0  0  0  0
   37.3756   10.5616  -18.0714 C   0  0  0  0  0  0  0  0  0  0  0  0
   38.5760   11.0488  -17.5988 C   0  0  0  0  0  0  0  0  0  0  0  0
   38.5597   11.9411  -16.5485 C   0  0  0  0  0  0  0  0  0  0  0  0
   39.5961   12.5322  -15.9218 C   0  0  0  0  0  0  0  0  0  0  0  0
   40.9923   12.5540  -16.0606 C   0  0  0  0  0  0  0  0  0  0  0  0
   41.8068   11.8107  -17.0358 C   0  0  0  0  0  0  0  0  0  0  0  0
   43.1684   12.1776  -16.7417 N   0  0  0  0  0  0  0  0  0  0  0  0
   43.1922   13.1166  -15.6463 C   0  0  0  0  0  0  0  0  0  0  0  0
   44.2797   13.5613  -15.2473 O   0  0  0  0  0  0  0  0  0  0  0  0
   41.8170   13.3194  -15.2559 C   0  0  0  0  0  0  0  0  0  0  0  0
   41.2824   14.1138  -14.2510 C   0  0  0  0  0  0  0  0  0  0  0  0
   41.7582   14.9329  -13.2655 C   0  0  0  0  0  0  0  0  0  0  0  0
   43.0041   15.3395  -12.9172 C   0  0  0  0  0  0  0  0  0  0  0  0
   43.1297   16.2113  -11.8203 C   0  0  0  0  0  0  0  0  0  0  0  0
   42.0164   16.6335  -11.1283 C   0  0  0  0  0  0  0  0  0  0  0  0
   40.7459   16.2103  -11.4948 C   0  0  0  0  0  0  0  0  0  0  0  0
   40.6489   15.3621  -12.5651 C   0  0  0  0  0  0  0  0  0  0  0  0
   39.5384   14.8457  -13.0792 N   0  0  0  0  0  0  0  0  0  0  0  0
   39.9175   14.0756  -14.1334 C   0  0  0  0  0  0  0  0  0  0  0  0
   39.0778   13.3048  -14.9560 C   0  0  0  0  0  0  0  0  0  0  0  0
   43.9755   11.7871  -17.2781 H   0  0  0  0  0  0  0  0  0  0  0  0
   36.3097   14.7002   -9.3920 C   0  0  0  0  0  0  0  0  0  0  0  0
   35.9514   13.9222  -10.5334 N   0  0  0  0  0  0  0  0  0  0  0  0
   36.5335   13.0321  -10.5778 H   0  0  0  0  0  0  0  0  0  0  0  0
   34.7695   13.3836  -13.1333 O   0  0  0  0  0  0  0  0  0  0  0  0
   34.4435   12.1192  -13.5096 C   0  0  0  0  0  0  0  0  0  0  0  0
 33 34  1  0  0  0
 34  1  1  0  0  0
  1  2  1  0  0  0
  2  3  1  0  0  0
  3  4  1  0  0  0
  4  5  1  0  0  0
  5  6  1  0  0  0
  5  7  1  0  0  0
  7 36  1  0  0  0
 36 37  1  0  0  0
  5  8  1  0  0  0
  8  9  1  0  0  0
  9 10  2  0  0  0
 10 11  1  0  0  0
 11 12  2  0  0  0
 12 13  1  0  0  0
 13 14  2  0  0  0
 14 15  1  0  0  0
 15 16  2  0  0  0
 16 17  1  0  0  0
 17 18  1  0  0  0
 18 19  1  0  0  0
 19 20  2  0  0  0
 19 21  1  0  0  0
 21 22  2  0  0  0
 22 23  1  0  0  0
 23 24  2  0  0  0
 24 25  1  0  0  0
 25 26  2  0  0  0
 26 27  1  0  0  0
 27 28  2  0  0  0
 28 29  1  0  0  0
 29 30  1  0  0  0
 30 31  2  0  0  0
  7  1  1  0  0  0
 31  8  1  0  0  0
 29  3  1  0  0  0
 14  9  1  0  0  0
 31 15  1  0  0  0
 21 16  1  0  0  0
 30 22  1  0  0  0
 28 23  1  0  0  0
 34 35  1  0  0  0
 18 32  1  0  0  0
M  END
> <minimizedAffinity>
-11.82953

> <CNNscore>
0.2412313372

> <CNNaffinity>
6.6979036331

> <CNN_VS>
1.6157442331

> <CNNaffinity_variance>
0.1088560596

$$$$
[H]c1c([H])c([H])c2c(c1[H])c1c3c(c4c5c([H])c([H])c([H])c([H])c5n5c4c1n2[C@]1([H])O[C@]5(C([H])([H])[H])[C@]([H])(OC([H])([H])[H])[C@@]([H])(N([H])C([H])([H])[H])C1([H])[H])C([H])([H])N([H])C3=O


 37 44  0  0  0  0  0  0  0  0999 V2000
   37.7358   14.9762  -11.4207 C   0  0  0  0  0  0  0  0  0  0  0  0
   39.1509   15.6421  -11.4195 C   0  0  0  0  0  0  0  0  0  0  0  0
   39.7227   15.0585  -12.5229 C   0  0  0  0  0  0  0  0  0  0  0  0
   38.8919   15.4445  -13.5705 O   0  0  0  0  0  0  0  0  0  0  0  0
   38.0638   14.3112  -13.8467 C   0  0  0  0  0  0  0  0  0  0  0  0
   36.9544   14.9752  -14.6987 C   0  0  0  0  0  0  0  0  0  0  0  0
   37.6006   13.9010  -12.5361 C   0  0  0  0  0  0  0  0  0  0  0  0
   38.8948   13.4819  -14.6944 N   0  0  0  0  0  0  0  0  0  0  0  0
   38.4453   12.6358  -15.6555 C   0  0  0  0  0  0  0  0  0  0  0  0
   37.1901   12.2253  -16.0027 C   0  0  0  0  0  0  0  0  0  0  0  0
   37.0007   11.3261  -17.0442 C   0  0  0  0  0  0  0  0  0  0  0  0
   38.0780   10.8100  -17.7713 C   0  0  0  0  0  0  0  0  0  0  0  0
   39.3496   11.2181  -17.4276 C   0  0  0  0  0  0  0  0  0  0  0  0
   39.4990   12.1114  -16.3887 C   0  0  0  0  0  0  0  0  0  0  0  0
   40.6303   12.6341  -15.8758 C   0  0  0  0  0  0  0  0  0  0  0  0
   42.0035   12.5639  -16.1563 C   0  0  0  0  0  0  0  0  0  0  0  0
   42.6638   11.7670  -17.2031 C   0  0  0  0  0  0  0  0  0  0  0  0
   44.0694   12.0442  -17.0523 N   0  0  0  0  0  0  0  0  0  0  0  0
   44.2662   12.9814  -15.9730 C   0  0  0  0  0  0  0  0  0  0  0  0
   45.4155   13.3544  -15.6906 O   0  0  0  0  0  0  0  0  0  0  0  0
   42.9542   13.2749  -15.4462 C   0  0  0  0  0  0  0  0  0  0  0  0
   42.5781   14.1043  -14.3988 C   0  0  0  0  0  0  0  0  0  0  0  0
   43.2046   14.8921  -13.4739 C   0  0  0  0  0  0  0  0  0  0  0  0
   44.5034   15.2165  -13.2577 C   0  0  0  0  0  0  0  0  0  0  0  0
   44.7970   16.0801  -12.1867 C   0  0  0  0  0  0  0  0  0  0  0  0
   43.7902   16.5756  -11.3885 C   0  0  0  0  0  0  0  0  0  0  0  0
   42.4639   16.2363  -11.6200 C   0  0  0  0  0  0  0  0  0  0  0  0
   42.2030   15.3944  -12.6677 C   0  0  0  0  0  0  0  0  0  0  0  0
   41.0145   14.9512  -13.0617 N   0  0  0  0  0  0  0  0  0  0  0  0
   41.2328   14.1561  -14.1425 C   0  0  0  0  0  0  0  0  0  0  0  0
   40.2649   13.4407  -14.8687 C   0  0  0  0  0  0  0  0  0  0  0  0
   44.7902   11.6006  -17.6649 H   0  0  0  0  0  0  0  0  0  0  0  0
   37.5292   15.1469   -9.0372 C   0  0  0  0  0  0  0  0  0  0  0  0
   37.6539   14.2698  -10.1560 N   0  0  0  0  0  0  0  0  0  0  0  0
   38.5169   13.6548  -10.0555 H   0  0  0  0  0  0  0  0  0  0  0  0
   36.1799   13.8056  -12.6173 O   0  0  0  0  0  0  0  0  0  0  0  0
   35.7097   12.5393  -12.4688 C   0  0  0  0  0  0  0  0  0  0  0  0
 33 34  1  0  0  0
 34  1  1  0  0  0
  1  2  1  0  0  0
  2  3  1  0  0  0
  3  4  1  0  0  0
  4  5  1  0  0  0
  5  6  1  0  0  0
  5  7  1  0  0  0
  7 36  1  0  0  0
 36 37  1  0  0  0
  5  8  1  0  0  0
  8  9  1  0  0  0
  9 10  2  0  0  0
 10 11  1  0  0  0
 11 12  2  0  0  0
 12 13  1  0  0  0
 13 14  2  0  0  0
 14 15  1  0  0  0
 15 16  2  0  0  0
 16 17  1  0  0  0
 17 18  1  0  0  0
 18 19  1  0  0  0
 19 20  2  0  0  0
 19 21  1  0  0  0
 21 22  2  0  0  0
 22 23  1  0  0  0
 23 24  2  0  0  0
 24 25  1  0  0  0
 25 26  2  0  0  0
 26 27  1  0  0  0
 27 28  2  0  0  0
 28 29  1  0  0  0
 29 30  1  0  0  0
 30 31  2  0  0  0
  7  1  1  0  0  0
 31  8  1  0  0  0
 29  3  1  0  0  0
 14  9  1  0  0  0
 31 15  1  0  0  0
 21 16  1  0  0  0
 30 22  1  0  0  0
 28 23  1  0  0  0
 34 35  1  0  0  0
 18 32  1  0  0  0
M  END
> <minimizedAffinity>
-10.26354

> <CNNscore>
0.1425957531

> <CNNaffinity>
6.2353458405

> <CNN_VS>
0.8891338110

> <CNNaffinity_variance>
0.3355176449

$$$$
[H]c1c([H])c([H])c2c(c1[H])c1c3c(c4c5c([H])c([H])c([H])c([H])c5n5c4c1n2[C@]1([H])O[C@]5(C([H])([H])[H])[C@]([H])(OC([H])([H])[H])[C@@]([H])(N([H])C([H])([H])[H])C1([H])[H])C([H])([H])N([H])C3=O


 37 44  0  0  0  0  0  0  0  0999 V2000
   42.8444   14.1559  -13.2273 C   0  0  0  0  0  0  0  0  0  0  0  0
   42.1119   13.5646  -14.4763 C   0  0  0  0  0  0  0  0  0  0  0  0
   40.8014   13.8401  -14.1738 C   0  0  0  0  0  0  0  0  0  0  0  0
   40.7683   15.2279  -14.0749 O   0  0  0  0  0  0  0  0  0  0  0  0
   40.7766   15.5173  -12.6739 C   0  0  0  0  0  0  0  0  0  0  0  0
   41.1490   17.0200  -12.6999 C   0  0  0  0  0  0  0  0  0  0  0  0
   41.8421   14.6798  -12.1600 C   0  0  0  0  0  0  0  0  0  0  0  0
   39.3888   15.3685  -12.2882 N   0  0  0  0  0  0  0  0  0  0  0  0
   38.7724   16.0415  -11.2839 C   0  0  0  0  0  0  0  0  0  0  0  0
   39.2448   16.8833  -10.3180 C   0  0  0  0  0  0  0  0  0  0  0  0
   38.3840   17.4458   -9.3844 C   0  0  0  0  0  0  0  0  0  0  0  0
   37.0121   17.1743   -9.3962 C   0  0  0  0  0  0  0  0  0  0  0  0
   36.5256   16.3247  -10.3673 C   0  0  0  0  0  0  0  0  0  0  0  0
   37.4096   15.7854  -11.2770 C   0  0  0  0  0  0  0  0  0  0  0  0
   37.1670   14.9329  -12.2922 C   0  0  0  0  0  0  0  0  0  0  0  0
   36.0403   14.3166  -12.8577 C   0  0  0  0  0  0  0  0  0  0  0  0
   34.6418   14.4247  -12.4110 C   0  0  0  0  0  0  0  0  0  0  0  0
   33.8945   13.5935  -13.3197 N   0  0  0  0  0  0  0  0  0  0  0  0
   34.7880   13.0122  -14.2923 C   0  0  0  0  0  0  0  0  0  0  0  0
   34.3304   12.2665  -15.1723 O   0  0  0  0  0  0  0  0  0  0  0  0
   36.1106   13.4896  -13.9645 C   0  0  0  0  0  0  0  0  0  0  0  0
   37.3304   13.2272  -14.5727 C   0  0  0  0  0  0  0  0  0  0  0  0
   37.7861   12.4576  -15.6063 C   0  0  0  0  0  0  0  0  0  0  0  0
   37.1690   11.6569  -16.5101 C   0  0  0  0  0  0  0  0  0  0  0  0
   37.9691   10.9996  -17.4624 C   0  0  0  0  0  0  0  0  0  0  0  0
   39.3355   11.1707  -17.4690 C   0  0  0  0  0  0  0  0  0  0  0  0
   39.9559   11.9935  -16.5384 C   0  0  0  0  0  0  0  0  0  0  0  0
   39.1565   12.6221  -15.6217 C   0  0  0  0  0  0  0  0  0  0  0  0
   39.5427   13.4481  -14.6559 N   0  0  0  0  0  0  0  0  0  0  0  0
   38.4163   13.8388  -14.0027 C   0  0  0  0  0  0  0  0  0  0  0  0
   38.3451   14.6859  -12.8832 C   0  0  0  0  0  0  0  0  0  0  0  0
   32.8605   13.4703  -13.2346 H   0  0  0  0  0  0  0  0  0  0  0  0
   44.9522   13.1525  -12.6763 C   0  0  0  0  0  0  0  0  0  0  0  0
   43.5315   13.0273  -12.6278 N   0  0  0  0  0  0  0  0  0  0  0  0
   43.2167   12.1384  -13.1215 H   0  0  0  0  0  0  0  0  0  0  0  0
   42.7038   15.5321  -11.4082 O   0  0  0  0  0  0  0  0  0  0  0  0
   42.6835   15.2853  -10.0720 C   0  0  0  0  0  0  0  0  0  0  0  0
 33 34  1  0  0  0
 34  1  1  0  0  0
  1  2  1  0  0  0
  2  3  1  0  0  0
  3  4  1  0  0  0
  4  5  1  0  0  0
  5  6  1  0  0  0
  5  7  1  0  0  0
  7 36  1  0  0  0
 36 37  1  0  0  0
  5  8  1  0  0  0
  8  9  1  0  0  0
  9 10  2  0  0  0
 10 11  1  0  0  0
 11 12  2  0  0  0
 12 13  1  0  0  0
 13 14  2  0  0  0
 14 15  1  0  0  0
 15 16  2  0  0  0
 16 17  1  0  0  0
 17 18  1  0  0  0
 18 19  1  0  0  0
 19 20  2  0  0  0
 19 21  1  0  0  0
 21 22  2  0  0  0
 22 23  1  0  0  0
 23 24  2  0  0  0
 24 25  1  0  0  0
 25 26  2  0  0  0
 26 27  1  0  0  0
 27 28  2  0  0  0
 28 29  1  0  0  0
 29 30  1  0  0  0
 30 31  2  0  0  0
  7  1  1  0  0  0
 31  8  1  0  0  0
 29  3  1  0  0  0
 14  9  1  0  0  0
 31 15  1  0  0  0
 21 16  1  0  0  0
 30 22  1  0  0  0
 28 23  1  0  0  0
 34 35  1  0  0  0
 18 32  1  0  0  0
M  END
> <minimizedAffinity>
-10.61703

> <CNNscore>
0.1369482279

> <CNNaffinity>
6.2869501114

> <CNN_VS>
0.8609866500

> <CNNaffinity_variance>
0.3499447405

$$$$
[H]c1c([H])c([H])c2c(c1[H])c1c3c(c4c5c([H])c([H])c([H])c([H])c5n5c4c1n2[C@]1([H])O[C@]5(C([H])([H])[H])[C@]([H])(OC([H])([H])[H])[C@@]([H])(N([H])C([H])([H])[H])C1([H])[H])C([H])([H])N([H])C3=O


 37 44  0  0  0  0  0  0  0  0999 V2000
   44.0191   14.0599  -12.9111 C   0  0  0  0  0  0  0  0  0  0  0  0
   43.4961   13.5684  -14.3007 C   0  0  0  0  0  0  0  0  0  0  0  0
   42.1517   13.8221  -14.1861 C   0  0  0  0  0  0  0  0  0  0  0  0
   42.0894   15.1982  -13.9874 O   0  0  0  0  0  0  0  0  0  0  0  0
   41.8766   15.3783  -12.5842 C   0  0  0  0  0  0  0  0  0  0  0  0
   42.2331   16.8778  -12.4364 C   0  0  0  0  0  0  0  0  0  0  0  0
   42.8576   14.5015  -11.9761 C   0  0  0  0  0  0  0  0  0  0  0  0
   40.4473   15.2027  -12.4323 N   0  0  0  0  0  0  0  0  0  0  0  0
   39.6752   15.7972  -11.4878 C   0  0  0  0  0  0  0  0  0  0  0  0
   39.9828   16.5607  -10.3984 C   0  0  0  0  0  0  0  0  0  0  0  0
   38.9814   17.0509   -9.5701 C   0  0  0  0  0  0  0  0  0  0  0  0
   37.6310   16.7838   -9.8166 C   0  0  0  0  0  0  0  0  0  0  0  0
   37.3103   16.0128  -10.9140 C   0  0  0  0  0  0  0  0  0  0  0  0
   38.3305   15.5438  -11.7132 C   0  0  0  0  0  0  0  0  0  0  0  0
   38.2577   14.7729  -12.8162 C   0  0  0  0  0  0  0  0  0  0  0  0
   37.2392   14.2043  -13.5962 C   0  0  0  0  0  0  0  0  0  0  0  0
   35.7872   14.2801  -13.3662 C   0  0  0  0  0  0  0  0  0  0  0  0
   35.1989   13.5231  -14.4414 N   0  0  0  0  0  0  0  0  0  0  0  0
   36.2388   13.0171  -15.3044 C   0  0  0  0  0  0  0  0  0  0  0  0
   35.9315   12.3426  -16.2996 O   0  0  0  0  0  0  0  0  0  0  0  0
   37.4894   13.4653  -14.7386 C   0  0  0  0  0  0  0  0  0  0  0  0
   38.7916   13.2485  -15.1674 C   0  0  0  0  0  0  0  0  0  0  0  0
   39.4105   12.5603  -16.1733 C   0  0  0  0  0  0  0  0  0  0  0  0
   38.9498   11.8330  -17.2210 C   0  0  0  0  0  0  0  0  0  0  0  0
   39.8951   11.2500  -18.0844 C   0  0  0  0  0  0  0  0  0  0  0  0
   41.2441   11.4184  -17.8646 C   0  0  0  0  0  0  0  0  0  0  0  0
   41.7036   12.1656  -16.7883 C   0  0  0  0  0  0  0  0  0  0  0  0
   40.7649   12.7229  -15.9620 C   0  0  0  0  0  0  0  0  0  0  0  0
   40.9875   13.4709  -14.8873 N   0  0  0  0  0  0  0  0  0  0  0  0
   39.7692   13.8120  -14.3897 C   0  0  0  0  0  0  0  0  0  0  0  0
   39.5160   14.5702  -13.2334 C   0  0  0  0  0  0  0  0  0  0  0  0
   34.1656   13.3956  -14.5284 H   0  0  0  0  0  0  0  0  0  0  0  0
   46.0209   13.0243  -12.0904 C   0  0  0  0  0  0  0  0  0  0  0  0
   44.6160   12.8871  -12.3001 N   0  0  0  0  0  0  0  0  0  0  0  0
   44.4097   12.0431  -12.9151 H   0  0  0  0  0  0  0  0  0  0  0  0
   43.5830   15.2915  -11.0360 O   0  0  0  0  0  0  0  0  0  0  0  0
   43.3708   14.9308   -9.7431 C   0  0  0  0  0  0  0  0  0  0  0  0
 33 34  1  0  0  0
 34  1  1  0  0  0
  1  2  1  0  0  0
  2  3  1  0  0  0
  3  4  1  0  0  0
  4  5  1  0  0  0
  5  6  1  0  0  0
  5  7  1  0  0  0
  7 36  1  0  0  0
 36 37  1  0  0  0
  5  8  1  0  0  0
  8  9  1  0  0  0
  9 10  2  0  0  0
 10 11  1  0  0  0
 11 12  2  0  0  0
 12 13  1  0  0  0
 13 14  2  0  0  0
 14 15  1  0  0  0
 15 16  2  0  0  0
 16 17  1  0  0  0
 17 18  1  0  0  0
 18 19  1  0  0  0
 19 20  2  0  0  0
 19 21  1  0  0  0
 21 22  2  0  0  0
 22 23  1  0  0  0
 23 24  2  0  0  0
 24 25  1  0  0  0
 25 26  2  0  0  0
 26 27  1  0  0  0
 27 28  2  0  0  0
 28 29  1  0  0  0
 29 30  1  0  0  0
 30 31  2  0  0  0
  7  1  1  0  0  0
 31  8  1  0  0  0
 29  3  1  0  0  0
 14  9  1  0  0  0
 31 15  1  0  0  0
 21 16  1  0  0  0
 30 22  1  0  0  0
 28 23  1  0  0  0
 34 35  1  0  0  0
 18 32  1  0  0  0
M  END
> <minimizedAffinity>
-9.78283

> <CNNscore>
0.1307371855

> <CNNaffinity>
6.2099199295

> <CNN_VS>
0.8118674755

> <CNNaffinity_variance>
0.3828658760

$$$$
[H]c1c([H])c([H])c2c(c1[H])c1c3c(c4c5c([H])c([H])c([H])c([H])c5n5c4c1n2[C@]1([H])O[C@]5(C([H])([H])[H])[C@]([H])(OC([H])([H])[H])[C@@]([H])(N([H])C([H])([H])[H])C1([H])[H])C([H])([H])N([H])C3=O


 37 44  0  0  0  0  0  0  0  0999 V2000
   43.1650   15.5137  -10.9326 C   0  0  0  0  0  0  0  0  0  0  0  0
   43.8483   15.0610  -12.2647 C   0  0  0  0  0  0  0  0  0  0  0  0
   42.7585   14.6857  -13.0108 C   0  0  0  0  0  0  0  0  0  0  0  0
   42.0029   15.8507  -13.1038 O   0  0  0  0  0  0  0  0  0  0  0  0
   40.9472   15.7055  -12.1492 C   0  0  0  0  0  0  0  0  0  0  0  0
   40.4524   17.1696  -12.0532 C   0  0  0  0  0  0  0  0  0  0  0  0
   41.6308   15.2602  -10.9513 C   0  0  0  0  0  0  0  0  0  0  0  0
   39.9636   14.9065  -12.8498 N   0  0  0  0  0  0  0  0  0  0  0  0
   38.6217   14.9562  -12.6535 C   0  0  0  0  0  0  0  0  0  0  0  0
   37.8529   15.6027  -11.7285 C   0  0  0  0  0  0  0  0  0  0  0  0
   36.4697   15.4780  -11.7439 C   0  0  0  0  0  0  0  0  0  0  0  0
   35.8157   14.6922  -12.6982 C   0  0  0  0  0  0  0  0  0  0  0  0
   36.5836   14.0348  -13.6361 C   0  0  0  0  0  0  0  0  0  0  0  0
   37.9532   14.1820  -13.5899 C   0  0  0  0  0  0  0  0  0  0  0  0
   38.8925   13.6330  -14.3852 C   0  0  0  0  0  0  0  0  0  0  0  0
   38.9110   12.8045  -15.5176 C   0  0  0  0  0  0  0  0  0  0  0  0
   37.7567   12.2070  -16.2088 C   0  0  0  0  0  0  0  0  0  0  0  0
   38.3239   11.4426  -17.2900 N   0  0  0  0  0  0  0  0  0  0  0  0
   39.7607   11.5752  -17.2767 C   0  0  0  0  0  0  0  0  0  0  0  0
   40.4352   10.9937  -18.1409 O   0  0  0  0  0  0  0  0  0  0  0  0
   40.0789   12.4299  -16.1574 C   0  0  0  0  0  0  0  0  0  0  0  0
   41.3106   12.8673  -15.6903 C   0  0  0  0  0  0  0  0  0  0  0  0
   42.6256   12.6771  -16.0114 C   0  0  0  0  0  0  0  0  0  0  0  0
   43.2501   11.9902  -16.9998 C   0  0  0  0  0  0  0  0  0  0  0  0
   44.6563   12.0135  -17.0310 C   0  0  0  0  0  0  0  0  0  0  0  0
   45.3678   12.7150  -16.0834 C   0  0  0  0  0  0  0  0  0  0  0  0
   44.7170   13.4147  -15.0761 C   0  0  0  0  0  0  0  0  0  0  0  0
   43.3484   13.3771  -15.0664 C   0  0  0  0  0  0  0  0  0  0  0  0
   42.5373   13.9750  -14.2010 N   0  0  0  0  0  0  0  0  0  0  0  0
   41.2680   13.6740  -14.5832 C   0  0  0  0  0  0  0  0  0  0  0  0
   40.0814   14.0621  -13.9372 C   0  0  0  0  0  0  0  0  0  0  0  0
   37.7299   10.8942  -17.9518 H   0  0  0  0  0  0  0  0  0  0  0  0
   45.0557   14.2374  -10.1915 C   0  0  0  0  0  0  0  0  0  0  0  0
   43.7144   14.6383   -9.9144 N   0  0  0  0  0  0  0  0  0  0  0  0
   43.0809   13.7879   -9.8214 H   0  0  0  0  0  0  0  0  0  0  0  0
   41.2226   16.1339   -9.9005 O   0  0  0  0  0  0  0  0  0  0  0  0
   40.4601   15.5274   -8.9532 C   0  0  0  0  0  0  0  0  0  0  0  0
 33 34  1  0  0  0
 34  1  1  0  0  0
  1  2  1  0  0  0
  2  3  1  0  0  0
  3  4  1  0  0  0
  4  5  1  0  0  0
  5  6  1  0  0  0
  5  7  1  0  0  0
  7 36  1  0  0  0
 36 37  1  0  0  0
  5  8  1  0  0  0
  8  9  1  0  0  0
  9 10  2  0  0  0
 10 11  1  0  0  0
 11 12  2  0  0  0
 12 13  1  0  0  0
 13 14  2  0  0  0
 14 15  1  0  0  0
 15 16  2  0  0  0
 16 17  1  0  0  0
 17 18  1  0  0  0
 18 19  1  0  0  0
 19 20  2  0  0  0
 19 21  1  0  0  0
 21 22  2  0  0  0
 22 23  1  0  0  0
 23 24  2  0  0  0
 24 25  1  0  0  0
 25 26  2  0  0  0
 26 27  1  0  0  0
 27 28  2  0  0  0
 28 29  1  0  0  0
 29 30  1  0  0  0
 30 31  2  0  0  0
  7  1  1  0  0  0
 31  8  1  0  0  0
 29  3  1  0  0  0
 14  9  1  0  0  0
 31 15  1  0  0  0
 21 16  1  0  0  0
 30 22  1  0  0  0
 28 23  1  0  0  0
 34 35  1  0  0  0
 18 32  1  0  0  0
M  END
> <minimizedAffinity>
-9.57299

> <CNNscore>
0.1246132180

> <CNNaffinity>
6.3372344971

> <CNN_VS>
0.7897031903

> <CNNaffinity_variance>
0.2142870128

$$$$
[H]c1c([H])c([H])c2c(c1[H])c1c3c(c4c5c([H])c([H])c([H])c([H])c5n5c4c1n2[C@@]1(C([H])([H])[H])O[C@]5([H])C([H])([H])[C@]([H])(N([H])C([H])([H])[H])[C@@]1([H])OC([H])([H])[H])C(=O)N([H])C3([H])[H]


 37 44  0  0  0  0  0  0  0  0999 V2000
   36.8510   14.8662  -13.7628 C   0  0  0  0  0  0  0  0  0  0  0  0
   38.2404   14.7059  -13.1443 C   0  0  0  0  0  0  0  0  0  0  0  0
   38.5934   13.2605  -12.9960 C   0  0  0  0  0  0  0  0  0  0  0  0
   37.6398   12.3974  -12.7650 O   0  0  0  0  0  0  0  0  0  0  0  0
   36.3437   12.5410  -13.2365 C   0  0  0  0  0  0  0  0  0  0  0  0
   35.5791   11.5496  -12.3765 C   0  0  0  0  0  0  0  0  0  0  0  0
   35.9452   13.9645  -13.0051 C   0  0  0  0  0  0  0  0  0  0  0  0
   36.3497   12.1133  -14.6378 N   0  0  0  0  0  0  0  0  0  0  0  0
   35.3020   11.6407  -15.3374 C   0  0  0  0  0  0  0  0  0  0  0  0
   33.9923   11.4552  -15.0418 C   0  0  0  0  0  0  0  0  0  0  0  0
   33.0982   10.9420  -15.9581 C   0  0  0  0  0  0  0  0  0  0  0  0
   33.4886   10.5845  -17.2413 C   0  0  0  0  0  0  0  0  0  0  0  0
   34.8164   10.7677  -17.5559 C   0  0  0  0  0  0  0  0  0  0  0  0
   35.6928   11.2787  -16.6345 C   0  0  0  0  0  0  0  0  0  0  0  0
   37.0247   11.5451  -16.7183 C   0  0  0  0  0  0  0  0  0  0  0  0
   37.9416   11.3889  -17.7408 C   0  0  0  0  0  0  0  0  0  0  0  0
   37.7708   10.8719  -19.1245 C   0  0  0  0  0  0  0  0  0  0  0  0
   39.0513   10.9271  -19.7450 N   0  0  0  0  0  0  0  0  0  0  0  0
   39.9934   11.4589  -18.8151 C   0  0  0  0  0  0  0  0  0  0  0  0
   41.1778   11.6128  -19.1122 O   0  0  0  0  0  0  0  0  0  0  0  0
   39.2904   11.7386  -17.5825 C   0  0  0  0  0  0  0  0  0  0  0  0
   39.6464   12.2483  -16.3480 C   0  0  0  0  0  0  0  0  0  0  0  0
   40.8354   12.7137  -15.8074 C   0  0  0  0  0  0  0  0  0  0  0  0
   42.0905   12.8208  -16.3000 C   0  0  0  0  0  0  0  0  0  0  0  0
   43.1073   13.3456  -15.4838 C   0  0  0  0  0  0  0  0  0  0  0  0
   42.8226   13.7410  -14.2076 C   0  0  0  0  0  0  0  0  0  0  0  0
   41.5562   13.6447  -13.6773 C   0  0  0  0  0  0  0  0  0  0  0  0
   40.5783   13.1284  -14.4947 C   0  0  0  0  0  0  0  0  0  0  0  0
   39.2924   12.9234  -14.2506 N   0  0  0  0  0  0  0  0  0  0  0  0
   38.7048   12.3963  -15.3342 C   0  0  0  0  0  0  0  0  0  0  0  0
   37.3777   12.0424  -15.5089 C   0  0  0  0  0  0  0  0  0  0  0  0
   39.2422   10.6199  -20.7277 H   0  0  0  0  0  0  0  0  0  0  0  0
   36.3342   16.9790  -12.6705 C   0  0  0  0  0  0  0  0  0  0  0  0
   36.4830   16.2294  -13.8587 N   0  0  0  0  0  0  0  0  0  0  0  0
   36.9454   16.7690  -14.6006 H   0  0  0  0  0  0  0  0  0  0  0  0
   34.6515   14.2681  -13.3161 O   0  0  0  0  0  0  0  0  0  0  0  0
   33.7737   14.5937  -12.3249 C   0  0  0  0  0  0  0  0  0  0  0  0
 33 34  1  0  0  0
 34  1  1  0  0  0
  1  2  1  0  0  0
  2  3  1  0  0  0
  3  4  1  0  0  0
  4  5  1  0  0  0
  5  6  1  0  0  0
  5  7  1  0  0  0
  7 36  1  0  0  0
 36 37  1  0  0  0
  5  8  1  0  0  0
  8  9  1  0  0  0
  9 10  2  0  0  0
 10 11  1  0  0  0
 11 12  2  0  0  0
 12 13  1  0  0  0
 13 14  2  0  0  0
 14 15  1  0  0  0
 15 16  2  0  0  0
 16 17  1  0  0  0
 17 18  1  0  0  0
 18 19  1  0  0  0
 19 20  2  0  0  0
 19 21  1  0  0  0
 21 22  2  0  0  0
 22 23  1  0  0  0
 23 24  2  0  0  0
 24 25  1  0  0  0
 25 26  2  0  0  0
 26 27  1  0  0  0
 27 28  2  0  0  0
 28 29  1  0  0  0
 29 30  1  0  0  0
 30 31  2  0  0  0
  7  1  1  0  0  0
 31  8  1  0  0  0
 29  3  1  0  0  0
 14  9  1  0  0  0
 31 15  1  0  0  0
 21 16  1  0  0  0
 30 22  1  0  0  0
 28 23  1  0  0  0
 34 35  1  0  0  0
 18 32  1  0  0  0
M  END
> <minimizedAffinity>
-7.17459

> <CNNscore>
0.7574957609

> <CNNaffinity>
7.6866822243

> <CNN_VS>
5.8226289749

> <CNNaffinity_variance>
0.1623409688

$$$$
[H]c1c([H])c([H])c2c(c1[H])c1c3c(c4c5c([H])c([H])c([H])c([H])c5n5c4c1n2[C@@]1(C([H])([H])[H])O[C@]5([H])C([H])([H])[C@]([H])(N([H])C([H])([H])[H])[C@@]1([H])OC([H])([H])[H])C(=O)N([H])C3([H])[H]


 37 44  0  0  0  0  0  0  0  0999 V2000
   41.5911   15.9303   -9.8957 C   0  0  0  0  0  0  0  0  0  0  0  0
   40.7327   15.3407   -8.7758 C   0  0  0  0  0  0  0  0  0  0  0  0
   41.5903   14.7494   -7.7031 C   0  0  0  0  0  0  0  0  0  0  0  0
   42.7399   14.2219   -8.0318 O   0  0  0  0  0  0  0  0  0  0  0  0
   43.5156   14.6702   -9.0900 C   0  0  0  0  0  0  0  0  0  0  0  0
   44.4775   13.5125   -9.2941 C   0  0  0  0  0  0  0  0  0  0  0  0
   42.5951   14.8934  -10.2483 C   0  0  0  0  0  0  0  0  0  0  0  0
   44.2304   15.8601   -8.6210 N   0  0  0  0  0  0  0  0  0  0  0  0
   45.3962   16.3354   -9.0957 C   0  0  0  0  0  0  0  0  0  0  0  0
   46.2170   15.9516  -10.1037 C   0  0  0  0  0  0  0  0  0  0  0  0
   47.3850   16.6244  -10.3962 C   0  0  0  0  0  0  0  0  0  0  0  0
   47.7896   17.7379   -9.6729 C   0  0  0  0  0  0  0  0  0  0  0  0
   46.9653   18.1396   -8.6459 C   0  0  0  0  0  0  0  0  0  0  0  0
   45.8078   17.4607   -8.3675 C   0  0  0  0  0  0  0  0  0  0  0  0
   44.8531   17.6707   -7.4207 C   0  0  0  0  0  0  0  0  0  0  0  0
   44.7248   18.6199   -6.4241 C   0  0  0  0  0  0  0  0  0  0  0  0
   45.6057   19.7585   -6.0516 C   0  0  0  0  0  0  0  0  0  0  0  0
   44.9921   20.4071   -4.9423 N   0  0  0  0  0  0  0  0  0  0  0  0
   43.7781   19.7291   -4.6235 C   0  0  0  0  0  0  0  0  0  0  0  0
   43.0547   20.1000   -3.6994 O   0  0  0  0  0  0  0  0  0  0  0  0
   43.6290   18.6279   -5.5491 C   0  0  0  0  0  0  0  0  0  0  0  0
   42.6876   17.6345   -5.7431 C   0  0  0  0  0  0  0  0  0  0  0  0
   41.4896   17.3122   -5.1240 C   0  0  0  0  0  0  0  0  0  0  0  0
   40.8154   17.8555   -4.0849 C   0  0  0  0  0  0  0  0  0  0  0  0
   39.5951   17.2854   -3.6833 C   0  0  0  0  0  0  0  0  0  0  0  0
   39.1021   16.1941   -4.3407 C   0  0  0  0  0  0  0  0  0  0  0  0
   39.7640   15.6182   -5.4010 C   0  0  0  0  0  0  0  0  0  0  0  0
   40.9556   16.1935   -5.7756 C   0  0  0  0  0  0  0  0  0  0  0  0
   41.7919   15.8529   -6.7451 N   0  0  0  0  0  0  0  0  0  0  0  0
   42.8390   16.6901   -6.7538 C   0  0  0  0  0  0  0  0  0  0  0  0
   43.9300   16.6970   -7.6062 C   0  0  0  0  0  0  0  0  0  0  0  0
   45.3903   21.2456   -4.4576 H   0  0  0  0  0  0  0  0  0  0  0  0
   39.3899   16.2722  -10.8763 C   0  0  0  0  0  0  0  0  0  0  0  0
   40.7904   16.4451  -10.9430 N   0  0  0  0  0  0  0  0  0  0  0  0
   41.0485   17.3769  -11.2902 H   0  0  0  0  0  0  0  0  0  0  0  0
   43.2025   15.2411  -11.4200 O   0  0  0  0  0  0  0  0  0  0  0  0
   43.1447   14.3985  -12.4904 C   0  0  0  0  0  0  0  0  0  0  0  0
 33 34  1  0  0  0
 34  1  1  0  0  0
  1  2  1  0  0  0
  2  3  1  0  0  0
  3  4  1  0  0  0
  4  5  1  0  0  0
  5  6  1  0  0  0
  5  7  1  0  0  0
  7 36  1  0  0  0
 36 37  1  0  0  0
  5  8  1  0  0  0
  8  9  1  0  0  0
  9 10  2  0  0  0
 10 11  1  0  0  0
 11 12  2  0  0  0
 12 13  1  0  0  0
 13 14  2  0  0  0
 14 15  1  0  0  0
 15 16  2  0  0  0
 16 17  1  0  0  0
 17 18  1  0  0  0
 18 19  1  0  0  0
 19 20  2  0  0  0
 19 21  1  0  0  0
 21 22  2  0  0  0
 22 23  1  0  0  0
 23 24  2  0  0  0
 24 25  1  0  0  0
 25 26  2  0  0  0
 26 27  1  0  0  0
 27 28  2  0  0  0
 28 29  1  0  0  0
 29 30  1  0  0  0
 30 31  2  0  0  0
  7  1  1  0  0  0
 31  8  1  0  0  0
 29  3  1  0  0  0
 14  9  1  0  0  0
 31 15  1  0  0  0
 21 16  1  0  0  0
 30 22  1  0  0  0
 28 23  1  0  0  0
 34 35  1  0  0  0
 18 32  1  0  0  0
M  END
> <minimizedAffinity>
-4.84353

> <CNNscore>
0.1797132492

> <CNNaffinity>
4.9985246658

> <CNN_VS>
0.8983011246

> <CNNaffinity_variance>
0.5081923008

$$$$
[H]c1c([H])c([H])c2c(c1[H])c1c3c(c4c5c([H])c([H])c([H])c([H])c5n5c4c1n2[C@@]1(C([H])([H])[H])O[C@]5([H])C([H])([H])[C@]([H])(N([H])C([H])([H])[H])[C@@]1([H])OC([H])([H])[H])C(=O)N([H])C3([H])[H]


 37 44  0  0  0  0  0  0  0  0999 V2000
   36.0974   16.4284   -9.4725 C   0  0  0  0  0  0  0  0  0  0  0  0
   34.7170   15.7822   -9.3476 C   0  0  0  0  0  0  0  0  0  0  0  0
   34.5604   15.1141   -8.0191 C   0  0  0  0  0  0  0  0  0  0  0  0
   35.6127   14.5924   -7.4459 O   0  0  0  0  0  0  0  0  0  0  0  0
   36.8964   15.0948   -7.5952 C   0  0  0  0  0  0  0  0  0  0  0  0
   37.7510   13.9391   -7.1044 C   0  0  0  0  0  0  0  0  0  0  0  0
   37.0839   15.4018   -9.0476 C   0  0  0  0  0  0  0  0  0  0  0  0
   37.0125   16.2436   -6.6933 N   0  0  0  0  0  0  0  0  0  0  0  0
   38.1457   16.7316   -6.1566 C   0  0  0  0  0  0  0  0  0  0  0  0
   39.4539   16.3999   -6.2825 C   0  0  0  0  0  0  0  0  0  0  0  0
   40.4505   17.0736   -5.6078 C   0  0  0  0  0  0  0  0  0  0  0  0
   40.1712   18.1346   -4.7575 C   0  0  0  0  0  0  0  0  0  0  0  0
   38.8463   18.4831   -4.6201 C   0  0  0  0  0  0  0  0  0  0  0  0
   37.8673   17.8040   -5.2972 C   0  0  0  0  0  0  0  0  0  0  0  0
   36.5165   17.9678   -5.3192 C   0  0  0  0  0  0  0  0  0  0  0  0
   35.6769   18.8551   -4.6725 C   0  0  0  0  0  0  0  0  0  0  0  0
   35.9794   19.9564   -3.7203 C   0  0  0  0  0  0  0  0  0  0  0  0
   34.7327   20.5433   -3.3610 N   0  0  0  0  0  0  0  0  0  0  0  0
   33.6855   19.8634   -4.0509 C   0  0  0  0  0  0  0  0  0  0  0  0
   32.5057   20.1860   -3.9135 O   0  0  0  0  0  0  0  0  0  0  0  0
   34.2870   18.8237   -4.8564 C   0  0  0  0  0  0  0  0  0  0  0  0
   33.8090   17.8570   -5.7211 C   0  0  0  0  0  0  0  0  0  0  0  0
   32.5440   17.5133   -6.1731 C   0  0  0  0  0  0  0  0  0  0  0  0
   31.3095   18.0003   -5.9116 C   0  0  0  0  0  0  0  0  0  0  0  0
   30.1944   17.4230   -6.5431 C   0  0  0  0  0  0  0  0  0  0  0  0
   30.3642   16.3813   -7.4104 C   0  0  0  0  0  0  0  0  0  0  0  0
   31.6066   15.8632   -7.6971 C   0  0  0  0  0  0  0  0  0  0  0  0
   32.6822   16.4444   -7.0674 C   0  0  0  0  0  0  0  0  0  0  0  0
   33.9718   16.1533   -7.1533 N   0  0  0  0  0  0  0  0  0  0  0  0
   34.6746   16.9751   -6.3608 C   0  0  0  0  0  0  0  0  0  0  0  0
   36.0443   17.0200   -6.1638 C   0  0  0  0  0  0  0  0  0  0  0  0
   34.6304   21.3447   -2.6948 H   0  0  0  0  0  0  0  0  0  0  0  0
   35.8812   16.2942  -11.8931 C   0  0  0  0  0  0  0  0  0  0  0  0
   36.2777   17.0179  -10.7464 N   0  0  0  0  0  0  0  0  0  0  0  0
   36.0415   18.0151  -10.8181 H   0  0  0  0  0  0  0  0  0  0  0  0
   38.3360   15.8131   -9.4020 O   0  0  0  0  0  0  0  0  0  0  0  0
   39.0478   15.1040  -10.3238 C   0  0  0  0  0  0  0  0  0  0  0  0
 33 34  1  0  0  0
 34  1  1  0  0  0
  1  2  1  0  0  0
  2  3  1  0  0  0
  3  4  1  0  0  0
  4  5  1  0  0  0
  5  6  1  0  0  0
  5  7  1  0  0  0
  7 36  1  0  0  0
 36 37  1  0  0  0
  5  8  1  0  0  0
  8  9  1  0  0  0
  9 10  2  0  0  0
 10 11  1  0  0  0
 11 12  2  0  0  0
 12 13  1  0  0  0
 13 14  2  0  0  0
 14 15  1  0  0  0
 15 16  2  0  0  0
 16 17  1  0  0  0
 17 18  1  0  0  0
 18 19  1  0  0  0
 19 20  2  0  0  0
 19 21  1  0  0  0
 21 22  2  0  0  0
 22 23  1  0  0  0
 23 24  2  0  0  0
 24 25  1  0  0  0
 25 26  2  0  0  0
 26 27  1  0  0  0
 27 28  2  0  0  0
 28 29  1  0  0  0
 29 30  1  0  0  0
 30 31  2  0  0  0
  7  1  1  0  0  0
 31  8  1  0  0  0
 29  3  1  0  0  0
 14  9  1  0  0  0
 31 15  1  0  0  0
 21 16  1  0  0  0
 30 22  1  0  0  0
 28 23  1  0  0  0
 34 35  1  0  0  0
 18 32  1  0  0  0
M  END
> <minimizedAffinity>
-6.19528

> <CNNscore>
0.1523692608

> <CNNaffinity>
5.5526885986

> <CNN_VS>
0.8460590839

> <CNNaffinity_variance>
0.1447961628

$$$$
[H]c1c([H])c([H])c2c(c1[H])c1c3c(c4c5c([H])c([H])c([H])c([H])c5n5c4c1n2[C@@]1(C([H])([H])[H])O[C@]5([H])C([H])([H])[C@]([H])(N([H])C([H])([H])[H])[C@@]1([H])OC([H])([H])[H])C(=O)N([H])C3([H])[H]


 37 44  0  0  0  0  0  0  0  0999 V2000
   41.4964   14.9655   -8.6272 C   0  0  0  0  0  0  0  0  0  0  0  0
   42.0477   16.0634   -9.5378 C   0  0  0  0  0  0  0  0  0  0  0  0
   43.4921   16.3197   -9.2480 C   0  0  0  0  0  0  0  0  0  0  0  0
   43.9294   16.1624   -8.0266 O   0  0  0  0  0  0  0  0  0  0  0  0
   43.4066   15.2357   -7.1375 C   0  0  0  0  0  0  0  0  0  0  0  0
   43.9453   15.7307   -5.8064 C   0  0  0  0  0  0  0  0  0  0  0  0
   41.9162   15.3132   -7.2450 C   0  0  0  0  0  0  0  0  0  0  0  0
   43.9916   13.9372   -7.4816 N   0  0  0  0  0  0  0  0  0  0  0  0
   44.1574   12.8874   -6.6565 C   0  0  0  0  0  0  0  0  0  0  0  0
   43.8332   12.6617   -5.3599 C   0  0  0  0  0  0  0  0  0  0  0  0
   44.1190   11.4693   -4.7283 C   0  0  0  0  0  0  0  0  0  0  0  0
   44.7573   10.4268   -5.3860 C   0  0  0  0  0  0  0  0  0  0  0  0
   45.0924   10.6417   -6.7040 C   0  0  0  0  0  0  0  0  0  0  0  0
   44.8018   11.8321   -7.3178 C   0  0  0  0  0  0  0  0  0  0  0  0
   45.0306   12.2630   -8.5882 C   0  0  0  0  0  0  0  0  0  0  0  0
   45.6312   11.6636   -9.6793 C   0  0  0  0  0  0  0  0  0  0  0  0
   46.2350   10.3133   -9.8323 C   0  0  0  0  0  0  0  0  0  0  0  0
   46.7130   10.2261  -11.1709 N   0  0  0  0  0  0  0  0  0  0  0  0
   46.4248   11.4495  -11.8456 C   0  0  0  0  0  0  0  0  0  0  0  0
   46.7348   11.6259  -13.0236 O   0  0  0  0  0  0  0  0  0  0  0  0
   45.7564   12.3257  -10.9091 C   0  0  0  0  0  0  0  0  0  0  0  0
   45.2437   13.6081  -10.9651 C   0  0  0  0  0  0  0  0  0  0  0  0
   45.1551   14.5644  -11.9652 C   0  0  0  0  0  0  0  0  0  0  0  0
   45.5591   14.5863  -13.2559 C   0  0  0  0  0  0  0  0  0  0  0  0
   45.3185   15.7329  -14.0325 C   0  0  0  0  0  0  0  0  0  0  0  0
   44.6829   16.8095  -13.4820 C   0  0  0  0  0  0  0  0  0  0  0  0
   44.2599   16.8183  -12.1724 C   0  0  0  0  0  0  0  0  0  0  0  0
   44.5063   15.6854  -11.4326 C   0  0  0  0  0  0  0  0  0  0  0  0
   44.2154   15.4210  -10.1675 N   0  0  0  0  0  0  0  0  0  0  0  0
   44.6432   14.1900   -9.8529 C   0  0  0  0  0  0  0  0  0  0  0  0
   44.5317   13.5210   -8.6459 C   0  0  0  0  0  0  0  0  0  0  0  0
   47.1951    9.3863  -11.5695 H   0  0  0  0  0  0  0  0  0  0  0  0
   39.2825   15.8690   -9.0812 C   0  0  0  0  0  0  0  0  0  0  0  0
   40.1161   14.7512   -8.8547 N   0  0  0  0  0  0  0  0  0  0  0  0
   39.8785   13.9616   -9.4675 H   0  0  0  0  0  0  0  0  0  0  0  0
   41.2245   14.5375   -6.3605 O   0  0  0  0  0  0  0  0  0  0  0  0
   40.4651   15.1247   -5.3922 C   0  0  0  0  0  0  0  0  0  0  0  0
 33 34  1  0  0  0
 34  1  1  0  0  0
  1  2  1  0  0  0
  2  3  1  0  0  0
  3  4  1  0  0  0
  4  5  1  0  0  0
  5  6  1  0  0  0
  5  7  1  0  0  0
  7 36  1  0  0  0
 36 37  1  0  0  0
  5  8  1  0  0  0
  8  9  1  0  0  0
  9 10  2  0  0  0
 10 11  1  0  0  0
 11 12  2  0  0  0
 12 13  1  0  0  0
 13 14  2  0  0  0
 14 15  1  0  0  0
 15 16  2  0  0  0
 16 17  1  0  0  0
 17 18  1  0  0  0
 18 19  1  0  0  0
 19 20  2  0  0  0
 19 21  1  0  0  0
 21 22  2  0  0  0
 22 23  1  0  0  0
 23 24  2  0  0  0
 24 25  1  0  0  0
 25 26  2  0  0  0
 26 27  1  0  0  0
 27 28  2  0  0  0
 28 29  1  0  0  0
 29 30  1  0  0  0
 30 31  2  0  0  0
  7  1  1  0  0  0
 31  8  1  0  0  0
 29  3  1  0  0  0
 14  9  1  0  0  0
 31 15  1  0  0  0
 21 16  1  0  0  0
 30 22  1  0  0  0
 28 23  1  0  0  0
 34 35  1  0  0  0
 18 32  1  0  0  0
M  END
> <minimizedAffinity>
-6.61689

> <CNNscore>
0.1440426558

> <CNNaffinity>
5.1519007683

> <CNN_VS>
0.7420934439

> <CNNaffinity_variance>
0.3537525237

$$$$
[H]c1c([H])c([H])c2c(c1[H])c1c3c(c4c5c([H])c([H])c([H])c([H])c5n5c4c1n2[C@@]1(C([H])([H])[H])O[C@]5([H])C([H])([H])[C@]([H])(N([H])C([H])([H])[H])[C@@]1([H])OC([H])([H])[H])C(=O)N([H])C3([H])[H]


 37 44  0  0  0  0  0  0  0  0999 V2000
   45.9989   11.0679   -9.6995 C   0  0  0  0  0  0  0  0  0  0  0  0
   46.4461   10.7036   -8.2832 C   0  0  0  0  0  0  0  0  0  0  0  0
   46.4788   11.9149   -7.4072 C   0  0  0  0  0  0  0  0  0  0  0  0
   46.7721   13.0720   -7.9391 O   0  0  0  0  0  0  0  0  0  0  0  0
   46.4592   13.4179   -9.2449 C   0  0  0  0  0  0  0  0  0  0  0  0
   47.3486   14.6272   -9.4770 C   0  0  0  0  0  0  0  0  0  0  0  0
   46.8074   12.2459  -10.1074 C   0  0  0  0  0  0  0  0  0  0  0  0
   45.0462   13.8051   -9.2567 N   0  0  0  0  0  0  0  0  0  0  0  0
   44.4471   14.6296  -10.1352 C   0  0  0  0  0  0  0  0  0  0  0  0
   44.8800   15.2903  -11.2367 C   0  0  0  0  0  0  0  0  0  0  0  0
   44.0462   16.0941  -11.9859 C   0  0  0  0  0  0  0  0  0  0  0  0
   42.7103   16.2738  -11.6546 C   0  0  0  0  0  0  0  0  0  0  0  0
   42.2564   15.6084  -10.5380 C   0  0  0  0  0  0  0  0  0  0  0  0
   43.0971   14.8132   -9.8038 C   0  0  0  0  0  0  0  0  0  0  0  0
   42.8760   14.0703   -8.6852 C   0  0  0  0  0  0  0  0  0  0  0  0
   41.7491   13.8689   -7.9105 C   0  0  0  0  0  0  0  0  0  0  0  0
   40.3691   14.4048   -8.0502 C   0  0  0  0  0  0  0  0  0  0  0  0
   39.6106   13.8741   -6.9682 N   0  0  0  0  0  0  0  0  0  0  0  0
   40.4533   13.0352   -6.1801 C   0  0  0  0  0  0  0  0  0  0  0  0
   40.0316   12.4504   -5.1825 O   0  0  0  0  0  0  0  0  0  0  0  0
   41.7706   13.0437   -6.7769 C   0  0  0  0  0  0  0  0  0  0  0  0
   42.9811   12.4449   -6.4826 C   0  0  0  0  0  0  0  0  0  0  0  0
   43.4061   11.5737   -5.4910 C   0  0  0  0  0  0  0  0  0  0  0  0
   42.7799   11.0050   -4.4356 C   0  0  0  0  0  0  0  0  0  0  0  0
   43.5010   10.1442   -3.5902 C   0  0  0  0  0  0  0  0  0  0  0  0
   44.8200    9.8900   -3.8389 C   0  0  0  0  0  0  0  0  0  0  0  0
   45.4853   10.4530   -4.9040 C   0  0  0  0  0  0  0  0  0  0  0  0
   44.7591   11.2915   -5.7169 C   0  0  0  0  0  0  0  0  0  0  0  0
   45.1372   11.9612   -6.7956 N   0  0  0  0  0  0  0  0  0  0  0  0
   44.1018   12.6630   -7.2781 C   0  0  0  0  0  0  0  0  0  0  0  0
   44.0613   13.4841   -8.3922 C   0  0  0  0  0  0  0  0  0  0  0  0
   38.5980   14.0829   -6.8018 H   0  0  0  0  0  0  0  0  0  0  0  0
   47.1835    9.1458  -10.6082 C   0  0  0  0  0  0  0  0  0  0  0  0
   46.0157    9.9388  -10.5525 N   0  0  0  0  0  0  0  0  0  0  0  0
   45.1610    9.3689  -10.5613 H   0  0  0  0  0  0  0  0  0  0  0  0
   46.6617   12.4434  -11.4499 O   0  0  0  0  0  0  0  0  0  0  0  0
   47.7603   12.4539  -12.2575 C   0  0  0  0  0  0  0  0  0  0  0  0
 33 34  1  0  0  0
 34  1  1  0  0  0
  1  2  1  0  0  0
  2  3  1  0  0  0
  3  4  1  0  0  0
  4  5  1  0  0  0
  5  6  1  0  0  0
  5  7  1  0  0  0
  7 36  1  0  0  0
 36 37  1  0  0  0
  5  8  1  0  0  0
  8  9  1  0  0  0
  9 10  2  0  0  0
 10 11  1  0  0  0
 11 12  2  0  0  0
 12 13  1  0  0  0
 13 14  2  0  0  0
 14 15  1  0  0  0
 15 16  2  0  0  0
 16 17  1  0  0  0
 17 18  1  0  0  0
 18 19  1  0  0  0
 19 20  2  0  0  0
 19 21  1  0  0  0
 21 22  2  0  0  0
 22 23  1  0  0  0
 23 24  2  0  0  0
 24 25  1  0  0  0
 25 26  2  0  0  0
 26 27  1  0  0  0
 27 28  2  0  0  0
 28 29  1  0  0  0
 29 30  1  0  0  0
 30 31  2  0  0  0
  7  1  1  0  0  0
 31  8  1  0  0  0
 29  3  1  0  0  0
 14  9  1  0  0  0
 31 15  1  0  0  0
 21 16  1  0  0  0
 30 22  1  0  0  0
 28 23  1  0  0  0
 34 35  1  0  0  0
 18 32  1  0  0  0
M  END
> <minimizedAffinity>
-7.07684

> <CNNscore>
0.1312590688

> <CNNaffinity>
4.8038163185

> <CNN_VS>
0.6305444837

> <CNNaffinity_variance>
0.8475720286

$$$$
[H]c1c([H])c([H])c2c(c1[H])c1c3c(c4c5c([H])c([H])c([H])c([H])c5n5c4c1n2[C@@]1(C([H])([H])[H])O[C@]5([H])C([H])([H])[C@]([H])(N([H])C([H])([H])[H])[C@@]1([H])OC([H])([H])[H])C(=O)N([H])C3([H])[H]


 37 44  0  0  0  0  0  0  0  0999 V2000
   44.3614   16.2191   -8.6917 C   0  0  0  0  0  0  0  0  0  0  0  0
   42.8675   16.2403   -9.0182 C   0  0  0  0  0  0  0  0  0  0  0  0
   42.4454   14.9588   -9.6626 C   0  0  0  0  0  0  0  0  0  0  0  0
   43.2998   14.3188  -10.4165 O   0  0  0  0  0  0  0  0  0  0  0  0
   44.6706   14.3361  -10.2081 C   0  0  0  0  0  0  0  0  0  0  0  0
   45.2019   13.8210  -11.5346 C   0  0  0  0  0  0  0  0  0  0  0  0
   45.0552   15.7531   -9.9201 C   0  0  0  0  0  0  0  0  0  0  0  0
   44.9507   13.3812   -9.1328 N   0  0  0  0  0  0  0  0  0  0  0  0
   46.1082   12.7292   -8.9196 C   0  0  0  0  0  0  0  0  0  0  0  0
   47.3179   12.7552   -9.5304 C   0  0  0  0  0  0  0  0  0  0  0  0
   48.3705   11.9700   -9.1086 C   0  0  0  0  0  0  0  0  0  0  0  0
   48.2523   11.1042   -8.0301 C   0  0  0  0  0  0  0  0  0  0  0  0
   47.0289   11.0674   -7.3995 C   0  0  0  0  0  0  0  0  0  0  0  0
   45.9924   11.8538   -7.8303 C   0  0  0  0  0  0  0  0  0  0  0  0
   44.7183   11.9856   -7.3707 C   0  0  0  0  0  0  0  0  0  0  0  0
   44.0367   11.3779   -6.3330 C   0  0  0  0  0  0  0  0  0  0  0  0
   44.4829   10.3588   -5.3464 C   0  0  0  0  0  0  0  0  0  0  0  0
   43.3670   10.0848   -4.5053 N   0  0  0  0  0  0  0  0  0  0  0  0
   42.2653   10.8897   -4.9215 C   0  0  0  0  0  0  0  0  0  0  0  0
   41.1772   10.8416   -4.3483 O   0  0  0  0  0  0  0  0  0  0  0  0
   42.6970   11.6822   -6.0516 C   0  0  0  0  0  0  0  0  0  0  0  0
   42.1017   12.6238   -6.8699 C   0  0  0  0  0  0  0  0  0  0  0  0
   40.8400   13.1970   -6.9152 C   0  0  0  0  0  0  0  0  0  0  0  0
   39.7232   13.0233   -6.1721 C   0  0  0  0  0  0  0  0  0  0  0  0
   38.5726   13.7718   -6.4745 C   0  0  0  0  0  0  0  0  0  0  0  0
   38.5903   14.6631   -7.5096 C   0  0  0  0  0  0  0  0  0  0  0  0
   39.7104   14.8625   -8.2841 C   0  0  0  0  0  0  0  0  0  0  0  0
   40.8236   14.1191   -7.9691 C   0  0  0  0  0  0  0  0  0  0  0  0
   42.0204   14.1051   -8.5371 N   0  0  0  0  0  0  0  0  0  0  0  0
   42.8091   13.2220   -7.9083 C   0  0  0  0  0  0  0  0  0  0  0  0
   44.1309   12.9059   -8.1723 C   0  0  0  0  0  0  0  0  0  0  0  0
   43.3809    9.3976   -3.7152 H   0  0  0  0  0  0  0  0  0  0  0  0
   44.5846   17.6688   -6.7494 C   0  0  0  0  0  0  0  0  0  0  0  0
   44.7843   17.4475   -8.1303 N   0  0  0  0  0  0  0  0  0  0  0  0
   45.6956   17.7980   -8.4500 H   0  0  0  0  0  0  0  0  0  0  0  0
   46.3945   15.9809   -9.7893 O   0  0  0  0  0  0  0  0  0  0  0  0
   47.0435   16.7562  -10.7041 C   0  0  0  0  0  0  0  0  0  0  0  0
 33 34  1  0  0  0
 34  1  1  0  0  0
  1  2  1  0  0  0
  2  3  1  0  0  0
  3  4  1  0  0  0
  4  5  1  0  0  0
  5  6  1  0  0  0
  5  7  1  0  0  0
  7 36  1  0  0  0
 36 37  1  0  0  0
  5  8  1  0  0  0
  8  9  1  0  0  0
  9 10  2  0  0  0
 10 11  1  0  0  0
 11 12  2  0  0  0
 12 13  1  0  0  0
 13 14  2  0  0  0
 14 15  1  0  0  0
 15 16  2  0  0  0
 16 17  1  0  0  0
 17 18  1  0  0  0
 18 19  1  0  0  0
 19 20  2  0  0  0
 19 21  1  0  0  0
 21 22  2  0  0  0
 22 23  1  0  0  0
 23 24  2  0  0  0
 24 25  1  0  0  0
 25 26  2  0  0  0
 26 27  1  0  0  0
 27 28  2  0  0  0
 28 29  1  0  0  0
 29 30  1  0  0  0
 30 31  2  0  0  0
  7  1  1  0  0  0
 31  8  1  0  0  0
 29  3  1  0  0  0
 14  9  1  0  0  0
 31 15  1  0  0  0
 21 16  1  0  0  0
 30 22  1  0  0  0
 28 23  1  0  0  0
 34 35  1  0  0  0
 18 32  1  0  0  0
M  END
> <minimizedAffinity>
-6.43049

> <CNNscore>
0.1144169420

> <CNNaffinity>
4.9487185478

> <CNN_VS>
0.5662172437

> <CNNaffinity_variance>
0.3670157194

$$$$
[H]c1c([H])c([H])c2c(c1[H])c1c3c(c4c5c([H])c([H])c([H])c([H])c5n5c4c1n2[C@@]1(C([H])([H])[H])O[C@]5([H])C([H])([H])[C@]([H])(N([H])C([H])([H])[H])[C@@]1([H])OC([H])([H])[H])C(=O)N([H])C3([H])[H]


 37 44  0  0  0  0  0  0  0  0999 V2000
   45.2777   15.9264  -10.4858 C   0  0  0  0  0  0  0  0  0  0  0  0
   43.9652   16.4898   -9.9393 C   0  0  0  0  0  0  0  0  0  0  0  0
   42.9180   15.4249   -9.8675 C   0  0  0  0  0  0  0  0  0  0  0  0
   42.9321   14.4637  -10.7528 O   0  0  0  0  0  0  0  0  0  0  0  0
   44.0908   13.9749  -11.3368 C   0  0  0  0  0  0  0  0  0  0  0  0
   43.5488   13.2152  -12.5351 C   0  0  0  0  0  0  0  0  0  0  0  0
   44.9300   15.1567  -11.7082 C   0  0  0  0  0  0  0  0  0  0  0  0
   44.6989   13.0545  -10.3726 N   0  0  0  0  0  0  0  0  0  0  0  0
   45.5231   12.0283  -10.6522 C   0  0  0  0  0  0  0  0  0  0  0  0
   46.0671   11.5570  -11.8008 C   0  0  0  0  0  0  0  0  0  0  0  0
   46.9035   10.4605  -11.8213 C   0  0  0  0  0  0  0  0  0  0  0  0
   47.2385    9.7731  -10.6628 C   0  0  0  0  0  0  0  0  0  0  0  0
   46.6934   10.2408   -9.4882 C   0  0  0  0  0  0  0  0  0  0  0  0
   45.8639   11.3317   -9.4840 C   0  0  0  0  0  0  0  0  0  0  0  0
   45.2219   11.9636   -8.4639 C   0  0  0  0  0  0  0  0  0  0  0  0
   45.1782   11.7248   -7.1031 C   0  0  0  0  0  0  0  0  0  0  0  0
   45.8401   10.6768   -6.2818 C   0  0  0  0  0  0  0  0  0  0  0  0
   45.4401   10.8979   -4.9331 N   0  0  0  0  0  0  0  0  0  0  0  0
   44.5754   12.0316   -4.8870 C   0  0  0  0  0  0  0  0  0  0  0  0
   44.0940   12.4341   -3.8282 O   0  0  0  0  0  0  0  0  0  0  0  0
   44.4249   12.5297   -6.2364 C   0  0  0  0  0  0  0  0  0  0  0  0
   43.7326   13.5730   -6.8218 C   0  0  0  0  0  0  0  0  0  0  0  0
   42.9111   14.5762   -6.3306 C   0  0  0  0  0  0  0  0  0  0  0  0
   42.4777   14.8843   -5.0869 C   0  0  0  0  0  0  0  0  0  0  0  0
   41.6304   15.9913   -4.9084 C   0  0  0  0  0  0  0  0  0  0  0  0
   41.2531   16.7431   -5.9848 C   0  0  0  0  0  0  0  0  0  0  0  0
   41.6767   16.4556   -7.2623 C   0  0  0  0  0  0  0  0  0  0  0  0
   42.5050   15.3681   -7.4120 C   0  0  0  0  0  0  0  0  0  0  0  0
   43.0547   14.8675   -8.5086 N   0  0  0  0  0  0  0  0  0  0  0  0
   43.7926   13.7932   -8.1945 C   0  0  0  0  0  0  0  0  0  0  0  0
   44.5400   12.9853   -9.0346 C   0  0  0  0  0  0  0  0  0  0  0  0
   45.7469   10.3074   -4.1245 H   0  0  0  0  0  0  0  0  0  0  0  0
   46.7166   17.5888   -9.4419 C   0  0  0  0  0  0  0  0  0  0  0  0
   46.2611   16.9366  -10.6093 N   0  0  0  0  0  0  0  0  0  0  0  0
   47.0264   16.7415  -11.2664 H   0  0  0  0  0  0  0  0  0  0  0  0
   46.0740   14.8695  -12.3947 O   0  0  0  0  0  0  0  0  0  0  0  0
   46.2019   15.2608  -13.6946 C   0  0  0  0  0  0  0  0  0  0  0  0
 33 34  1  0  0  0
 34  1  1  0  0  0
  1  2  1  0  0  0
  2  3  1  0  0  0
  3  4  1  0  0  0
  4  5  1  0  0  0
  5  6  1  0  0  0
  5  7  1  0  0  0
  7 36  1  0  0  0
 36 37  1  0  0  0
  5  8  1  0  0  0
  8  9  1  0  0  0
  9 10  2  0  0  0
 10 11  1  0  0  0
 11 12  2  0  0  0
 12 13  1  0  0  0
 13 14  2  0  0  0
 14 15  1  0  0  0
 15 16  2  0  0  0
 16 17  1  0  0  0
 17 18  1  0  0  0
 18 19  1  0  0  0
 19 20  2  0  0  0
 19 21  1  0  0  0
 21 22  2  0  0  0
 22 23  1  0  0  0
 23 24  2  0  0  0
 24 25  1  0  0  0
 25 26  2  0  0  0
 26 27  1  0  0  0
 27 28  2  0  0  0
 28 29  1  0  0  0
 29 30  1  0  0  0
 30 31  2  0  0  0
  7  1  1  0  0  0
 31  8  1  0  0  0
 29  3  1  0  0  0
 14  9  1  0  0  0
 31 15  1  0  0  0
 21 16  1  0  0  0
 30 22  1  0  0  0
 28 23  1  0  0  0
 34 35  1  0  0  0
 18 32  1  0  0  0
M  END
> <minimizedAffinity>
-5.78121

> <CNNscore>
0.1087999493

> <CNNaffinity>
4.9638223648

> <CNN_VS>
0.5400636196

> <CNNaffinity_variance>
0.2363468111

$$$$
[H]c1c([H])c([H])c2c(c1[H])c1c3c(c4c5c([H])c([H])c([H])c([H])c5n5c4c1n2[C@@]1(C([H])([H])[H])O[C@]5([H])C([H])([H])[C@]([H])(N([H])C([H])([H])[H])[C@@]1([H])OC([H])([H])[H])C(=O)N([H])C3([H])[H]


 37 44  0  0  0  0  0  0  0  0999 V2000
   45.7303   17.3041  -10.1719 C   0  0  0  0  0  0  0  0  0  0  0  0
   44.8674   17.3278   -8.9096 C   0  0  0  0  0  0  0  0  0  0  0  0
   43.6597   16.4616   -9.0742 C   0  0  0  0  0  0  0  0  0  0  0  0
   43.1288   16.3364  -10.2617 O   0  0  0  0  0  0  0  0  0  0  0  0
   43.8596   16.3896  -11.4388 C   0  0  0  0  0  0  0  0  0  0  0  0
   42.7748   16.6099  -12.4789 C   0  0  0  0  0  0  0  0  0  0  0  0
   44.8113   17.5377  -11.3157 C   0  0  0  0  0  0  0  0  0  0  0  0
   44.4841   15.0757  -11.6130 N   0  0  0  0  0  0  0  0  0  0  0  0
   44.8693   14.5176  -12.7752 C   0  0  0  0  0  0  0  0  0  0  0  0
   44.8622   14.9456  -14.0612 C   0  0  0  0  0  0  0  0  0  0  0  0
   45.3247   14.1627  -15.0983 C   0  0  0  0  0  0  0  0  0  0  0  0
   45.8266   12.8863  -14.8848 C   0  0  0  0  0  0  0  0  0  0  0  0
   45.8403   12.4382  -13.5830 C   0  0  0  0  0  0  0  0  0  0  0  0
   45.3772   13.2280  -12.5632 C   0  0  0  0  0  0  0  0  0  0  0  0
   45.2957   13.0029  -11.2236 C   0  0  0  0  0  0  0  0  0  0  0  0
   45.6388   11.9166  -10.4407 C   0  0  0  0  0  0  0  0  0  0  0  0
   46.2316   10.6042  -10.8112 C   0  0  0  0  0  0  0  0  0  0  0  0
   46.3689    9.8600   -9.6050 N   0  0  0  0  0  0  0  0  0  0  0  0
   45.8988   10.6528   -8.5162 C   0  0  0  0  0  0  0  0  0  0  0  0
   45.9152   10.2349   -7.3586 O   0  0  0  0  0  0  0  0  0  0  0  0
   45.4518   11.9200   -9.0509 C   0  0  0  0  0  0  0  0  0  0  0  0
   44.9074   13.0709   -8.5126 C   0  0  0  0  0  0  0  0  0  0  0  0
   44.5879   13.4708   -7.2240 C   0  0  0  0  0  0  0  0  0  0  0  0
   44.6835   12.8605   -6.0207 C   0  0  0  0  0  0  0  0  0  0  0  0
   44.2655   13.5456   -4.8669 C   0  0  0  0  0  0  0  0  0  0  0  0
   43.7692   14.8143   -4.9683 C   0  0  0  0  0  0  0  0  0  0  0  0
   43.6591   15.4623   -6.1774 C   0  0  0  0  0  0  0  0  0  0  0  0
   44.0744   14.7719   -7.2919 C   0  0  0  0  0  0  0  0  0  0  0  0
   44.0817   15.1435   -8.5636 N   0  0  0  0  0  0  0  0  0  0  0  0
   44.5704   14.1517   -9.3217 C   0  0  0  0  0  0  0  0  0  0  0  0
   44.7600   14.1281  -10.6930 C   0  0  0  0  0  0  0  0  0  0  0  0
   46.7561    8.8883   -9.5545 H   0  0  0  0  0  0  0  0  0  0  0  0
   47.6783   18.0397   -8.9116 C   0  0  0  0  0  0  0  0  0  0  0  0
   46.8488   18.1625  -10.0485 N   0  0  0  0  0  0  0  0  0  0  0  0
   47.3906   18.3215  -10.9068 H   0  0  0  0  0  0  0  0  0  0  0  0
   45.5484   17.8090  -12.4318 O   0  0  0  0  0  0  0  0  0  0  0  0
   45.3475   18.9740  -13.1112 C   0  0  0  0  0  0  0  0  0  0  0  0
 33 34  1  0  0  0
 34  1  1  0  0  0
  1  2  1  0  0  0
  2  3  1  0  0  0
  3  4  1  0  0  0
  4  5  1  0  0  0
  5  6  1  0  0  0
  5  7  1  0  0  0
  7 36  1  0  0  0
 36 37  1  0  0  0
  5  8  1  0  0  0
  8  9  1  0  0  0
  9 10  2  0  0  0
 10 11  1  0  0  0
 11 12  2  0  0  0
 12 13  1  0  0  0
 13 14  2  0  0  0
 14 15  1  0  0  0
 15 16  2  0  0  0
 16 17  1  0  0  0
 17 18  1  0  0  0
 18 19  1  0  0  0
 19 20  2  0  0  0
 19 21  1  0  0  0
 21 22  2  0  0  0
 22 23  1  0  0  0
 23 24  2  0  0  0
 24 25  1  0  0  0
 25 26  2  0  0  0
 26 27  1  0  0  0
 27 28  2  0  0  0
 28 29  1  0  0  0
 29 30  1  0  0  0
 30 31  2  0  0  0
  7  1  1  0  0  0
 31  8  1  0  0  0
 29  3  1  0  0  0
 14  9  1  0  0  0
 31 15  1  0  0  0
 21 16  1  0  0  0
 30 22  1  0  0  0
 28 23  1  0  0  0
 34 35  1  0  0  0
 18 32  1  0  0  0
M  END
> <minimizedAffinity>
-6.12990

> <CNNscore>
0.1069227383

> <CNNaffinity>
5.0177183151

> <CNN_VS>
0.5365082026

> <CNNaffinity_variance>
0.2733694017

$$$$
[H]c1c([H])c([H])c2c(c1[H])c1c3c(c4c5c([H])c([H])c([H])c([H])c5n5c4c1n2[C@@]1(C([H])([H])[H])O[C@]5([H])C([H])([H])[C@]([H])(N([H])C([H])([H])[H])[C@@]1([H])OC([H])([H])[H])C(=O)N([H])C3([H])[H]


 37 44  0  0  0  0  0  0  0  0999 V2000
   45.2651   17.9659  -12.9691 C   0  0  0  0  0  0  0  0  0  0  0  0
   44.0422   17.2046  -13.4823 C   0  0  0  0  0  0  0  0  0  0  0  0
   44.0101   15.8152  -12.9307 C   0  0  0  0  0  0  0  0  0  0  0  0
   45.1400   15.2060  -12.6857 O   0  0  0  0  0  0  0  0  0  0  0  0
   46.2975   15.8628  -12.2965 C   0  0  0  0  0  0  0  0  0  0  0  0
   47.3626   14.8095  -12.5479 C   0  0  0  0  0  0  0  0  0  0  0  0
   46.4340   17.0707  -13.1690 C   0  0  0  0  0  0  0  0  0  0  0  0
   46.1704   16.1380  -10.8631 N   0  0  0  0  0  0  0  0  0  0  0  0
   47.1764   16.3119   -9.9867 C   0  0  0  0  0  0  0  0  0  0  0  0
   48.5258   16.3394  -10.1114 C   0  0  0  0  0  0  0  0  0  0  0  0
   49.3592   16.5403   -9.0309 C   0  0  0  0  0  0  0  0  0  0  0  0
   48.8631   16.7270   -7.7481 C   0  0  0  0  0  0  0  0  0  0  0  0
   47.4938   16.7018   -7.6062 C   0  0  0  0  0  0  0  0  0  0  0  0
   46.6788   16.5011   -8.6895 C   0  0  0  0  0  0  0  0  0  0  0  0
   45.3230   16.4402   -8.7900 C   0  0  0  0  0  0  0  0  0  0  0  0
   44.3151   16.5502   -7.8505 C   0  0  0  0  0  0  0  0  0  0  0  0
   44.3797   16.7845   -6.3835 C   0  0  0  0  0  0  0  0  0  0  0  0
   43.0367   16.8016   -5.9105 N   0  0  0  0  0  0  0  0  0  0  0  0
   42.1551   16.5987   -7.0135 C   0  0  0  0  0  0  0  0  0  0  0  0
   40.9331   16.5756   -6.8680 O   0  0  0  0  0  0  0  0  0  0  0  0
   42.9621   16.4454   -8.2038 C   0  0  0  0  0  0  0  0  0  0  0  0
   42.6976   16.2279   -9.5430 C   0  0  0  0  0  0  0  0  0  0  0  0
   41.5326   16.0859  -10.2814 C   0  0  0  0  0  0  0  0  0  0  0  0
   40.2227   16.0951   -9.9445 C   0  0  0  0  0  0  0  0  0  0  0  0
   39.2534   15.9199  -10.9471 C   0  0  0  0  0  0  0  0  0  0  0  0
   39.6386   15.7428  -12.2457 C   0  0  0  0  0  0  0  0  0  0  0  0
   40.9627   15.7284  -12.6205 C   0  0  0  0  0  0  0  0  0  0  0  0
   41.8926   15.9019  -11.6222 C   0  0  0  0  0  0  0  0  0  0  0  0
   43.2152   15.9304  -11.6933 N   0  0  0  0  0  0  0  0  0  0  0  0
   43.7298   16.1209  -10.4701 C   0  0  0  0  0  0  0  0  0  0  0  0
   45.0602   16.2242  -10.1011 C   0  0  0  0  0  0  0  0  0  0  0  0
   42.7681   16.9427   -4.9082 H   0  0  0  0  0  0  0  0  0  0  0  0
   44.2079   20.1095  -13.4283 C   0  0  0  0  0  0  0  0  0  0  0  0
   45.3359   19.2647  -13.5267 N   0  0  0  0  0  0  0  0  0  0  0  0
   46.2146   19.7738  -13.3711 H   0  0  0  0  0  0  0  0  0  0  0  0
   47.5810   17.7900  -12.9973 O   0  0  0  0  0  0  0  0  0  0  0  0
   48.4773   17.8926  -14.0198 C   0  0  0  0  0  0  0  0  0  0  0  0
 33 34  1  0  0  0
 34  1  1  0  0  0
  1  2  1  0  0  0
  2  3  1  0  0  0
  3  4  1  0  0  0
  4  5  1  0  0  0
  5  6  1  0  0  0
  5  7  1  0  0  0
  7 36  1  0  0  0
 36 37  1  0  0  0
  5  8  1  0  0  0
  8  9  1  0  0  0
  9 10  2  0  0  0
 10 11  1  0  0  0
 11 12  2  0  0  0
 12 13  1  0  0  0
 13 14  2  0  0  0
 14 15  1  0  0  0
 15 16  2  0  0  0
 16 17  1  0  0  0
 17 18  1  0  0  0
 18 19  1  0  0  0
 19 20  2  0  0  0
 19 21  1  0  0  0
 21 22  2  0  0  0
 22 23  1  0  0  0
 23 24  2  0  0  0
 24 25  1  0  0  0
 25 26  2  0  0  0
 26 27  1  0  0  0
 27 28  2  0  0  0
 28 29  1  0  0  0
 29 30  1  0  0  0
 30 31  2  0  0  0
  7  1  1  0  0  0
 31  8  1  0  0  0
 29  3  1  0  0  0
 14  9  1  0  0  0
 31 15  1  0  0  0
 21 16  1  0  0  0
 30 22  1  0  0  0
 28 23  1  0  0  0
 34 35  1  0  0  0
 18 32  1  0  0  0
M  END
> <minimizedAffinity>
-5.93155

> <CNNscore>
0.1052276045

> <CNNaffinity>
5.0834593773

> <CNN_VS>
0.5349202752

> <CNNaffinity_variance>
0.3342590928

$$$$
[H]c1nc(N([H])c2c([H])c([H])c(N3C([H])([H])C([H])([H])C([H])(N4C([H])([H])C([H])([H])N(C([H])([H])[H])C([H])([H])C4([H])[H])C([H])([H])C3([H])[H])c([H])c2OC([H])([H])[H])nc(N([H])c2c([H])c([H])c([H])c([H])c2S(=O)(=O)C([H])(C([H])([H])[H])C([H])([H])[H])c1Cl


 44 48  0  0  0  0  0  0  0  0999 V2000
   34.2723   14.7094  -13.6459 N   0  0  0  0  0  0  0  0  0  0  0  0
   33.4582   15.3465  -13.9660 H   0  0  0  0  0  0  0  0  0  0  0  0
   34.5159   13.5585  -14.4413 C   0  0  0  0  0  0  0  0  0  0  0  0
   33.6022   12.8621  -15.1221 N   0  0  0  0  0  0  0  0  0  0  0  0
   33.9017   11.7833  -15.8561 C   0  0  0  0  0  0  0  0  0  0  0  0
   35.2035   11.3467  -15.9326 C   0  0  0  0  0  0  0  0  0  0  0  0
   35.6163    9.9299  -16.8933 Cl  0  0  0  0  0  0  0  0  0  0  0  0
   36.1880   12.0648  -15.2227 C   0  0  0  0  0  0  0  0  0  0  0  0
   35.7893   13.1267  -14.5196 N   0  0  0  0  0  0  0  0  0  0  0  0
   37.5085   11.5998  -15.3191 N   0  0  0  0  0  0  0  0  0  0  0  0
   37.8218   10.9823  -14.4996 H   0  0  0  0  0  0  0  0  0  0  0  0
   38.4965   11.7960  -16.2958 C   0  0  0  0  0  0  0  0  0  0  0  0
   38.4570   11.0764  -17.4713 C   0  0  0  0  0  0  0  0  0  0  0  0
   39.4370   11.2594  -18.4555 C   0  0  0  0  0  0  0  0  0  0  0  0
   40.4347   12.1612  -18.2365 C   0  0  0  0  0  0  0  0  0  0  0  0
   40.4713   12.8782  -17.0620 C   0  0  0  0  0  0  0  0  0  0  0  0
   39.5259   12.7194  -16.0827 C   0  0  0  0  0  0  0  0  0  0  0  0
   39.5851   13.6212  -14.6255 S   0  0  0  0  0  0  0  0  0  0  0  0
   38.7670   12.9326  -13.5622 O   0  0  0  0  0  0  0  0  0  0  0  0
   39.0906   15.0359  -14.7422 O   0  0  0  0  0  0  0  0  0  0  0  0
   41.2356   13.7406  -13.9622 C   0  0  0  0  0  0  0  0  0  0  0  0
   42.2464   13.2904  -14.9664 C   0  0  0  0  0  0  0  0  0  0  0  0
   41.5209   15.0520  -13.3098 C   0  0  0  0  0  0  0  0  0  0  0  0
   34.1775   15.3806  -11.3410 C   0  0  0  0  0  0  0  0  0  0  0  0
   34.7643   15.8055  -10.1631 C   0  0  0  0  0  0  0  0  0  0  0  0
   36.1222   16.0106  -10.0606 C   0  0  0  0  0  0  0  0  0  0  0  0
   36.8608   15.7693  -11.1935 C   0  0  0  0  0  0  0  0  0  0  0  0
   36.2996   15.3394  -12.4000 C   0  0  0  0  0  0  0  0  0  0  0  0
   34.9458   15.1369  -12.4961 C   0  0  0  0  0  0  0  0  0  0  0  0
   36.7155   16.4431   -8.8333 N   0  0  0  0  0  0  0  0  0  0  0  0
   35.9625   16.3083   -7.6337 C   0  0  0  0  0  0  0  0  0  0  0  0
   36.7366   16.4386   -6.3520 C   0  0  0  0  0  0  0  0  0  0  0  0
   37.7381   17.5440   -6.3459 C   0  0  0  0  0  0  0  0  0  0  0  0
   38.0491   18.0689   -7.7333 C   0  0  0  0  0  0  0  0  0  0  0  0
   38.0413   17.0113   -8.7843 C   0  0  0  0  0  0  0  0  0  0  0  0
   38.9457   17.3247   -5.6550 N   0  0  0  0  0  0  0  0  0  0  0  0
   39.2981   16.0204   -5.2758 C   0  0  0  0  0  0  0  0  0  0  0  0
   40.4145   16.0740   -4.2291 C   0  0  0  0  0  0  0  0  0  0  0  0
   41.3938   17.0451   -4.6769 N   0  0  0  0  0  0  0  0  0  0  0  0
   42.1642   16.6248   -5.8034 C   0  0  0  0  0  0  0  0  0  0  0  0
   40.8822   18.3761   -4.7395 C   0  0  0  0  0  0  0  0  0  0  0  0
   39.3559   18.3233   -4.7207 C   0  0  0  0  0  0  0  0  0  0  0  0
   32.0015   15.8692  -10.4331 C   0  0  0  0  0  0  0  0  0  0  0  0
   32.8042   15.1941  -11.3744 O   0  0  0  0  0  0  0  0  0  0  0  0
 43 44  1  0  0  0
 44 24  1  0  0  0
 24 25  2  0  0  0
 25 26  1  0  0  0
 26 27  2  0  0  0
 27 28  1  0  0  0
 28 29  2  0  0  0
 29  1  1  0  0  0
  1  3  1  0  0  0
  3  4  2  0  0  0
  4  5  1  0  0  0
  5  6  2  0  0  0
  6  7  1  0  0  0
  6  8  1  0  0  0
  8 10  1  0  0  0
 10 12  1  0  0  0
 12 13  2  0  0  0
 13 14  1  0  0  0
 14 15  2  0  0  0
 15 16  1  0  0  0
 16 17  2  0  0  0
 17 18  1  0  0  0
 18 19  2  0  0  0
 18 20  2  0  0  0
 18 21  1  0  0  0
 21 22  1  0  0  0
 21 23  1  0  0  0
  8  9  2  0  0  0
 26 30  1  0  0  0
 30 31  1  0  0  0
 31 32  1  0  0  0
 32 33  1  0  0  0
 33 34  1  0  0  0
 34 35  1  0  0  0
 33 36  1  0  0  0
 36 37  1  0  0  0
 37 38  1  0  0  0
 38 39  1  0  0  0
 39 40  1  0  0  0
 39 41  1  0  0  0
 41 42  1  0  0  0
 29 24  1  0  0  0
  9  3  1  0  0  0
 35 30  1  0  0  0
 42 36  1  0  0  0
 17 12  1  0  0  0
  1  2  1  0  0  0
 10 11  1  0  0  0
M  END
> <minimizedAffinity>
-8.79163

> <CNNscore>
0.3268491030

> <CNNaffinity>
7.5633416176

> <CNN_VS>
2.4720714092

> <CNNaffinity_variance>
0.2782112062

$$$$
[H]c1nc(N([H])c2c([H])c([H])c(N3C([H])([H])C([H])([H])C([H])(N4C([H])([H])C([H])([H])N(C([H])([H])[H])C([H])([H])C4([H])[H])C([H])([H])C3([H])[H])c([H])c2OC([H])([H])[H])nc(N([H])c2c([H])c([H])c([H])c([H])c2S(=O)(=O)C([H])(C([H])([H])[H])C([H])([H])[H])c1Cl


 44 48  0  0  0  0  0  0  0  0999 V2000
   33.9668   14.2228  -13.6945 N   0  0  0  0  0  0  0  0  0  0  0  0
   33.1768   14.8732  -14.0466 H   0  0  0  0  0  0  0  0  0  0  0  0
   34.3169   13.1445  -14.5496 C   0  0  0  0  0  0  0  0  0  0  0  0
   33.4794   12.4411  -15.3158 N   0  0  0  0  0  0  0  0  0  0  0  0
   33.8782   11.4338  -16.1025 C   0  0  0  0  0  0  0  0  0  0  0  0
   35.2072   11.0830  -16.1455 C   0  0  0  0  0  0  0  0  0  0  0  0
   35.7501    9.7612  -17.1744 Cl  0  0  0  0  0  0  0  0  0  0  0  0
   36.1126   11.8105  -15.3456 C   0  0  0  0  0  0  0  0  0  0  0  0
   35.6174   12.7969  -14.5954 N   0  0  0  0  0  0  0  0  0  0  0  0
   37.4629   11.4338  -15.4093 N   0  0  0  0  0  0  0  0  0  0  0  0
   37.7672   10.7444  -14.6456 H   0  0  0  0  0  0  0  0  0  0  0  0
   38.4905   11.7958  -16.2933 C   0  0  0  0  0  0  0  0  0  0  0  0
   38.6627   11.1019  -17.4723 C   0  0  0  0  0  0  0  0  0  0  0  0
   39.6850   11.4498  -18.3646 C   0  0  0  0  0  0  0  0  0  0  0  0
   40.5115   12.4872  -18.0523 C   0  0  0  0  0  0  0  0  0  0  0  0
   40.3370   13.1782  -16.8746 C   0  0  0  0  0  0  0  0  0  0  0  0
   39.3455   12.8594  -15.9840 C   0  0  0  0  0  0  0  0  0  0  0  0
   39.1406   13.7309  -14.5216 S   0  0  0  0  0  0  0  0  0  0  0  0
   38.8245   12.7780  -13.3962 O   0  0  0  0  0  0  0  0  0  0  0  0
   38.0590   14.7740  -14.5586 O   0  0  0  0  0  0  0  0  0  0  0  0
   40.6218   14.5896  -14.0245 C   0  0  0  0  0  0  0  0  0  0  0  0
   40.3404   15.5250  -12.8939 C   0  0  0  0  0  0  0  0  0  0  0  0
   41.7958   13.6885  -13.8333 C   0  0  0  0  0  0  0  0  0  0  0  0
   33.7219   15.3568  -11.5906 C   0  0  0  0  0  0  0  0  0  0  0  0
   34.1809   15.7379  -10.3431 C   0  0  0  0  0  0  0  0  0  0  0  0
   35.4221   15.3624   -9.8797 C   0  0  0  0  0  0  0  0  0  0  0  0
   36.1784   14.5883  -10.7258 C   0  0  0  0  0  0  0  0  0  0  0  0
   35.7451   14.1857  -11.9929 C   0  0  0  0  0  0  0  0  0  0  0  0
   34.5072   14.5631  -12.4493 C   0  0  0  0  0  0  0  0  0  0  0  0
   35.8800   15.7582   -8.5839 N   0  0  0  0  0  0  0  0  0  0  0  0
   35.5144   17.0458   -8.1015 C   0  0  0  0  0  0  0  0  0  0  0  0
   35.7096   17.2775   -6.6294 C   0  0  0  0  0  0  0  0  0  0  0  0
   36.9910   16.7417   -6.0852 C   0  0  0  0  0  0  0  0  0  0  0  0
   37.6616   15.7515   -7.0162 C   0  0  0  0  0  0  0  0  0  0  0  0
   36.6987   14.8953   -7.7665 C   0  0  0  0  0  0  0  0  0  0  0  0
   36.9724   16.2085   -4.7817 N   0  0  0  0  0  0  0  0  0  0  0  0
   36.1177   16.7665   -3.8188 C   0  0  0  0  0  0  0  0  0  0  0  0
   36.5424   16.3001   -2.4234 C   0  0  0  0  0  0  0  0  0  0  0  0
   36.8089   14.8766   -2.4953 N   0  0  0  0  0  0  0  0  0  0  0  0
   35.6423   14.0687   -2.6551 C   0  0  0  0  0  0  0  0  0  0  0  0
   37.9086   14.5498   -3.3445 C   0  0  0  0  0  0  0  0  0  0  0  0
   38.2121   15.7440   -4.2468 C   0  0  0  0  0  0  0  0  0  0  0  0
   31.3294   15.2350  -11.3484 C   0  0  0  0  0  0  0  0  0  0  0  0
   32.4618   15.7702  -11.9944 O   0  0  0  0  0  0  0  0  0  0  0  0
 43 44  1  0  0  0
 44 24  1  0  0  0
 24 25  2  0  0  0
 25 26  1  0  0  0
 26 27  2  0  0  0
 27 28  1  0  0  0
 28 29  2  0  0  0
 29  1  1  0  0  0
  1  3  1  0  0  0
  3  4  2  0  0  0
  4  5  1  0  0  0
  5  6  2  0  0  0
  6  7  1  0  0  0
  6  8  1  0  0  0
  8 10  1  0  0  0
 10 12  1  0  0  0
 12 13  2  0  0  0
 13 14  1  0  0  0
 14 15  2  0  0  0
 15 16  1  0  0  0
 16 17  2  0  0  0
 17 18  1  0  0  0
 18 19  2  0  0  0
 18 20  2  0  0  0
 18 21  1  0  0  0
 21 22  1  0  0  0
 21 23  1  0  0  0
  8  9  2  0  0  0
 26 30  1  0  0  0
 30 31  1  0  0  0
 31 32  1  0  0  0
 32 33  1  0  0  0
 33 34  1  0  0  0
 34 35  1  0  0  0
 33 36  1  0  0  0
 36 37  1  0  0  0
 37 38  1  0  0  0
 38 39  1  0  0  0
 39 40  1  0  0  0
 39 41  1  0  0  0
 41 42  1  0  0  0
 29 24  1  0  0  0
  9  3  1  0  0  0
 35 30  1  0  0  0
 42 36  1  0  0  0
 17 12  1  0  0  0
  1  2  1  0  0  0
 10 11  1  0  0  0
M  END
> <minimizedAffinity>
-8.79259

> <CNNscore>
0.2879383564

> <CNNaffinity>
7.4586319923

> <CNN_VS>
2.1476261616

> <CNNaffinity_variance>
0.1995829791

$$$$
[H]c1nc(N([H])c2c([H])c([H])c(N3C([H])([H])C([H])([H])C([H])(N4C([H])([H])C([H])([H])N(C([H])([H])[H])C([H])([H])C4([H])[H])C([H])([H])C3([H])[H])c([H])c2OC([H])([H])[H])nc(N([H])c2c([H])c([H])c([H])c([H])c2S(=O)(=O)C([H])(C([H])([H])[H])C([H])([H])[H])c1Cl


 44 48  0  0  0  0  0  0  0  0999 V2000
   34.1341   14.9393  -13.8405 N   0  0  0  0  0  0  0  0  0  0  0  0
   34.2674   15.8298  -14.4409 H   0  0  0  0  0  0  0  0  0  0  0  0
   34.3319   13.7007  -14.5062 C   0  0  0  0  0  0  0  0  0  0  0  0
   33.3839   12.9480  -15.0702 N   0  0  0  0  0  0  0  0  0  0  0  0
   33.6409   11.7869  -15.6853 C   0  0  0  0  0  0  0  0  0  0  0  0
   34.9326   11.3205  -15.7563 C   0  0  0  0  0  0  0  0  0  0  0  0
   35.2896    9.7957  -16.5615 Cl  0  0  0  0  0  0  0  0  0  0  0  0
   35.9526   12.0969  -15.1684 C   0  0  0  0  0  0  0  0  0  0  0  0
   35.5952   13.2394  -14.5786 N   0  0  0  0  0  0  0  0  0  0  0  0
   37.2619   11.5996  -15.2566 N   0  0  0  0  0  0  0  0  0  0  0  0
   37.5314   10.9193  -14.4720 H   0  0  0  0  0  0  0  0  0  0  0  0
   38.2857   11.8310  -16.1876 C   0  0  0  0  0  0  0  0  0  0  0  0
   38.3421   11.0905  -17.3494 C   0  0  0  0  0  0  0  0  0  0  0  0
   39.3590   11.3082  -18.2880 C   0  0  0  0  0  0  0  0  0  0  0  0
   40.2965   12.2649  -18.0383 C   0  0  0  0  0  0  0  0  0  0  0  0
   40.2375   13.0027  -16.8776 C   0  0  0  0  0  0  0  0  0  0  0  0
   39.2541   12.8108  -15.9427 C   0  0  0  0  0  0  0  0  0  0  0  0
   39.1940   13.7392  -14.5023 S   0  0  0  0  0  0  0  0  0  0  0  0
   38.8447   12.8519  -13.3340 O   0  0  0  0  0  0  0  0  0  0  0  0
   38.2095   14.8747  -14.5278 O   0  0  0  0  0  0  0  0  0  0  0  0
   40.7669   14.4738  -14.0965 C   0  0  0  0  0  0  0  0  0  0  0  0
   40.6411   15.3827  -12.9172 C   0  0  0  0  0  0  0  0  0  0  0  0
   41.8842   13.4869  -14.0283 C   0  0  0  0  0  0  0  0  0  0  0  0
   34.8338   15.3984  -11.5884 C   0  0  0  0  0  0  0  0  0  0  0  0
   34.5789   15.6334  -10.2497 C   0  0  0  0  0  0  0  0  0  0  0  0
   33.2970   15.6548   -9.7470 C   0  0  0  0  0  0  0  0  0  0  0  0
   32.2861   15.4300  -10.6496 C   0  0  0  0  0  0  0  0  0  0  0  0
   32.5087   15.1892  -12.0090 C   0  0  0  0  0  0  0  0  0  0  0  0
   33.7884   15.1689  -12.5040 C   0  0  0  0  0  0  0  0  0  0  0  0
   33.0489   15.9066   -8.3612 N   0  0  0  0  0  0  0  0  0  0  0  0
   32.0384   15.1486   -7.7064 C   0  0  0  0  0  0  0  0  0  0  0  0
   32.0532   15.1901   -6.2042 C   0  0  0  0  0  0  0  0  0  0  0  0
   32.2987   16.5435   -5.6269 C   0  0  0  0  0  0  0  0  0  0  0  0
   32.8557   17.5262   -6.6374 C   0  0  0  0  0  0  0  0  0  0  0  0
   33.7861   16.9029   -7.6218 C   0  0  0  0  0  0  0  0  0  0  0  0
   33.0593   16.6186   -4.4439 N   0  0  0  0  0  0  0  0  0  0  0  0
   33.6144   15.4485   -3.9036 C   0  0  0  0  0  0  0  0  0  0  0  0
   34.0480   15.7062   -2.4577 C   0  0  0  0  0  0  0  0  0  0  0  0
   34.7370   16.9815   -2.4235 N   0  0  0  0  0  0  0  0  0  0  0  0
   36.0234   16.9701   -3.0435 C   0  0  0  0  0  0  0  0  0  0  0  0
   33.8982   18.0863   -2.7599 C   0  0  0  0  0  0  0  0  0  0  0  0
   32.6440   17.5638   -3.4576 C   0  0  0  0  0  0  0  0  0  0  0  0
   37.1849   15.3212  -11.0746 C   0  0  0  0  0  0  0  0  0  0  0  0
   36.1487   15.3907  -12.0273 O   0  0  0  0  0  0  0  0  0  0  0  0
 43 44  1  0  0  0
 44 24  1  0  0  0
 24 25  2  0  0  0
 25 26  1  0  0  0
 26 27  2  0  0  0
 27 28  1  0  0  0
 28 29  2  0  0  0
 29  1  1  0  0  0
  1  3  1  0  0  0
  3  4  2  0  0  0
  4  5  1  0  0  0
  5  6  2  0  0  0
  6  7  1  0  0  0
  6  8  1  0  0  0
  8 10  1  0  0  0
 10 12  1  0  0  0
 12 13  2  0  0  0
 13 14  1  0  0  0
 14 15  2  0  0  0
 15 16  1  0  0  0
 16 17  2  0  0  0
 17 18  1  0  0  0
 18 19  2  0  0  0
 18 20  2  0  0  0
 18 21  1  0  0  0
 21 22  1  0  0  0
 21 23  1  0  0  0
  8  9  2  0  0  0
 26 30  1  0  0  0
 30 31  1  0  0  0
 31 32  1  0  0  0
 32 33  1  0  0  0
 33 34  1  0  0  0
 34 35  1  0  0  0
 33 36  1  0  0  0
 36 37  1  0  0  0
 37 38  1  0  0  0
 38 39  1  0  0  0
 39 40  1  0  0  0
 39 41  1  0  0  0
 41 42  1  0  0  0
 29 24  1  0  0  0
  9  3  1  0  0  0
 35 30  1  0  0  0
 42 36  1  0  0  0
 17 12  1  0  0  0
  1  2  1  0  0  0
 10 11  1  0  0  0
M  END
> <minimizedAffinity>
-8.51894

> <CNNscore>
0.2862206101

> <CNNaffinity>
7.2870736122

> <CNN_VS>
2.0857107639

> <CNNaffinity_variance>
0.1007100344

$$$$
[H]c1nc(N([H])c2c([H])c([H])c(N3C([H])([H])C([H])([H])C([H])(N4C([H])([H])C([H])([H])N(C([H])([H])[H])C([H])([H])C4([H])[H])C([H])([H])C3([H])[H])c([H])c2OC([H])([H])[H])nc(N([H])c2c([H])c([H])c([H])c([H])c2S(=O)(=O)C([H])(C([H])([H])[H])C([H])([H])[H])c1Cl


 44 48  0  0  0  0  0  0  0  0999 V2000
   34.2872   14.9320  -13.4951 N   0  0  0  0  0  0  0  0  0  0  0  0
   33.9951   15.8226  -14.0361 H   0  0  0  0  0  0  0  0  0  0  0  0
   34.4501   13.7540  -14.2712 C   0  0  0  0  0  0  0  0  0  0  0  0
   33.4835   13.0907  -14.9109 N   0  0  0  0  0  0  0  0  0  0  0  0
   33.7076   11.9830  -15.6288 C   0  0  0  0  0  0  0  0  0  0  0  0
   34.9833   11.4797  -15.7315 C   0  0  0  0  0  0  0  0  0  0  0  0
   35.2970   10.0242  -16.6716 Cl  0  0  0  0  0  0  0  0  0  0  0  0
   36.0223   12.1618  -15.0652 C   0  0  0  0  0  0  0  0  0  0  0  0
   35.6975   13.2568  -14.3751 N   0  0  0  0  0  0  0  0  0  0  0  0
   37.3147   11.6286  -15.1877 N   0  0  0  0  0  0  0  0  0  0  0  0
   37.5676   10.9031  -14.4389 H   0  0  0  0  0  0  0  0  0  0  0  0
   38.3392   11.8726  -16.1147 C   0  0  0  0  0  0  0  0  0  0  0  0
   38.4125   11.1290  -17.2736 C   0  0  0  0  0  0  0  0  0  0  0  0
   39.4303   11.3591  -18.2082 C   0  0  0  0  0  0  0  0  0  0  0  0
   40.3518   12.3310  -17.9575 C   0  0  0  0  0  0  0  0  0  0  0  0
   40.2758   13.0718  -16.7998 C   0  0  0  0  0  0  0  0  0  0  0  0
   39.2912   12.8681  -15.8687 C   0  0  0  0  0  0  0  0  0  0  0  0
   39.2099   13.8004  -14.4320 S   0  0  0  0  0  0  0  0  0  0  0  0
   38.9011   12.9068  -13.2571 O   0  0  0  0  0  0  0  0  0  0  0  0
   38.1861   14.9007  -14.4545 O   0  0  0  0  0  0  0  0  0  0  0  0
   40.7592   14.5914  -14.0420 C   0  0  0  0  0  0  0  0  0  0  0  0
   40.5899   15.5730  -12.9282 C   0  0  0  0  0  0  0  0  0  0  0  0
   41.8930   13.6338  -13.8851 C   0  0  0  0  0  0  0  0  0  0  0  0
   33.3099   15.3987  -11.3506 C   0  0  0  0  0  0  0  0  0  0  0  0
   33.3874   15.5814   -9.9821 C   0  0  0  0  0  0  0  0  0  0  0  0
   34.5810   15.4823   -9.3023 C   0  0  0  0  0  0  0  0  0  0  0  0
   35.6897   15.1916  -10.0595 C   0  0  0  0  0  0  0  0  0  0  0  0
   35.6465   15.0011  -11.4442 C   0  0  0  0  0  0  0  0  0  0  0  0
   34.4542   15.1013  -12.1161 C   0  0  0  0  0  0  0  0  0  0  0  0
   34.6440   15.6666   -7.8854 N   0  0  0  0  0  0  0  0  0  0  0  0
   35.1350   14.5973   -7.0855 C   0  0  0  0  0  0  0  0  0  0  0  0
   35.5120   14.9500   -5.6740 C   0  0  0  0  0  0  0  0  0  0  0  0
   34.5496   15.8596   -4.9874 C   0  0  0  0  0  0  0  0  0  0  0  0
   33.5981   16.5474   -5.9458 C   0  0  0  0  0  0  0  0  0  0  0  0
   34.2214   16.8943   -7.2552 C   0  0  0  0  0  0  0  0  0  0  0  0
   35.0782   16.8153   -4.0980 N   0  0  0  0  0  0  0  0  0  0  0  0
   36.4695   16.9609   -3.9868 C   0  0  0  0  0  0  0  0  0  0  0  0
   36.8032   17.7508   -2.7181 C   0  0  0  0  0  0  0  0  0  0  0  0
   35.8950   18.8791   -2.6483 N   0  0  0  0  0  0  0  0  0  0  0  0
   36.1481   19.8967   -3.6176 C   0  0  0  0  0  0  0  0  0  0  0  0
   34.5285   18.4961   -2.4961 C   0  0  0  0  0  0  0  0  0  0  0  0
   34.3807   17.0226   -2.8696 C   0  0  0  0  0  0  0  0  0  0  0  0
   30.9172   15.1453  -11.2581 C   0  0  0  0  0  0  0  0  0  0  0  0
   32.0757   15.5129  -11.9715 O   0  0  0  0  0  0  0  0  0  0  0  0
 43 44  1  0  0  0
 44 24  1  0  0  0
 24 25  2  0  0  0
 25 26  1  0  0  0
 26 27  2  0  0  0
 27 28  1  0  0  0
 28 29  2  0  0  0
 29  1  1  0  0  0
  1  3  1  0  0  0
  3  4  2  0  0  0
  4  5  1  0  0  0
  5  6  2  0  0  0
  6  7  1  0  0  0
  6  8  1  0  0  0
  8 10  1  0  0  0
 10 12  1  0  0  0
 12 13  2  0  0  0
 13 14  1  0  0  0
 14 15  2  0  0  0
 15 16  1  0  0  0
 16 17  2  0  0  0
 17 18  1  0  0  0
 18 19  2  0  0  0
 18 20  2  0  0  0
 18 21  1  0  0  0
 21 22  1  0  0  0
 21 23  1  0  0  0
  8  9  2  0  0  0
 26 30  1  0  0  0
 30 31  1  0  0  0
 31 32  1  0  0  0
 32 33  1  0  0  0
 33 34  1  0  0  0
 34 35  1  0  0  0
 33 36  1  0  0  0
 36 37  1  0  0  0
 37 38  1  0  0  0
 38 39  1  0  0  0
 39 40  1  0  0  0
 39 41  1  0  0  0
 41 42  1  0  0  0
 29 24  1  0  0  0
  9  3  1  0  0  0
 35 30  1  0  0  0
 42 36  1  0  0  0
 17 12  1  0  0  0
  1  2  1  0  0  0
 10 11  1  0  0  0
M  END
> <minimizedAffinity>
-8.26115

> <CNNscore>
0.2427086681

> <CNNaffinity>
7.2720870972

> <CNN_VS>
1.7649985552

> <CNNaffinity_variance>
0.1347934604

$$$$
[H]c1nc(N([H])c2c([H])c([H])c(N3C([H])([H])C([H])([H])C([H])(N4C([H])([H])C([H])([H])N(C([H])([H])[H])C([H])([H])C4([H])[H])C([H])([H])C3([H])[H])c([H])c2OC([H])([H])[H])nc(N([H])c2c([H])c([H])c([H])c([H])c2S(=O)(=O)C([H])(C([H])([H])[H])C([H])([H])[H])c1Cl


 44 48  0  0  0  0  0  0  0  0999 V2000
   33.4102   14.8433  -13.1698 N   0  0  0  0  0  0  0  0  0  0  0  0
   32.5513   15.2956  -13.6483 H   0  0  0  0  0  0  0  0  0  0  0  0
   34.1497   13.9200  -13.9554 C   0  0  0  0  0  0  0  0  0  0  0  0
   33.6484   12.8939  -14.6475 N   0  0  0  0  0  0  0  0  0  0  0  0
   34.4054   12.0598  -15.3712 C   0  0  0  0  0  0  0  0  0  0  0  0
   35.7674   12.2423  -15.4241 C   0  0  0  0  0  0  0  0  0  0  0  0
   36.7789   11.1554  -16.3708 Cl  0  0  0  0  0  0  0  0  0  0  0  0
   36.3221   13.3190  -14.7018 C   0  0  0  0  0  0  0  0  0  0  0  0
   35.4842   14.0943  -14.0106 N   0  0  0  0  0  0  0  0  0  0  0  0
   37.7138   13.4842  -14.7741 N   0  0  0  0  0  0  0  0  0  0  0  0
   38.1791   12.9707  -15.5931 H   0  0  0  0  0  0  0  0  0  0  0  0
   38.6100   14.2017  -13.9675 C   0  0  0  0  0  0  0  0  0  0  0  0
   38.1461   14.8994  -12.8725 C   0  0  0  0  0  0  0  0  0  0  0  0
   39.0277   15.6221  -12.0584 C   0  0  0  0  0  0  0  0  0  0  0  0
   40.3559   15.6277  -12.3628 C   0  0  0  0  0  0  0  0  0  0  0  0
   40.8161   14.9300  -13.4566 C   0  0  0  0  0  0  0  0  0  0  0  0
   39.9762   14.2149  -14.2697 C   0  0  0  0  0  0  0  0  0  0  0  0
   40.5656   13.3501  -15.6279 S   0  0  0  0  0  0  0  0  0  0  0  0
   40.5721   14.2442  -16.8423 O   0  0  0  0  0  0  0  0  0  0  0  0
   39.7842   12.1129  -15.9718 O   0  0  0  0  0  0  0  0  0  0  0  0
   42.2519   12.8119  -15.4163 C   0  0  0  0  0  0  0  0  0  0  0  0
   42.7821   12.2141  -16.6789 C   0  0  0  0  0  0  0  0  0  0  0  0
   43.1273   13.8370  -14.7760 C   0  0  0  0  0  0  0  0  0  0  0  0
   32.5194   15.5498  -11.0533 C   0  0  0  0  0  0  0  0  0  0  0  0
   32.6594   15.9611   -9.7405 C   0  0  0  0  0  0  0  0  0  0  0  0
   33.8960   16.0999   -9.1506 C   0  0  0  0  0  0  0  0  0  0  0  0
   34.9821   15.8069   -9.9389 C   0  0  0  0  0  0  0  0  0  0  0  0
   34.8761   15.3889  -11.2692 C   0  0  0  0  0  0  0  0  0  0  0  0
   33.6411   15.2525  -11.8517 C   0  0  0  0  0  0  0  0  0  0  0  0
   34.0245   16.5191   -7.7893 N   0  0  0  0  0  0  0  0  0  0  0  0
   33.2277   15.8718   -6.8041 C   0  0  0  0  0  0  0  0  0  0  0  0
   33.6416   16.0886   -5.3757 C   0  0  0  0  0  0  0  0  0  0  0  0
   34.0263   17.4928   -5.0512 C   0  0  0  0  0  0  0  0  0  0  0  0
   34.2903   18.3343   -6.2838 C   0  0  0  0  0  0  0  0  0  0  0  0
   34.9278   17.5741   -7.3969 C   0  0  0  0  0  0  0  0  0  0  0  0
   35.0739   17.6846   -4.1296 N   0  0  0  0  0  0  0  0  0  0  0  0
   35.9681   16.6344   -3.8713 C   0  0  0  0  0  0  0  0  0  0  0  0
   36.7528   16.9317   -2.5904 C   0  0  0  0  0  0  0  0  0  0  0  0
   37.1754   18.3178   -2.6426 N   0  0  0  0  0  0  0  0  0  0  0  0
   38.2017   18.5825   -3.5995 C   0  0  0  0  0  0  0  0  0  0  0  0
   36.0870   19.2412   -2.6316 C   0  0  0  0  0  0  0  0  0  0  0  0
   34.8012   18.4983   -2.9886 C   0  0  0  0  0  0  0  0  0  0  0  0
   30.3425   14.5223  -10.9954 C   0  0  0  0  0  0  0  0  0  0  0  0
   31.2444   15.4311  -11.5844 O   0  0  0  0  0  0  0  0  0  0  0  0
 43 44  1  0  0  0
 44 24  1  0  0  0
 24 25  2  0  0  0
 25 26  1  0  0  0
 26 27  2  0  0  0
 27 28  1  0  0  0
 28 29  2  0  0  0
 29  1  1  0  0  0
  1  3  1  0  0  0
  3  4  2  0  0  0
  4  5  1  0  0  0
  5  6  2  0  0  0
  6  7  1  0  0  0
  6  8  1  0  0  0
  8 10  1  0  0  0
 10 12  1  0  0  0
 12 13  2  0  0  0
 13 14  1  0  0  0
 14 15  2  0  0  0
 15 16  1  0  0  0
 16 17  2  0  0  0
 17 18  1  0  0  0
 18 19  2  0  0  0
 18 20  2  0  0  0
 18 21  1  0  0  0
 21 22  1  0  0  0
 21 23  1  0  0  0
  8  9  2  0  0  0
 26 30  1  0  0  0
 30 31  1  0  0  0
 31 32  1  0  0  0
 32 33  1  0  0  0
 33 34  1  0  0  0
 34 35  1  0  0  0
 33 36  1  0  0  0
 36 37  1  0  0  0
 37 38  1  0  0  0
 38 39  1  0  0  0
 39 40  1  0  0  0
 39 41  1  0  0  0
 41 42  1  0  0  0
 29 24  1  0  0  0
  9  3  1  0  0  0
 35 30  1  0  0  0
 42 36  1  0  0  0
 17 12  1  0  0  0
  1  2  1  0  0  0
 10 11  1  0  0  0
M  END
> <minimizedAffinity>
-8.85239

> <CNNscore>
0.1740900129

> <CNNaffinity>
7.2376556396

> <CNN_VS>
1.2600035667

> <CNNaffinity_variance>
0.0992006809

$$$$
[H]c1nc(N([H])c2c([H])c([H])c(N3C([H])([H])C([H])([H])C([H])(N4C([H])([H])C([H])([H])N(C([H])([H])[H])C([H])([H])C4([H])[H])C([H])([H])C3([H])[H])c([H])c2OC([H])([H])[H])nc(N([H])c2c([H])c([H])c([H])c([H])c2S(=O)(=O)C([H])(C([H])([H])[H])C([H])([H])[H])c1Cl


 44 48  0  0  0  0  0  0  0  0999 V2000
   41.1395   12.8688  -15.8758 N   0  0  0  0  0  0  0  0  0  0  0  0
   40.6746   12.3778  -16.7208 H   0  0  0  0  0  0  0  0  0  0  0  0
   42.5582   12.8275  -15.8312 C   0  0  0  0  0  0  0  0  0  0  0  0
   43.3554   12.1699  -16.6770 N   0  0  0  0  0  0  0  0  0  0  0  0
   44.6905   12.1746  -16.5778 C   0  0  0  0  0  0  0  0  0  0  0  0
   45.2999   12.8810  -15.5674 C   0  0  0  0  0  0  0  0  0  0  0  0
   47.0546   12.8989  -15.4213 Cl  0  0  0  0  0  0  0  0  0  0  0  0
   44.4803   13.5843  -14.6605 C   0  0  0  0  0  0  0  0  0  0  0  0
   43.1601   13.5177  -14.8435 N   0  0  0  0  0  0  0  0  0  0  0  0
   45.1270   14.2986  -13.6402 N   0  0  0  0  0  0  0  0  0  0  0  0
   45.5631   13.6838  -12.8768 H   0  0  0  0  0  0  0  0  0  0  0  0
   45.3077   15.6749  -13.4369 C   0  0  0  0  0  0  0  0  0  0  0  0
   45.9839   16.4279  -14.3735 C   0  0  0  0  0  0  0  0  0  0  0  0
   46.1742   17.8027  -14.1842 C   0  0  0  0  0  0  0  0  0  0  0  0
   45.6811   18.3904  -13.0581 C   0  0  0  0  0  0  0  0  0  0  0  0
   45.0063   17.6362  -12.1250 C   0  0  0  0  0  0  0  0  0  0  0  0
   44.8058   16.2900  -12.2846 C   0  0  0  0  0  0  0  0  0  0  0  0
   43.9620   15.3647  -11.1133 S   0  0  0  0  0  0  0  0  0  0  0  0
   44.9354   14.5276  -10.3220 O   0  0  0  0  0  0  0  0  0  0  0  0
   42.9150   14.4443  -11.6754 O   0  0  0  0  0  0  0  0  0  0  0  0
   43.1178   16.3821   -9.9173 C   0  0  0  0  0  0  0  0  0  0  0  0
   41.6574   16.0673   -9.8873 C   0  0  0  0  0  0  0  0  0  0  0  0
   43.7923   16.4198   -8.5867 C   0  0  0  0  0  0  0  0  0  0  0  0
   38.9849   12.8686  -14.8129 C   0  0  0  0  0  0  0  0  0  0  0  0
   38.0492   13.3916  -13.9392 C   0  0  0  0  0  0  0  0  0  0  0  0
   38.3084   14.5130  -13.1831 C   0  0  0  0  0  0  0  0  0  0  0  0
   39.5480   15.0826  -13.3451 C   0  0  0  0  0  0  0  0  0  0  0  0
   40.5166   14.5798  -14.2195 C   0  0  0  0  0  0  0  0  0  0  0  0
   40.2525   13.4620  -14.9704 C   0  0  0  0  0  0  0  0  0  0  0  0
   37.3332   15.0379  -12.2781 N   0  0  0  0  0  0  0  0  0  0  0  0
   35.9565   14.8740  -12.5977 C   0  0  0  0  0  0  0  0  0  0  0  0
   34.9865   15.1165  -11.4757 C   0  0  0  0  0  0  0  0  0  0  0  0
   35.3003   16.3086  -10.6357 C   0  0  0  0  0  0  0  0  0  0  0  0
   36.7158   16.8141  -10.8304 C   0  0  0  0  0  0  0  0  0  0  0  0
   37.7080   15.7264  -11.0663 C   0  0  0  0  0  0  0  0  0  0  0  0
   35.0273   16.2235   -9.2566 N   0  0  0  0  0  0  0  0  0  0  0  0
   33.7376   15.8744   -8.8275 C   0  0  0  0  0  0  0  0  0  0  0  0
   33.5790   16.2199   -7.3442 C   0  0  0  0  0  0  0  0  0  0  0  0
   34.7749   15.7738   -6.6561 N   0  0  0  0  0  0  0  0  0  0  0  0
   34.8921   14.3551   -6.5434 C   0  0  0  0  0  0  0  0  0  0  0  0
   35.9552   16.4608   -7.0712 C   0  0  0  0  0  0  0  0  0  0  0  0
   35.6815   17.1606   -8.4008 C   0  0  0  0  0  0  0  0  0  0  0  0
   37.4847   11.7452  -16.3246 C   0  0  0  0  0  0  0  0  0  0  0  0
   38.6579   11.7369  -15.5437 O   0  0  0  0  0  0  0  0  0  0  0  0
 43 44  1  0  0  0
 44 24  1  0  0  0
 24 25  2  0  0  0
 25 26  1  0  0  0
 26 27  2  0  0  0
 27 28  1  0  0  0
 28 29  2  0  0  0
 29  1  1  0  0  0
  1  3  1  0  0  0
  3  4  2  0  0  0
  4  5  1  0  0  0
  5  6  2  0  0  0
  6  7  1  0  0  0
  6  8  1  0  0  0
  8 10  1  0  0  0
 10 12  1  0  0  0
 12 13  2  0  0  0
 13 14  1  0  0  0
 14 15  2  0  0  0
 15 16  1  0  0  0
 16 17  2  0  0  0
 17 18  1  0  0  0
 18 19  2  0  0  0
 18 20  2  0  0  0
 18 21  1  0  0  0
 21 22  1  0  0  0
 21 23  1  0  0  0
  8  9  2  0  0  0
 26 30  1  0  0  0
 30 31  1  0  0  0
 31 32  1  0  0  0
 32 33  1  0  0  0
 33 34  1  0  0  0
 34 35  1  0  0  0
 33 36  1  0  0  0
 36 37  1  0  0  0
 37 38  1  0  0  0
 38 39  1  0  0  0
 39 40  1  0  0  0
 39 41  1  0  0  0
 41 42  1  0  0  0
 29 24  1  0  0  0
  9  3  1  0  0  0
 35 30  1  0  0  0
 42 36  1  0  0  0
 17 12  1  0  0  0
  1  2  1  0  0  0
 10 11  1  0  0  0
M  END
> <minimizedAffinity>
-8.25288

> <CNNscore>
0.0631211177

> <CNNaffinity>
6.6328330040

> <CNN_VS>
0.4186718464

> <CNNaffinity_variance>
0.7367760539

$$$$
[H]c1nc(N([H])c2c([H])c([H])c(N3C([H])([H])C([H])([H])C([H])(N4C([H])([H])C([H])([H])N(C([H])([H])[H])C([H])([H])C4([H])[H])C([H])([H])C3([H])[H])c([H])c2OC([H])([H])[H])nc(N([H])c2c([H])c([H])c([H])c([H])c2S(=O)(=O)C([H])(C([H])([H])[H])C([H])([H])[H])c1Cl


 44 48  0  0  0  0  0  0  0  0999 V2000
   41.2889   12.9865  -15.7756 N   0  0  0  0  0  0  0  0  0  0  0  0
   40.8311   12.5185  -16.6374 H   0  0  0  0  0  0  0  0  0  0  0  0
   42.7070   12.9412  -15.7190 C   0  0  0  0  0  0  0  0  0  0  0  0
   43.5191   12.4537  -16.6603 N   0  0  0  0  0  0  0  0  0  0  0  0
   44.8528   12.4432  -16.5426 C   0  0  0  0  0  0  0  0  0  0  0  0
   45.4445   12.9518  -15.4102 C   0  0  0  0  0  0  0  0  0  0  0  0
   47.1969   12.9466  -15.2380 Cl  0  0  0  0  0  0  0  0  0  0  0  0
   44.6089   13.4728  -14.4007 C   0  0  0  0  0  0  0  0  0  0  0  0
   43.2917   13.4380  -14.6119 N   0  0  0  0  0  0  0  0  0  0  0  0
   45.2378   13.9872  -13.2565 N   0  0  0  0  0  0  0  0  0  0  0  0
   46.3053   13.8800  -13.2514 H   0  0  0  0  0  0  0  0  0  0  0  0
   44.7225   14.6187  -12.1145 C   0  0  0  0  0  0  0  0  0  0  0  0
   43.9847   13.8966  -11.2005 C   0  0  0  0  0  0  0  0  0  0  0  0
   43.4618   14.5129  -10.0563 C   0  0  0  0  0  0  0  0  0  0  0  0
   43.6919   15.8409   -9.8560 C   0  0  0  0  0  0  0  0  0  0  0  0
   44.4291   16.5591  -10.7702 C   0  0  0  0  0  0  0  0  0  0  0  0
   44.9522   15.9818  -11.8976 C   0  0  0  0  0  0  0  0  0  0  0  0
   45.8694   16.8902  -13.0262 S   0  0  0  0  0  0  0  0  0  0  0  0
   45.1887   16.8747  -14.3717 O   0  0  0  0  0  0  0  0  0  0  0  0
   47.2808   16.4105  -13.2192 O   0  0  0  0  0  0  0  0  0  0  0  0
   46.0023   18.6093  -12.5728 C   0  0  0  0  0  0  0  0  0  0  0  0
   47.4009   19.1016  -12.7573 C   0  0  0  0  0  0  0  0  0  0  0  0
   44.9374   19.4662  -13.1717 C   0  0  0  0  0  0  0  0  0  0  0  0
   39.0982   13.0119  -14.7894 C   0  0  0  0  0  0  0  0  0  0  0  0
   38.1536   13.5175  -13.9152 C   0  0  0  0  0  0  0  0  0  0  0  0
   38.4311   14.5745  -13.0774 C   0  0  0  0  0  0  0  0  0  0  0  0
   39.6985   15.0982  -13.1585 C   0  0  0  0  0  0  0  0  0  0  0  0
   40.6770   14.6114  -14.0309 C   0  0  0  0  0  0  0  0  0  0  0  0
   40.3945   13.5578  -14.8635 C   0  0  0  0  0  0  0  0  0  0  0  0
   37.4459   15.0817  -12.1732 N   0  0  0  0  0  0  0  0  0  0  0  0
   36.0747   14.8262  -12.4542 C   0  0  0  0  0  0  0  0  0  0  0  0
   35.1153   15.0613  -11.3215 C   0  0  0  0  0  0  0  0  0  0  0  0
   35.3768   16.3044  -10.5395 C   0  0  0  0  0  0  0  0  0  0  0  0
   36.7565   16.8807  -10.7875 C   0  0  0  0  0  0  0  0  0  0  0  0
   37.8049   15.8420  -11.0001 C   0  0  0  0  0  0  0  0  0  0  0  0
   35.1373   16.2635   -9.1522 N   0  0  0  0  0  0  0  0  0  0  0  0
   35.5426   17.3403   -8.3488 C   0  0  0  0  0  0  0  0  0  0  0  0
   35.5358   16.9143   -6.8779 C   0  0  0  0  0  0  0  0  0  0  0  0
   34.3080   16.1820   -6.6355 N   0  0  0  0  0  0  0  0  0  0  0  0
   33.1317   16.9918   -6.6388 C   0  0  0  0  0  0  0  0  0  0  0  0
   34.2218   14.9633   -7.3733 C   0  0  0  0  0  0  0  0  0  0  0  0
   35.2452   14.9947   -8.5065 C   0  0  0  0  0  0  0  0  0  0  0  0
   37.4116   11.8136  -16.0212 C   0  0  0  0  0  0  0  0  0  0  0  0
   38.7516   11.9459  -15.6050 O   0  0  0  0  0  0  0  0  0  0  0  0
 43 44  1  0  0  0
 44 24  1  0  0  0
 24 25  2  0  0  0
 25 26  1  0  0  0
 26 27  2  0  0  0
 27 28  1  0  0  0
 28 29  2  0  0  0
 29  1  1  0  0  0
  1  3  1  0  0  0
  3  4  2  0  0  0
  4  5  1  0  0  0
  5  6  2  0  0  0
  6  7  1  0  0  0
  6  8  1  0  0  0
  8 10  1  0  0  0
 10 12  1  0  0  0
 12 13  2  0  0  0
 13 14  1  0  0  0
 14 15  2  0  0  0
 15 16  1  0  0  0
 16 17  2  0  0  0
 17 18  1  0  0  0
 18 19  2  0  0  0
 18 20  2  0  0  0
 18 21  1  0  0  0
 21 22  1  0  0  0
 21 23  1  0  0  0
  8  9  2  0  0  0
 26 30  1  0  0  0
 30 31  1  0  0  0
 31 32  1  0  0  0
 32 33  1  0  0  0
 33 34  1  0  0  0
 34 35  1  0  0  0
 33 36  1  0  0  0
 36 37  1  0  0  0
 37 38  1  0  0  0
 38 39  1  0  0  0
 39 40  1  0  0  0
 39 41  1  0  0  0
 41 42  1  0  0  0
 29 24  1  0  0  0
  9  3  1  0  0  0
 35 30  1  0  0  0
 42 36  1  0  0  0
 17 12  1  0  0  0
  1  2  1  0  0  0
 10 11  1  0  0  0
M  END
> <minimizedAffinity>
-8.07955

> <CNNscore>
0.0602416173

> <CNNaffinity>
6.6210656166

> <CNN_VS>
0.3988637030

> <CNNaffinity_variance>
0.6141880155

$$$$
[H]c1nc(N([H])c2c([H])c([H])c(N3C([H])([H])C([H])([H])C([H])(N4C([H])([H])C([H])([H])N(C([H])([H])[H])C([H])([H])C4([H])[H])C([H])([H])C3([H])[H])c([H])c2OC([H])([H])[H])nc(N([H])c2c([H])c([H])c([H])c([H])c2S(=O)(=O)C([H])(C([H])([H])[H])C([H])([H])[H])c1Cl


 44 48  0  0  0  0  0  0  0  0999 V2000
   41.3463   16.2571  -11.7127 N   0  0  0  0  0  0  0  0  0  0  0  0
   41.7263   17.2586  -11.8671 H   0  0  0  0  0  0  0  0  0  0  0  0
   41.6712   15.3036  -12.7136 C   0  0  0  0  0  0  0  0  0  0  0  0
   42.7723   14.5492  -12.7569 N   0  0  0  0  0  0  0  0  0  0  0  0
   43.0160   13.6655  -13.7326 C   0  0  0  0  0  0  0  0  0  0  0  0
   42.1083   13.5039  -14.7530 C   0  0  0  0  0  0  0  0  0  0  0  0
   42.4119   12.3463  -16.0447 Cl  0  0  0  0  0  0  0  0  0  0  0  0
   40.9369   14.2888  -14.7307 C   0  0  0  0  0  0  0  0  0  0  0  0
   40.7855   15.1414  -13.7152 N   0  0  0  0  0  0  0  0  0  0  0  0
   40.0263   14.1033  -15.7822 N   0  0  0  0  0  0  0  0  0  0  0  0
   39.7371   15.0071  -16.2827 H   0  0  0  0  0  0  0  0  0  0  0  0
   39.4238   12.9467  -16.2997 C   0  0  0  0  0  0  0  0  0  0  0  0
   40.0027   12.2828  -17.3605 C   0  0  0  0  0  0  0  0  0  0  0  0
   39.4125   11.1278  -17.8898 C   0  0  0  0  0  0  0  0  0  0  0  0
   38.2539   10.6657  -17.3414 C   0  0  0  0  0  0  0  0  0  0  0  0
   37.6784   11.3306  -16.2823 C   0  0  0  0  0  0  0  0  0  0  0  0
   38.2340   12.4622  -15.7450 C   0  0  0  0  0  0  0  0  0  0  0  0
   37.5052   13.2781  -14.4247 S   0  0  0  0  0  0  0  0  0  0  0  0
   37.4415   14.7580  -14.7079 O   0  0  0  0  0  0  0  0  0  0  0  0
   38.2050   13.0915  -13.1076 O   0  0  0  0  0  0  0  0  0  0  0  0
   35.8194   12.7665  -14.1516 C   0  0  0  0  0  0  0  0  0  0  0  0
   35.6979   11.9917  -12.8798 C   0  0  0  0  0  0  0  0  0  0  0  0
   34.8277   13.8677  -14.3280 C   0  0  0  0  0  0  0  0  0  0  0  0
   41.2988   15.8403   -9.3471 C   0  0  0  0  0  0  0  0  0  0  0  0
   40.6346   15.6530   -8.1487 C   0  0  0  0  0  0  0  0  0  0  0  0
   39.2605   15.6900   -8.0662 C   0  0  0  0  0  0  0  0  0  0  0  0
   38.5868   15.9235   -9.2404 C   0  0  0  0  0  0  0  0  0  0  0  0
   39.2270   16.1167  -10.4686 C   0  0  0  0  0  0  0  0  0  0  0  0
   40.5966   16.0786  -10.5446 C   0  0  0  0  0  0  0  0  0  0  0  0
   38.5879   15.5019   -6.8181 N   0  0  0  0  0  0  0  0  0  0  0  0
   39.3611   15.5194   -5.6239 C   0  0  0  0  0  0  0  0  0  0  0  0
   38.5906   15.6721   -4.3426 C   0  0  0  0  0  0  0  0  0  0  0  0
   37.3423   14.8586   -4.2726 C   0  0  0  0  0  0  0  0  0  0  0  0
   36.8965   14.3407   -5.6254 C   0  0  0  0  0  0  0  0  0  0  0  0
   37.1621   15.2917   -6.7427 C   0  0  0  0  0  0  0  0  0  0  0  0
   36.2354   15.4202   -3.6069 N   0  0  0  0  0  0  0  0  0  0  0  0
   36.1236   16.8155   -3.5077 C   0  0  0  0  0  0  0  0  0  0  0  0
   35.0869   17.1726   -2.4387 C   0  0  0  0  0  0  0  0  0  0  0  0
   33.9363   16.3121   -2.6338 N   0  0  0  0  0  0  0  0  0  0  0  0
   33.1684   16.6147   -3.7992 C   0  0  0  0  0  0  0  0  0  0  0  0
   34.2224   14.9297   -2.4235 C   0  0  0  0  0  0  0  0  0  0  0  0
   35.7351   14.7230   -2.4659 C   0  0  0  0  0  0  0  0  0  0  0  0
   43.3521   15.1557   -8.2921 C   0  0  0  0  0  0  0  0  0  0  0  0
   42.6841   15.7903   -9.3585 O   0  0  0  0  0  0  0  0  0  0  0  0
 43 44  1  0  0  0
 44 24  1  0  0  0
 24 25  2  0  0  0
 25 26  1  0  0  0
 26 27  2  0  0  0
 27 28  1  0  0  0
 28 29  2  0  0  0
 29  1  1  0  0  0
  1  3  1  0  0  0
  3  4  2  0  0  0
  4  5  1  0  0  0
  5  6  2  0  0  0
  6  7  1  0  0  0
  6  8  1  0  0  0
  8 10  1  0  0  0
 10 12  1  0  0  0
 12 13  2  0  0  0
 13 14  1  0  0  0
 14 15  2  0  0  0
 15 16  1  0  0  0
 16 17  2  0  0  0
 17 18  1  0  0  0
 18 19  2  0  0  0
 18 20  2  0  0  0
 18 21  1  0  0  0
 21 22  1  0  0  0
 21 23  1  0  0  0
  8  9  2  0  0  0
 26 30  1  0  0  0
 30 31  1  0  0  0
 31 32  1  0  0  0
 32 33  1  0  0  0
 33 34  1  0  0  0
 34 35  1  0  0  0
 33 36  1  0  0  0
 36 37  1  0  0  0
 37 38  1  0  0  0
 38 39  1  0  0  0
 39 40  1  0  0  0
 39 41  1  0  0  0
 41 42  1  0  0  0
 29 24  1  0  0  0
  9  3  1  0  0  0
 35 30  1  0  0  0
 42 36  1  0  0  0
 17 12  1  0  0  0
  1  2  1  0  0  0
 10 11  1  0  0  0
M  END
> <minimizedAffinity>
-8.20799

> <CNNscore>
0.0589180030

> <CNNaffinity>
6.6056222916

> <CNN_VS>
0.3891900778

> <CNNaffinity_variance>
0.2352221757

$$$$
[H]c1nc(N([H])c2c([H])c([H])c(N3C([H])([H])C([H])([H])C([H])(N4C([H])([H])C([H])([H])N(C([H])([H])[H])C([H])([H])C4([H])[H])C([H])([H])C3([H])[H])c([H])c2OC([H])([H])[H])nc(N([H])c2c([H])c([H])c([H])c([H])c2S(=O)(=O)C([H])(C([H])([H])[H])C([H])([H])[H])c1Cl


 44 48  0  0  0  0  0  0  0  0999 V2000
   39.1047   13.5743  -14.9151 N   0  0  0  0  0  0  0  0  0  0  0  0
   38.4179   13.4014  -15.7334 H   0  0  0  0  0  0  0  0  0  0  0  0
   40.4736   13.3053  -15.1799 C   0  0  0  0  0  0  0  0  0  0  0  0
   40.9563   12.6197  -16.2192 N   0  0  0  0  0  0  0  0  0  0  0  0
   42.2638   12.4036  -16.4097 C   0  0  0  0  0  0  0  0  0  0  0  0
   43.1782   12.8985  -15.5097 C   0  0  0  0  0  0  0  0  0  0  0  0
   44.9017   12.6244  -15.7440 Cl  0  0  0  0  0  0  0  0  0  0  0  0
   42.6942   13.6264  -14.4030 C   0  0  0  0  0  0  0  0  0  0  0  0
   41.3734   13.7879  -14.3014 N   0  0  0  0  0  0  0  0  0  0  0  0
   43.6480   14.1221  -13.5008 N   0  0  0  0  0  0  0  0  0  0  0  0
   44.1324   15.0247  -13.8195 H   0  0  0  0  0  0  0  0  0  0  0  0
   44.0842   13.6503  -12.2536 C   0  0  0  0  0  0  0  0  0  0  0  0
   44.4871   12.3390  -12.1143 C   0  0  0  0  0  0  0  0  0  0  0  0
   44.9235   11.8523  -10.8753 C   0  0  0  0  0  0  0  0  0  0  0  0
   44.9453   12.6939   -9.8039 C   0  0  0  0  0  0  0  0  0  0  0  0
   44.5426   14.0026   -9.9462 C   0  0  0  0  0  0  0  0  0  0  0  0
   44.1113   14.5050  -11.1460 C   0  0  0  0  0  0  0  0  0  0  0  0
   43.6141   16.1381  -11.3067 S   0  0  0  0  0  0  0  0  0  0  0  0
   43.3747   16.7382   -9.9441 O   0  0  0  0  0  0  0  0  0  0  0  0
   42.3675   16.3375  -12.1226 O   0  0  0  0  0  0  0  0  0  0  0  0
   44.8593   17.1595  -12.0714 C   0  0  0  0  0  0  0  0  0  0  0  0
   44.2608   18.0212  -13.1353 C   0  0  0  0  0  0  0  0  0  0  0  0
   45.7330   17.8670  -11.0901 C   0  0  0  0  0  0  0  0  0  0  0  0
   37.3432   13.3937  -13.2913 C   0  0  0  0  0  0  0  0  0  0  0  0
   36.6990   13.7881  -12.1329 C   0  0  0  0  0  0  0  0  0  0  0  0
   37.1698   14.8232  -11.3562 C   0  0  0  0  0  0  0  0  0  0  0  0
   38.3148   15.4416  -11.7963 C   0  0  0  0  0  0  0  0  0  0  0  0
   38.9906   15.0683  -12.9622 C   0  0  0  0  0  0  0  0  0  0  0  0
   38.5166   14.0361  -13.7322 C   0  0  0  0  0  0  0  0  0  0  0  0
   36.4966   15.2148  -10.1566 N   0  0  0  0  0  0  0  0  0  0  0  0
   35.1821   15.7487  -10.2623 C   0  0  0  0  0  0  0  0  0  0  0  0
   34.3926   15.8126   -8.9850 C   0  0  0  0  0  0  0  0  0  0  0  0
   35.1701   16.2830   -7.8021 C   0  0  0  0  0  0  0  0  0  0  0  0
   36.6688   16.2408   -8.0237 C   0  0  0  0  0  0  0  0  0  0  0  0
   37.1138   15.0881   -8.8582 C   0  0  0  0  0  0  0  0  0  0  0  0
   34.8725   15.7017   -6.5542 N   0  0  0  0  0  0  0  0  0  0  0  0
   33.9863   14.6154   -6.4914 C   0  0  0  0  0  0  0  0  0  0  0  0
   33.5245   14.4126   -5.0456 C   0  0  0  0  0  0  0  0  0  0  0  0
   34.6911   14.5150   -4.1905 N   0  0  0  0  0  0  0  0  0  0  0  0
   35.5926   13.4122   -4.2936 C   0  0  0  0  0  0  0  0  0  0  0  0
   35.2927   15.8092   -4.2079 C   0  0  0  0  0  0  0  0  0  0  0  0
   34.7877   16.5758   -5.4285 C   0  0  0  0  0  0  0  0  0  0  0  0
   35.4251   12.3062  -14.2588 C   0  0  0  0  0  0  0  0  0  0  0  0
   36.8145   12.3436  -14.0259 O   0  0  0  0  0  0  0  0  0  0  0  0
 43 44  1  0  0  0
 44 24  1  0  0  0
 24 25  2  0  0  0
 25 26  1  0  0  0
 26 27  2  0  0  0
 27 28  1  0  0  0
 28 29  2  0  0  0
 29  1  1  0  0  0
  1  3  1  0  0  0
  3  4  2  0  0  0
  4  5  1  0  0  0
  5  6  2  0  0  0
  6  7  1  0  0  0
  6  8  1  0  0  0
  8 10  1  0  0  0
 10 12  1  0  0  0
 12 13  2  0  0  0
 13 14  1  0  0  0
 14 15  2  0  0  0
 15 16  1  0  0  0
 16 17  2  0  0  0
 17 18  1  0  0  0
 18 19  2  0  0  0
 18 20  2  0  0  0
 18 21  1  0  0  0
 21 22  1  0  0  0
 21 23  1  0  0  0
  8  9  2  0  0  0
 26 30  1  0  0  0
 30 31  1  0  0  0
 31 32  1  0  0  0
 32 33  1  0  0  0
 33 34  1  0  0  0
 34 35  1  0  0  0
 33 36  1  0  0  0
 36 37  1  0  0  0
 37 38  1  0  0  0
 38 39  1  0  0  0
 39 40  1  0  0  0
 39 41  1  0  0  0
 41 42  1  0  0  0
 29 24  1  0  0  0
  9  3  1  0  0  0
 35 30  1  0  0  0
 42 36  1  0  0  0
 17 12  1  0  0  0
  1  2  1  0  0  0
 10 11  1  0  0  0
M  END
> <minimizedAffinity>
-7.52253

> <CNNscore>
0.0425379388

> <CNNaffinity>
6.6400060654

> <CNN_VS>
0.2824521661

> <CNNaffinity_variance>
0.3389868438

$$$$
[H]c1c([H])c([H])c2c(c1[H])c1c3c(c4c5c([H])c([H])c([H])c([H])c5n5c4c1n2[C@]1([H])O[C@]5(C([H])([H])[H])[C@]([H])(OC([H])([H])[H])[C@]([H])(N([H])C([H])([H])[H])C1([H])[H])C([H])([H])N([H])C3=O


 37 44  0  0  0  0  0  0  0  0999 V2000
   35.0111   15.5076  -11.6230 C   0  0  0  0  0  0  0  0  0  0  0  0
   34.6942   14.3090  -12.5785 C   0  0  0  0  0  0  0  0  0  0  0  0
   35.9516   14.0204  -13.0606 C   0  0  0  0  0  0  0  0  0  0  0  0
   36.7078   13.7308  -11.9342 O   0  0  0  0  0  0  0  0  0  0  0  0
   37.4781   14.9066  -11.6656 C   0  0  0  0  0  0  0  0  0  0  0  0
   37.9234   14.6230  -10.2101 C   0  0  0  0  0  0  0  0  0  0  0  0
   36.4894   15.9642  -11.7423 C   0  0  0  0  0  0  0  0  0  0  0  0
   38.6146   14.8109  -12.5530 N   0  0  0  0  0  0  0  0  0  0  0  0
   39.8546   15.3176  -12.3292 C   0  0  0  0  0  0  0  0  0  0  0  0
   40.3488   16.1340  -11.3619 C   0  0  0  0  0  0  0  0  0  0  0  0
   41.6970   16.5394  -11.3486 C   0  0  0  0  0  0  0  0  0  0  0  0
   42.5495   16.1035  -12.3394 C   0  0  0  0  0  0  0  0  0  0  0  0
   42.0763   15.2689  -13.3438 C   0  0  0  0  0  0  0  0  0  0  0  0
   40.7466   14.9064  -13.3028 C   0  0  0  0  0  0  0  0  0  0  0  0
   40.0430   14.1264  -14.1605 C   0  0  0  0  0  0  0  0  0  0  0  0
   40.3226   13.3880  -15.3110 C   0  0  0  0  0  0  0  0  0  0  0  0
   41.6357   13.2736  -15.9968 C   0  0  0  0  0  0  0  0  0  0  0  0
   41.3759   12.4046  -17.1188 N   0  0  0  0  0  0  0  0  0  0  0  0
   39.9884   12.0017  -17.1292 C   0  0  0  0  0  0  0  0  0  0  0  0
   39.5609   11.2471  -18.0203 O   0  0  0  0  0  0  0  0  0  0  0  0
   39.3769   12.6397  -15.9850 C   0  0  0  0  0  0  0  0  0  0  0  0
   38.0735   12.6073  -15.5168 C   0  0  0  0  0  0  0  0  0  0  0  0
   36.8979   12.0498  -15.9314 C   0  0  0  0  0  0  0  0  0  0  0  0
   36.5398   11.2414  -16.9593 C   0  0  0  0  0  0  0  0  0  0  0  0
   35.1981   10.8595  -17.0766 C   0  0  0  0  0  0  0  0  0  0  0  0
   34.2554   11.2905  -16.1722 C   0  0  0  0  0  0  0  0  0  0  0  0
   34.6127   12.1143  -15.1219 C   0  0  0  0  0  0  0  0  0  0  0  0
   35.9492   12.4814  -15.0241 C   0  0  0  0  0  0  0  0  0  0  0  0
   36.4897   13.2541  -14.1026 N   0  0  0  0  0  0  0  0  0  0  0  0
   37.8172   13.3395  -14.3849 C   0  0  0  0  0  0  0  0  0  0  0  0
   38.7852   14.0906  -13.6990 C   0  0  0  0  0  0  0  0  0  0  0  0
   42.1047   12.1288  -17.8019 H   0  0  0  0  0  0  0  0  0  0  0  0
   33.3776   15.7592   -9.9519 C   0  0  0  0  0  0  0  0  0  0  0  0
   34.6640   15.2194  -10.2774 N   0  0  0  0  0  0  0  0  0  0  0  0
   35.3926   15.4353   -9.6017 H   0  0  0  0  0  0  0  0  0  0  0  0
   36.6131   16.7368  -10.5463 O   0  0  0  0  0  0  0  0  0  0  0  0
   37.4972   17.7784  -10.6852 C   0  0  0  0  0  0  0  0  0  0  0  0
 33 34  1  0  0  0
 34  1  1  0  0  0
  1  2  1  0  0  0
  2  3  1  0  0  0
  3  4  1  0  0  0
  4  5  1  0  0  0
  5  6  1  0  0  0
  5  7  1  0  0  0
  7 36  1  0  0  0
 36 37  1  0  0  0
  5  8  1  0  0  0
  8  9  1  0  0  0
  9 10  2  0  0  0
 10 11  1  0  0  0
 11 12  2  0  0  0
 12 13  1  0  0  0
 13 14  2  0  0  0
 14 15  1  0  0  0
 15 16  2  0  0  0
 16 17  1  0  0  0
 17 18  1  0  0  0
 18 19  1  0  0  0
 19 20  2  0  0  0
 19 21  1  0  0  0
 21 22  2  0  0  0
 22 23  1  0  0  0
 23 24  2  0  0  0
 24 25  1  0  0  0
 25 26  2  0  0  0
 26 27  1  0  0  0
 27 28  2  0  0  0
 28 29  1  0  0  0
 29 30  1  0  0  0
 30 31  2  0  0  0
  7  1  1  0  0  0
 31  8  1  0  0  0
 29  3  1  0  0  0
 14  9  1  0  0  0
 31 15  1  0  0  0
 21 16  1  0  0  0
 30 22  1  0  0  0
 28 23  1  0  0  0
 34 35  1  0  0  0
 18 32  1  0  0  0
M  END
> <minimizedAffinity>
-11.69773

> <CNNscore>
0.6991915703

> <CNNaffinity>
7.2046370506

> <CNN_VS>
5.0374217033

> <CNNaffinity_variance>
0.1174464002

$$$$
[H]c1c([H])c([H])c2c(c1[H])c1c3c(c4c5c([H])c([H])c([H])c([H])c5n5c4c1n2[C@]1([H])O[C@]5(C([H])([H])[H])[C@]([H])(OC([H])([H])[H])[C@]([H])(N([H])C([H])([H])[H])C1([H])[H])C([H])([H])N([H])C3=O


 37 44  0  0  0  0  0  0  0  0999 V2000
   36.3945   14.5119  -11.7135 C   0  0  0  0  0  0  0  0  0  0  0  0
   37.7665   15.2507  -11.5652 C   0  0  0  0  0  0  0  0  0  0  0  0
   38.4457   14.7612  -12.6587 C   0  0  0  0  0  0  0  0  0  0  0  0
   37.6666   15.1154  -13.7506 O   0  0  0  0  0  0  0  0  0  0  0  0
   36.9513   13.9331  -14.1226 C   0  0  0  0  0  0  0  0  0  0  0  0
   35.8510   14.5438  -15.0246 C   0  0  0  0  0  0  0  0  0  0  0  0
   36.4258   13.4624  -12.8560 C   0  0  0  0  0  0  0  0  0  0  0  0
   37.8835   13.1792  -14.9293 N   0  0  0  0  0  0  0  0  0  0  0  0
   37.5675   12.3246  -15.9365 C   0  0  0  0  0  0  0  0  0  0  0  0
   36.3821   11.8265  -16.3761 C   0  0  0  0  0  0  0  0  0  0  0  0
   36.3087   10.9260  -17.4558 C   0  0  0  0  0  0  0  0  0  0  0  0
   37.4646   10.5302  -18.0928 C   0  0  0  0  0  0  0  0  0  0  0  0
   38.6931   11.0198  -17.6679 C   0  0  0  0  0  0  0  0  0  0  0  0
   38.7004   11.8986  -16.6055 C   0  0  0  0  0  0  0  0  0  0  0  0
   39.7524   12.4992  -15.9959 C   0  0  0  0  0  0  0  0  0  0  0  0
   41.1359   12.5319  -16.1749 C   0  0  0  0  0  0  0  0  0  0  0  0
   41.9170   11.7968  -17.2030 C   0  0  0  0  0  0  0  0  0  0  0  0
   43.2853   12.1773  -16.9489 N   0  0  0  0  0  0  0  0  0  0  0  0
   43.3511   13.0937  -15.8338 C   0  0  0  0  0  0  0  0  0  0  0  0
   44.4469   13.5427  -15.4546 O   0  0  0  0  0  0  0  0  0  0  0  0
   41.9887   13.2819  -15.3883 C   0  0  0  0  0  0  0  0  0  0  0  0
   41.4685   14.0475  -14.3575 C   0  0  0  0  0  0  0  0  0  0  0  0
   41.9820   14.8413  -13.3722 C   0  0  0  0  0  0  0  0  0  0  0  0
   43.2297   15.2512  -13.0354 C   0  0  0  0  0  0  0  0  0  0  0  0
   43.3838   16.0890  -11.9246 C   0  0  0  0  0  0  0  0  0  0  0  0
   42.2973   16.4934  -11.1840 C   0  0  0  0  0  0  0  0  0  0  0  0
   41.0226   16.0801  -11.5211 C   0  0  0  0  0  0  0  0  0  0  0  0
   40.8920   15.2490  -12.6268 C   0  0  0  0  0  0  0  0  0  0  0  0
   39.7719   14.7488  -13.1099 N   0  0  0  0  0  0  0  0  0  0  0  0
   40.1065   14.0025  -14.1963 C   0  0  0  0  0  0  0  0  0  0  0  0
   39.2440   13.2455  -15.0055 C   0  0  0  0  0  0  0  0  0  0  0  0
   44.0841   11.8241  -17.5066 H   0  0  0  0  0  0  0  0  0  0  0  0
   34.7902   15.8227  -10.6034 C   0  0  0  0  0  0  0  0  0  0  0  0
   35.3169   15.4214  -11.8736 N   0  0  0  0  0  0  0  0  0  0  0  0
   34.6130   15.1226  -12.5440 H   0  0  0  0  0  0  0  0  0  0  0  0
   35.0250   13.2474  -13.0409 O   0  0  0  0  0  0  0  0  0  0  0  0
   34.7347   11.9478  -13.3759 C   0  0  0  0  0  0  0  0  0  0  0  0
 33 34  1  0  0  0
 34  1  1  0  0  0
  1  2  1  0  0  0
  2  3  1  0  0  0
  3  4  1  0  0  0
  4  5  1  0  0  0
  5  6  1  0  0  0
  5  7  1  0  0  0
  7 36  1  0  0  0
 36 37  1  0  0  0
  5  8  1  0  0  0
  8  9  1  0  0  0
  9 10  2  0  0  0
 10 11  1  0  0  0
 11 12  2  0  0  0
 12 13  1  0  0  0
 13 14  2  0  0  0
 14 15  1  0  0  0
 15 16  2  0  0  0
 16 17  1  0  0  0
 17 18  1  0  0  0
 18 19  1  0  0  0
 19 20  2  0  0  0
 19 21  1  0  0  0
 21 22  2  0  0  0
 22 23  1  0  0  0
 23 24  2  0  0  0
 24 25  1  0  0  0
 25 26  2  0  0  0
 26 27  1  0  0  0
 27 28  2  0  0  0
 28 29  1  0  0  0
 29 30  1  0  0  0
 30 31  2  0  0  0
  7  1  1  0  0  0
 31  8  1  0  0  0
 29  3  1  0  0  0
 14  9  1  0  0  0
 31 15  1  0  0  0
 21 16  1  0  0  0
 30 22  1  0  0  0
 28 23  1  0  0  0
 34 35  1  0  0  0
 18 32  1  0  0  0
M  END
> <minimizedAffinity>
-11.78846

> <CNNscore>
0.5521911979

> <CNNaffinity>
7.1164803505

> <CNN_VS>
3.9296576977

> <CNNaffinity_variance>
0.0721416399

$$$$
[H]c1c([H])c([H])c2c(c1[H])c1c3c(c4c5c([H])c([H])c([H])c([H])c5n5c4c1n2[C@]1([H])O[C@]5(C([H])([H])[H])[C@]([H])(OC([H])([H])[H])[C@]([H])(N([H])C([H])([H])[H])C1([H])[H])C([H])([H])N([H])C3=O


 37 44  0  0  0  0  0  0  0  0999 V2000
   38.7217   15.6964  -10.1145 C   0  0  0  0  0  0  0  0  0  0  0  0
   40.0001   15.6626  -11.0171 C   0  0  0  0  0  0  0  0  0  0  0  0
   39.5055   15.0493  -12.1467 C   0  0  0  0  0  0  0  0  0  0  0  0
   38.4688   15.8672  -12.5720 O   0  0  0  0  0  0  0  0  0  0  0  0
   37.2629   15.2293  -12.1400 C   0  0  0  0  0  0  0  0  0  0  0  0
   36.2600   16.4001  -12.2835 C   0  0  0  0  0  0  0  0  0  0  0  0
   37.5444   14.9130  -10.7534 C   0  0  0  0  0  0  0  0  0  0  0  0
   36.9958   14.2291  -13.1482 N   0  0  0  0  0  0  0  0  0  0  0  0
   35.7738   13.7645  -13.5162 C   0  0  0  0  0  0  0  0  0  0  0  0
   34.5299   13.9546  -13.0034 C   0  0  0  0  0  0  0  0  0  0  0  0
   33.3929   13.3429  -13.5649 C   0  0  0  0  0  0  0  0  0  0  0  0
   33.5323   12.5253  -14.6652 C   0  0  0  0  0  0  0  0  0  0  0  0
   34.7899   12.3090  -15.2136 C   0  0  0  0  0  0  0  0  0  0  0  0
   35.8649   12.9357  -14.6196 C   0  0  0  0  0  0  0  0  0  0  0  0
   37.1800   12.8771  -14.9457 C   0  0  0  0  0  0  0  0  0  0  0  0
   37.9450   12.2655  -15.9396 C   0  0  0  0  0  0  0  0  0  0  0  0
   37.4488   11.3818  -17.0260 C   0  0  0  0  0  0  0  0  0  0  0  0
   38.6361   11.0251  -17.7640 N   0  0  0  0  0  0  0  0  0  0  0  0
   39.7981   11.6498  -17.1749 C   0  0  0  0  0  0  0  0  0  0  0  0
   40.9255   11.4675  -17.6668 O   0  0  0  0  0  0  0  0  0  0  0  0
   39.3149   12.4099  -16.0440 C   0  0  0  0  0  0  0  0  0  0  0  0
   39.9896   13.1948  -15.1231 C   0  0  0  0  0  0  0  0  0  0  0  0
   41.2945   13.5149  -14.8791 C   0  0  0  0  0  0  0  0  0  0  0  0
   42.4724   13.2312  -15.4874 C   0  0  0  0  0  0  0  0  0  0  0  0
   43.6526   13.7458  -14.9377 C   0  0  0  0  0  0  0  0  0  0  0  0
   43.6272   14.5246  -13.8040 C   0  0  0  0  0  0  0  0  0  0  0  0
   42.4306   14.8183  -13.1785 C   0  0  0  0  0  0  0  0  0  0  0  0
   41.2715   14.2975  -13.7404 C   0  0  0  0  0  0  0  0  0  0  0  0
   40.0393   14.4601  -13.3001 N   0  0  0  0  0  0  0  0  0  0  0  0
   39.2211   13.7878  -14.1531 C   0  0  0  0  0  0  0  0  0  0  0  0
   37.8275   13.6447  -14.0581 C   0  0  0  0  0  0  0  0  0  0  0  0
   38.6217   10.4058  -18.5946 H   0  0  0  0  0  0  0  0  0  0  0  0
   38.6444   17.3151   -8.4121 C   0  0  0  0  0  0  0  0  0  0  0  0
   38.3424   17.0228   -9.7816 N   0  0  0  0  0  0  0  0  0  0  0  0
   37.3981   17.2718  -10.0651 H   0  0  0  0  0  0  0  0  0  0  0  0
   36.4540   15.4203   -9.9813 O   0  0  0  0  0  0  0  0  0  0  0  0
   36.1156   14.5875   -8.9432 C   0  0  0  0  0  0  0  0  0  0  0  0
 33 34  1  0  0  0
 34  1  1  0  0  0
  1  2  1  0  0  0
  2  3  1  0  0  0
  3  4  1  0  0  0
  4  5  1  0  0  0
  5  6  1  0  0  0
  5  7  1  0  0  0
  7 36  1  0  0  0
 36 37  1  0  0  0
  5  8  1  0  0  0
  8  9  1  0  0  0
  9 10  2  0  0  0
 10 11  1  0  0  0
 11 12  2  0  0  0
 12 13  1  0  0  0
 13 14  2  0  0  0
 14 15  1  0  0  0
 15 16  2  0  0  0
 16 17  1  0  0  0
 17 18  1  0  0  0
 18 19  1  0  0  0
 19 20  2  0  0  0
 19 21  1  0  0  0
 21 22  2  0  0  0
 22 23  1  0  0  0
 23 24  2  0  0  0
 24 25  1  0  0  0
 25 26  2  0  0  0
 26 27  1  0  0  0
 27 28  2  0  0  0
 28 29  1  0  0  0
 29 30  1  0  0  0
 30 31  2  0  0  0
  7  1  1  0  0  0
 31  8  1  0  0  0
 29  3  1  0  0  0
 14  9  1  0  0  0
 31 15  1  0  0  0
 21 16  1  0  0  0
 30 22  1  0  0  0
 28 23  1  0  0  0
 34 35  1  0  0  0
 18 32  1  0  0  0
M  END
> <minimizedAffinity>
-10.63304

> <CNNscore>
0.3911268711

> <CNNaffinity>
6.9425187111

> <CNN_VS>
2.7154057026

> <CNNaffinity_variance>
0.0716995522

$$$$
[H]c1c([H])c([H])c2c(c1[H])c1c3c(c4c5c([H])c([H])c([H])c([H])c5n5c4c1n2[C@]1([H])O[C@]5(C([H])([H])[H])[C@]([H])(OC([H])([H])[H])[C@]([H])(N([H])C([H])([H])[H])C1([H])[H])C([H])([H])N([H])C3=O


 37 44  0  0  0  0  0  0  0  0999 V2000
   34.3021   13.8031  -12.5645 C   0  0  0  0  0  0  0  0  0  0  0  0
   35.3453   14.7852  -11.9343 C   0  0  0  0  0  0  0  0  0  0  0  0
   36.4511   14.5262  -12.7134 C   0  0  0  0  0  0  0  0  0  0  0  0
   36.0459   14.8027  -14.0111 O   0  0  0  0  0  0  0  0  0  0  0  0
   35.7743   13.5346  -14.6162 C   0  0  0  0  0  0  0  0  0  0  0  0
   34.9552   13.9834  -15.8510 C   0  0  0  0  0  0  0  0  0  0  0  0
   34.9528   12.8724  -13.6221 C   0  0  0  0  0  0  0  0  0  0  0  0
   37.0670   13.0451  -15.0375 N   0  0  0  0  0  0  0  0  0  0  0  0
   37.3120   12.2257  -16.0925 C   0  0  0  0  0  0  0  0  0  0  0  0
   36.4896   11.5383  -16.9277 C   0  0  0  0  0  0  0  0  0  0  0  0
   36.9910   10.7276  -17.9637 C   0  0  0  0  0  0  0  0  0  0  0  0
   38.3525   10.6191  -18.1459 C   0  0  0  0  0  0  0  0  0  0  0  0
   39.2212   11.3079  -17.3091 C   0  0  0  0  0  0  0  0  0  0  0  0
   38.6701   12.0856  -16.3129 C   0  0  0  0  0  0  0  0  0  0  0  0
   39.2897   12.8336  -15.3664 C   0  0  0  0  0  0  0  0  0  0  0  0
   40.6078   13.1535  -15.0388 C   0  0  0  0  0  0  0  0  0  0  0  0
   41.8359   12.6697  -15.7208 C   0  0  0  0  0  0  0  0  0  0  0  0
   42.9150   13.2927  -14.9936 N   0  0  0  0  0  0  0  0  0  0  0  0
   42.3909   14.1147  -13.9272 C   0  0  0  0  0  0  0  0  0  0  0  0
   43.1631   14.7411  -13.1805 O   0  0  0  0  0  0  0  0  0  0  0  0
   40.9520   13.9942  -13.9980 C   0  0  0  0  0  0  0  0  0  0  0  0
   39.9545   14.5593  -13.2202 C   0  0  0  0  0  0  0  0  0  0  0  0
   39.9103   15.3603  -12.1151 C   0  0  0  0  0  0  0  0  0  0  0  0
   40.8443   15.9818  -11.3538 C   0  0  0  0  0  0  0  0  0  0  0  0
   40.4190   16.7448  -10.2599 C   0  0  0  0  0  0  0  0  0  0  0  0
   39.0830   16.8674   -9.9562 C   0  0  0  0  0  0  0  0  0  0  0  0
   38.1252   16.2372  -10.7274 C   0  0  0  0  0  0  0  0  0  0  0  0
   38.5688   15.4849  -11.8081 C   0  0  0  0  0  0  0  0  0  0  0  0
   37.8215   14.8118  -12.6606 N   0  0  0  0  0  0  0  0  0  0  0  0
   38.6648   14.2331  -13.5568 C   0  0  0  0  0  0  0  0  0  0  0  0
   38.3212   13.3853  -14.6221 C   0  0  0  0  0  0  0  0  0  0  0  0
   43.9138   13.1491  -15.2294 H   0  0  0  0  0  0  0  0  0  0  0  0
   32.5112   15.2469  -12.0823 C   0  0  0  0  0  0  0  0  0  0  0  0
   33.1811   14.4908  -13.0980 N   0  0  0  0  0  0  0  0  0  0  0  0
   32.5659   13.9123  -13.6646 H   0  0  0  0  0  0  0  0  0  0  0  0
   33.7846   12.3992  -14.2960 O   0  0  0  0  0  0  0  0  0  0  0  0
   33.8537   11.0584  -14.5843 C   0  0  0  0  0  0  0  0  0  0  0  0
 33 34  1  0  0  0
 34  1  1  0  0  0
  1  2  1  0  0  0
  2  3  1  0  0  0
  3  4  1  0  0  0
  4  5  1  0  0  0
  5  6  1  0  0  0
  5  7  1  0  0  0
  7 36  1  0  0  0
 36 37  1  0  0  0
  5  8  1  0  0  0
  8  9  1  0  0  0
  9 10  2  0  0  0
 10 11  1  0  0  0
 11 12  2  0  0  0
 12 13  1  0  0  0
 13 14  2  0  0  0
 14 15  1  0  0  0
 15 16  2  0  0  0
 16 17  1  0  0  0
 17 18  1  0  0  0
 18 19  1  0  0  0
 19 20  2  0  0  0
 19 21  1  0  0  0
 21 22  2  0  0  0
 22 23  1  0  0  0
 23 24  2  0  0  0
 24 25  1  0  0  0
 25 26  2  0  0  0
 26 27  1  0  0  0
 27 28  2  0  0  0
 28 29  1  0  0  0
 29 30  1  0  0  0
 30 31  2  0  0  0
  7  1  1  0  0  0
 31  8  1  0  0  0
 29  3  1  0  0  0
 14  9  1  0  0  0
 31 15  1  0  0  0
 21 16  1  0  0  0
 30 22  1  0  0  0
 28 23  1  0  0  0
 34 35  1  0  0  0
 18 32  1  0  0  0
M  END
> <minimizedAffinity>
-10.72787

> <CNNscore>
0.3535740674

> <CNNaffinity>
6.9489417076

> <CNN_VS>
2.4569656849

> <CNNaffinity_variance>
0.2243199050

$$$$
[H]c1c([H])c([H])c2c(c1[H])c1c3c(c4c5c([H])c([H])c([H])c([H])c5n5c4c1n2[C@]1([H])O[C@]5(C([H])([H])[H])[C@]([H])(OC([H])([H])[H])[C@]([H])(N([H])C([H])([H])[H])C1([H])[H])C([H])([H])N([H])C3=O


 37 44  0  0  0  0  0  0  0  0999 V2000
   43.9944   14.0396  -12.0989 C   0  0  0  0  0  0  0  0  0  0  0  0
   44.6643   12.6609  -11.7818 C   0  0  0  0  0  0  0  0  0  0  0  0
   45.0264   12.8435  -10.4656 C   0  0  0  0  0  0  0  0  0  0  0  0
   43.8390   13.1216   -9.8042 O   0  0  0  0  0  0  0  0  0  0  0  0
   43.8176   14.5399   -9.6155 C   0  0  0  0  0  0  0  0  0  0  0  0
   42.3216   14.7550   -9.2793 C   0  0  0  0  0  0  0  0  0  0  0  0
   44.1643   15.0452  -10.9293 C   0  0  0  0  0  0  0  0  0  0  0  0
   44.6218   14.7650   -8.4362 N   0  0  0  0  0  0  0  0  0  0  0  0
   44.4770   15.7802   -7.5457 C   0  0  0  0  0  0  0  0  0  0  0  0
   43.7033   16.8972   -7.5491 C   0  0  0  0  0  0  0  0  0  0  0  0
   43.7369   17.8280   -6.4933 C   0  0  0  0  0  0  0  0  0  0  0  0
   44.5745   17.6120   -5.4208 C   0  0  0  0  0  0  0  0  0  0  0  0
   45.3794   16.4805   -5.3863 C   0  0  0  0  0  0  0  0  0  0  0  0
   45.3021   15.6060   -6.4495 C   0  0  0  0  0  0  0  0  0  0  0  0
   45.9843   14.4538   -6.6643 C   0  0  0  0  0  0  0  0  0  0  0  0
   46.9281   13.6974   -5.9684 C   0  0  0  0  0  0  0  0  0  0  0  0
   47.5260   14.0190   -4.6468 C   0  0  0  0  0  0  0  0  0  0  0  0
   48.4306   12.9247   -4.3904 N   0  0  0  0  0  0  0  0  0  0  0  0
   48.3960   11.9801   -5.4831 C   0  0  0  0  0  0  0  0  0  0  0  0
   49.1072   10.9606   -5.4539 O   0  0  0  0  0  0  0  0  0  0  0  0
   47.4467   12.5063   -6.4382 C   0  0  0  0  0  0  0  0  0  0  0  0
   47.0272   12.0170   -7.6646 C   0  0  0  0  0  0  0  0  0  0  0  0
   47.3442   10.9475   -8.4523 C   0  0  0  0  0  0  0  0  0  0  0  0
   48.1740    9.8834   -8.3213 C   0  0  0  0  0  0  0  0  0  0  0  0
   48.2468    8.9563   -9.3676 C   0  0  0  0  0  0  0  0  0  0  0  0
   47.4952    9.1135  -10.5091 C   0  0  0  0  0  0  0  0  0  0  0  0
   46.6471   10.1952  -10.6499 C   0  0  0  0  0  0  0  0  0  0  0  0
   46.5901   11.1032   -9.5998 C   0  0  0  0  0  0  0  0  0  0  0  0
   45.8496   12.1923   -9.5379 N   0  0  0  0  0  0  0  0  0  0  0  0
   46.0993   12.7742   -8.3344 C   0  0  0  0  0  0  0  0  0  0  0  0
   45.5690   13.9795   -7.8470 C   0  0  0  0  0  0  0  0  0  0  0  0
   49.0089   12.8572   -3.5332 H   0  0  0  0  0  0  0  0  0  0  0  0
   42.5016   13.6145  -13.8638 C   0  0  0  0  0  0  0  0  0  0  0  0
   42.6309   13.8951  -12.4650 N   0  0  0  0  0  0  0  0  0  0  0  0
   42.0260   14.6403  -12.1291 H   0  0  0  0  0  0  0  0  0  0  0  0
   43.1705   16.0109  -11.2793 O   0  0  0  0  0  0  0  0  0  0  0  0
   43.6625   16.9934  -12.1028 C   0  0  0  0  0  0  0  0  0  0  0  0
 33 34  1  0  0  0
 34  1  1  0  0  0
  1  2  1  0  0  0
  2  3  1  0  0  0
  3  4  1  0  0  0
  4  5  1  0  0  0
  5  6  1  0  0  0
  5  7  1  0  0  0
  7 36  1  0  0  0
 36 37  1  0  0  0
  5  8  1  0  0  0
  8  9  1  0  0  0
  9 10  2  0  0  0
 10 11  1  0  0  0
 11 12  2  0  0  0
 12 13  1  0  0  0
 13 14  2  0  0  0
 14 15  1  0  0  0
 15 16  2  0  0  0
 16 17  1  0  0  0
 17 18  1  0  0  0
 18 19  1  0  0  0
 19 20  2  0  0  0
 19 21  1  0  0  0
 21 22  2  0  0  0
 22 23  1  0  0  0
 23 24  2  0  0  0
 24 25  1  0  0  0
 25 26  2  0  0  0
 26 27  1  0  0  0
 27 28  2  0  0  0
 28 29  1  0  0  0
 29 30  1  0  0  0
 30 31  2  0  0  0
  7  1  1  0  0  0
 31  8  1  0  0  0
 29  3  1  0  0  0
 14  9  1  0  0  0
 31 15  1  0  0  0
 21 16  1  0  0  0
 30 22  1  0  0  0
 28 23  1  0  0  0
 34 35  1  0  0  0
 18 32  1  0  0  0
M  END
> <minimizedAffinity>
-5.43998

> <CNNscore>
0.1895827651

> <CNNaffinity>
5.2198944092

> <CNN_VS>
0.9896020293

> <CNNaffinity_variance>
0.1007912159

$$$$
[H]c1c([H])c([H])c2c(c1[H])c1c3c(c4c5c([H])c([H])c([H])c([H])c5n5c4c1n2[C@]1([H])O[C@]5(C([H])([H])[H])[C@]([H])(OC([H])([H])[H])[C@]([H])(N([H])C([H])([H])[H])C1([H])[H])C([H])([H])N([H])C3=O


 37 44  0  0  0  0  0  0  0  0999 V2000
   44.6584   14.1383  -11.0708 C   0  0  0  0  0  0  0  0  0  0  0  0
   43.2665   14.2824  -10.3694 C   0  0  0  0  0  0  0  0  0  0  0  0
   43.5134   15.3325   -9.5132 C   0  0  0  0  0  0  0  0  0  0  0  0
   43.9036   16.3793  -10.3358 O   0  0  0  0  0  0  0  0  0  0  0  0
   45.3300   16.4424  -10.2410 C   0  0  0  0  0  0  0  0  0  0  0  0
   45.6543   17.3168  -11.4770 C   0  0  0  0  0  0  0  0  0  0  0  0
   45.7268   15.0603  -10.4256 C   0  0  0  0  0  0  0  0  0  0  0  0
   45.5844   17.1908   -9.0313 N   0  0  0  0  0  0  0  0  0  0  0  0
   46.6624   17.9792   -8.7849 C   0  0  0  0  0  0  0  0  0  0  0  0
   47.8204   18.1850   -9.4654 C   0  0  0  0  0  0  0  0  0  0  0  0
   48.8149   19.0622   -8.9924 C   0  0  0  0  0  0  0  0  0  0  0  0
   48.6208   19.7365   -7.8066 C   0  0  0  0  0  0  0  0  0  0  0  0
   47.4487   19.5481   -7.0855 C   0  0  0  0  0  0  0  0  0  0  0  0
   46.5124   18.6765   -7.6001 C   0  0  0  0  0  0  0  0  0  0  0  0
   45.3104   18.3093   -7.0904 C   0  0  0  0  0  0  0  0  0  0  0  0
   44.5471   18.6419   -5.9707 C   0  0  0  0  0  0  0  0  0  0  0  0
   44.9190   19.5933   -4.8918 C   0  0  0  0  0  0  0  0  0  0  0  0
   43.7926   19.5665   -3.9906 N   0  0  0  0  0  0  0  0  0  0  0  0
   42.7820   18.6569   -4.4796 C   0  0  0  0  0  0  0  0  0  0  0  0
   41.7266   18.4911   -3.8434 O   0  0  0  0  0  0  0  0  0  0  0  0
   43.2993   18.1080   -5.7130 C   0  0  0  0  0  0  0  0  0  0  0  0
   42.7562   17.1883   -6.5952 C   0  0  0  0  0  0  0  0  0  0  0  0
   41.6205   16.4315   -6.6445 C   0  0  0  0  0  0  0  0  0  0  0  0
   40.5204   16.3164   -5.8606 C   0  0  0  0  0  0  0  0  0  0  0  0
   39.5240   15.4060   -6.2321 C   0  0  0  0  0  0  0  0  0  0  0  0
   39.6498   14.6398   -7.3677 C   0  0  0  0  0  0  0  0  0  0  0  0
   40.7680   14.7516   -8.1718 C   0  0  0  0  0  0  0  0  0  0  0  0
   41.7447   15.6609   -7.7848 C   0  0  0  0  0  0  0  0  0  0  0  0
   42.8772   15.9160   -8.4100 N   0  0  0  0  0  0  0  0  0  0  0  0
   43.5210   16.8733   -7.6901 C   0  0  0  0  0  0  0  0  0  0  0  0
   44.7848   17.4267   -7.9513 C   0  0  0  0  0  0  0  0  0  0  0  0
   43.7475   20.1323   -3.1237 H   0  0  0  0  0  0  0  0  0  0  0  0
   43.3814   13.7533  -13.0061 C   0  0  0  0  0  0  0  0  0  0  0  0
   44.5706   14.3470  -12.4718 N   0  0  0  0  0  0  0  0  0  0  0  0
   45.4194   14.1187  -12.9830 H   0  0  0  0  0  0  0  0  0  0  0  0
   46.7242   15.0470  -11.4492 O   0  0  0  0  0  0  0  0  0  0  0  0
   47.9097   14.5045  -11.0177 C   0  0  0  0  0  0  0  0  0  0  0  0
 33 34  1  0  0  0
 34  1  1  0  0  0
  1  2  1  0  0  0
  2  3  1  0  0  0
  3  4  1  0  0  0
  4  5  1  0  0  0
  5  6  1  0  0  0
  5  7  1  0  0  0
  7 36  1  0  0  0
 36 37  1  0  0  0
  5  8  1  0  0  0
  8  9  1  0  0  0
  9 10  2  0  0  0
 10 11  1  0  0  0
 11 12  2  0  0  0
 12 13  1  0  0  0
 13 14  2  0  0  0
 14 15  1  0  0  0
 15 16  2  0  0  0
 16 17  1  0  0  0
 17 18  1  0  0  0
 18 19  1  0  0  0
 19 20  2  0  0  0
 19 21  1  0  0  0
 21 22  2  0  0  0
 22 23  1  0  0  0
 23 24  2  0  0  0
 24 25  1  0  0  0
 25 26  2  0  0  0
 26 27  1  0  0  0
 27 28  2  0  0  0
 28 29  1  0  0  0
 29 30  1  0  0  0
 30 31  2  0  0  0
  7  1  1  0  0  0
 31  8  1  0  0  0
 29  3  1  0  0  0
 14  9  1  0  0  0
 31 15  1  0  0  0
 21 16  1  0  0  0
 30 22  1  0  0  0
 28 23  1  0  0  0
 34 35  1  0  0  0
 18 32  1  0  0  0
M  END
> <minimizedAffinity>
-4.48055

> <CNNscore>
0.1892379373

> <CNNaffinity>
5.0761113167

> <CNN_VS>
0.9605928063

> <CNNaffinity_variance>
0.3171485066

$$$$
[H]c1c([H])c([H])c2c(c1[H])c1c3c(c4c5c([H])c([H])c([H])c([H])c5n5c4c1n2[C@]1([H])O[C@]5(C([H])([H])[H])[C@]([H])(OC([H])([H])[H])[C@]([H])(N([H])C([H])([H])[H])C1([H])[H])C([H])([H])N([H])C3=O


 37 44  0  0  0  0  0  0  0  0999 V2000
   34.7107   12.4167  -15.7408 C   0  0  0  0  0  0  0  0  0  0  0  0
   35.9586   11.8074  -16.4628 C   0  0  0  0  0  0  0  0  0  0  0  0
   36.9790   12.2981  -15.6787 C   0  0  0  0  0  0  0  0  0  0  0  0
   36.7087   11.8236  -14.4034 O   0  0  0  0  0  0  0  0  0  0  0  0
   36.1247   12.9196  -13.6923 C   0  0  0  0  0  0  0  0  0  0  0  0
   35.5007   12.1717  -12.4887 C   0  0  0  0  0  0  0  0  0  0  0  0
   35.1208   13.4063  -14.6181 C   0  0  0  0  0  0  0  0  0  0  0  0
   37.2502   13.7096  -13.2480 N   0  0  0  0  0  0  0  0  0  0  0  0
   37.3001   14.4820  -12.1320 C   0  0  0  0  0  0  0  0  0  0  0  0
   36.3514   14.8533  -11.2328 C   0  0  0  0  0  0  0  0  0  0  0  0
   36.6498   15.6887  -10.1395 C   0  0  0  0  0  0  0  0  0  0  0  0
   37.9364   16.1503   -9.9658 C   0  0  0  0  0  0  0  0  0  0  0  0
   38.9299   15.7904  -10.8674 C   0  0  0  0  0  0  0  0  0  0  0  0
   38.5762   14.9700  -11.9176 C   0  0  0  0  0  0  0  0  0  0  0  0
   39.3423   14.4938  -12.9302 C   0  0  0  0  0  0  0  0  0  0  0  0
   40.6858   14.5715  -13.2993 C   0  0  0  0  0  0  0  0  0  0  0  0
   41.7596   15.3186  -12.5949 C   0  0  0  0  0  0  0  0  0  0  0  0
   42.9415   15.0708  -13.3844 N   0  0  0  0  0  0  0  0  0  0  0  0
   42.6233   14.2207  -14.5085 C   0  0  0  0  0  0  0  0  0  0  0  0
   43.5102   13.8875  -15.3138 O   0  0  0  0  0  0  0  0  0  0  0  0
   41.2088   13.9384  -14.4102 C   0  0  0  0  0  0  0  0  0  0  0  0
   40.3756   13.1836  -15.2197 C   0  0  0  0  0  0  0  0  0  0  0  0
   40.5121   12.4874  -16.3866 C   0  0  0  0  0  0  0  0  0  0  0  0
   41.5528   12.2041  -17.2081 C   0  0  0  0  0  0  0  0  0  0  0  0
   41.3128   11.4397  -18.3560 C   0  0  0  0  0  0  0  0  0  0  0  0
   40.0503   10.9808  -18.6523 C   0  0  0  0  0  0  0  0  0  0  0  0
   38.9847   11.2651  -17.8198 C   0  0  0  0  0  0  0  0  0  0  0  0
   39.2448   12.0253  -16.6863 C   0  0  0  0  0  0  0  0  0  0  0  0
   38.3728   12.4021  -15.7718 N   0  0  0  0  0  0  0  0  0  0  0  0
   39.0582   13.1189  -14.8414 C   0  0  0  0  0  0  0  0  0  0  0  0
   38.5346   13.7571  -13.7056 C   0  0  0  0  0  0  0  0  0  0  0  0
   43.8715   15.4631  -13.1499 H   0  0  0  0  0  0  0  0  0  0  0  0
   33.2759   10.6504  -16.3289 C   0  0  0  0  0  0  0  0  0  0  0  0
   33.8369   11.4108  -15.2522 N   0  0  0  0  0  0  0  0  0  0  0  0
   33.1561   11.7414  -14.5730 H   0  0  0  0  0  0  0  0  0  0  0  0
   33.8920   13.4901  -13.8930 O   0  0  0  0  0  0  0  0  0  0  0  0
   33.6684   14.7463  -13.3856 C   0  0  0  0  0  0  0  0  0  0  0  0
 33 34  1  0  0  0
 34  1  1  0  0  0
  1  2  1  0  0  0
  2  3  1  0  0  0
  3  4  1  0  0  0
  4  5  1  0  0  0
  5  6  1  0  0  0
  5  7  1  0  0  0
  7 36  1  0  0  0
 36 37  1  0  0  0
  5  8  1  0  0  0
  8  9  1  0  0  0
  9 10  2  0  0  0
 10 11  1  0  0  0
 11 12  2  0  0  0
 12 13  1  0  0  0
 13 14  2  0  0  0
 14 15  1  0  0  0
 15 16  2  0  0  0
 16 17  1  0  0  0
 17 18  1  0  0  0
 18 19  1  0  0  0
 19 20  2  0  0  0
 19 21  1  0  0  0
 21 22  2  0  0  0
 22 23  1  0  0  0
 23 24  2  0  0  0
 24 25  1  0  0  0
 25 26  2  0  0  0
 26 27  1  0  0  0
 27 28  2  0  0  0
 28 29  1  0  0  0
 29 30  1  0  0  0
 30 31  2  0  0  0
  7  1  1  0  0  0
 31  8  1  0  0  0
 29  3  1  0  0  0
 14  9  1  0  0  0
 31 15  1  0  0  0
 21 16  1  0  0  0
 30 22  1  0  0  0
 28 23  1  0  0  0
 34 35  1  0  0  0
 18 32  1  0  0  0
M  END
> <minimizedAffinity>
-9.94564

> <CNNscore>
0.1658798456

> <CNNaffinity>
6.5279655457

> <CNN_VS>
1.0828579664

> <CNNaffinity_variance>
0.3203697801

$$$$
[H]c1c([H])c([H])c2c(c1[H])c1c3c(c4c5c([H])c([H])c([H])c([H])c5n5c4c1n2[C@]1([H])O[C@]5(C([H])([H])[H])[C@]([H])(OC([H])([H])[H])[C@]([H])(N([H])C([H])([H])[H])C1([H])[H])C([H])([H])N([H])C3=O


 37 44  0  0  0  0  0  0  0  0999 V2000
   40.8668   13.5689  -15.9792 C   0  0  0  0  0  0  0  0  0  0  0  0
   40.8787   14.2350  -14.5628 C   0  0  0  0  0  0  0  0  0  0  0  0
   39.5670   14.0603  -14.1814 C   0  0  0  0  0  0  0  0  0  0  0  0
   39.3642   12.6884  -14.2187 O   0  0  0  0  0  0  0  0  0  0  0  0
   38.6633   12.4281  -15.4388 C   0  0  0  0  0  0  0  0  0  0  0  0
   38.8763   10.8996  -15.5635 C   0  0  0  0  0  0  0  0  0  0  0  0
   39.4319   13.1722  -16.4172 C   0  0  0  0  0  0  0  0  0  0  0  0
   37.2787   12.7063  -15.1327 N   0  0  0  0  0  0  0  0  0  0  0  0
   36.1951   12.1215  -15.7058 C   0  0  0  0  0  0  0  0  0  0  0  0
   36.0626   11.2754  -16.7608 C   0  0  0  0  0  0  0  0  0  0  0  0
   34.8046   10.8042  -17.1823 C   0  0  0  0  0  0  0  0  0  0  0  0
   33.6679   11.2057  -16.5150 C   0  0  0  0  0  0  0  0  0  0  0  0
   33.7681   12.0708  -15.4330 C   0  0  0  0  0  0  0  0  0  0  0  0
   35.0272   12.4977  -15.0677 C   0  0  0  0  0  0  0  0  0  0  0  0
   35.3913   13.3444  -14.0729 C   0  0  0  0  0  0  0  0  0  0  0  0
   34.7387   14.0480  -13.0598 C   0  0  0  0  0  0  0  0  0  0  0  0
   33.2773   14.0718  -12.7931 C   0  0  0  0  0  0  0  0  0  0  0  0
   33.1387   14.9423  -11.6509 N   0  0  0  0  0  0  0  0  0  0  0  0
   34.4334   15.4279  -11.2317 C   0  0  0  0  0  0  0  0  0  0  0  0
   34.5305   16.1952  -10.2581 O   0  0  0  0  0  0  0  0  0  0  0  0
   35.3944   14.8428  -12.1396 C   0  0  0  0  0  0  0  0  0  0  0  0
   36.7724   14.9683  -12.2070 C   0  0  0  0  0  0  0  0  0  0  0  0
   37.7247   15.6802  -11.5352 C   0  0  0  0  0  0  0  0  0  0  0  0
   37.7082   16.5246  -10.4746 C   0  0  0  0  0  0  0  0  0  0  0  0
   38.9157   17.0899  -10.0481 C   0  0  0  0  0  0  0  0  0  0  0  0
   40.0997   16.8002  -10.6858 C   0  0  0  0  0  0  0  0  0  0  0  0
   40.1246   15.9405  -11.7673 C   0  0  0  0  0  0  0  0  0  0  0  0
   38.9153   15.3907  -12.1742 C   0  0  0  0  0  0  0  0  0  0  0  0
   38.7261   14.5544  -13.1758 N   0  0  0  0  0  0  0  0  0  0  0  0
   37.3968   14.2697  -13.2096 C   0  0  0  0  0  0  0  0  0  0  0  0
   36.7254   13.4558  -14.1361 C   0  0  0  0  0  0  0  0  0  0  0  0
   32.2246   15.1665  -11.2175 H   0  0  0  0  0  0  0  0  0  0  0  0
   43.0907   12.8569  -15.7118 C   0  0  0  0  0  0  0  0  0  0  0  0
   41.7559   12.4653  -16.0539 N   0  0  0  0  0  0  0  0  0  0  0  0
   41.6841   11.9273  -16.9138 H   0  0  0  0  0  0  0  0  0  0  0  0
   39.7331   12.2696  -17.4836 O   0  0  0  0  0  0  0  0  0  0  0  0
   40.0448   12.9233  -18.6503 C   0  0  0  0  0  0  0  0  0  0  0  0
 33 34  1  0  0  0
 34  1  1  0  0  0
  1  2  1  0  0  0
  2  3  1  0  0  0
  3  4  1  0  0  0
  4  5  1  0  0  0
  5  6  1  0  0  0
  5  7  1  0  0  0
  7 36  1  0  0  0
 36 37  1  0  0  0
  5  8  1  0  0  0
  8  9  1  0  0  0
  9 10  2  0  0  0
 10 11  1  0  0  0
 11 12  2  0  0  0
 12 13  1  0  0  0
 13 14  2  0  0  0
 14 15  1  0  0  0
 15 16  2  0  0  0
 16 17  1  0  0  0
 17 18  1  0  0  0
 18 19  1  0  0  0
 19 20  2  0  0  0
 19 21  1  0  0  0
 21 22  2  0  0  0
 22 23  1  0  0  0
 23 24  2  0  0  0
 24 25  1  0  0  0
 25 26  2  0  0  0
 26 27  1  0  0  0
 27 28  2  0  0  0
 28 29  1  0  0  0
 29 30  1  0  0  0
 30 31  2  0  0  0
  7  1  1  0  0  0
 31  8  1  0  0  0
 29  3  1  0  0  0
 14  9  1  0  0  0
 31 15  1  0  0  0
 21 16  1  0  0  0
 30 22  1  0  0  0
 28 23  1  0  0  0
 34 35  1  0  0  0
 18 32  1  0  0  0
M  END
> <minimizedAffinity>
-10.59972

> <CNNscore>
0.1482236087

> <CNNaffinity>
6.5995507240

> <CNN_VS>
0.9782091975

> <CNNaffinity_variance>
0.1473478973

$$$$
[H]c1c([H])c([H])c2c(c1[H])c1c3c(c4c5c([H])c([H])c([H])c([H])c5n5c4c1n2[C@]1([H])O[C@]5(C([H])([H])[H])[C@]([H])(OC([H])([H])[H])[C@]([H])(N([H])C([H])([H])[H])C1([H])[H])C([H])([H])N([H])C3=O


 37 44  0  0  0  0  0  0  0  0999 V2000
   44.3839   16.4600  -12.3031 C   0  0  0  0  0  0  0  0  0  0  0  0
   45.7543   16.9462  -11.7239 C   0  0  0  0  0  0  0  0  0  0  0  0
   45.4539   17.0346  -10.3827 C   0  0  0  0  0  0  0  0  0  0  0  0
   45.0479   15.7577  -10.0231 O   0  0  0  0  0  0  0  0  0  0  0  0
   43.6184   15.7997   -9.9735 C   0  0  0  0  0  0  0  0  0  0  0  0
   43.2931   14.2861   -9.9913 C   0  0  0  0  0  0  0  0  0  0  0  0
   43.2715   16.4516  -11.2211 C   0  0  0  0  0  0  0  0  0  0  0  0
   43.3127   16.3511   -8.6733 N   0  0  0  0  0  0  0  0  0  0  0  0
   42.2040   16.0955   -7.9317 C   0  0  0  0  0  0  0  0  0  0  0  0
   41.0553   15.4229   -8.2047 C   0  0  0  0  0  0  0  0  0  0  0  0
   40.0222   15.3003   -7.2561 C   0  0  0  0  0  0  0  0  0  0  0  0
   40.1676   15.8748   -6.0122 C   0  0  0  0  0  0  0  0  0  0  0  0
   41.3289   16.5702   -5.7008 C   0  0  0  0  0  0  0  0  0  0  0  0
   42.3047   16.6558   -6.6713 C   0  0  0  0  0  0  0  0  0  0  0  0
   43.5064   17.2827   -6.6269 C   0  0  0  0  0  0  0  0  0  0  0  0
   44.2333   18.0011   -5.6767 C   0  0  0  0  0  0  0  0  0  0  0  0
   43.8064   18.3282   -4.2918 C   0  0  0  0  0  0  0  0  0  0  0  0
   44.9127   19.0766   -3.7464 N   0  0  0  0  0  0  0  0  0  0  0  0
   45.9633   19.2051   -4.7299 C   0  0  0  0  0  0  0  0  0  0  0  0
   47.0093   19.8184   -4.4542 O   0  0  0  0  0  0  0  0  0  0  0  0
   45.4919   18.5194   -5.9123 C   0  0  0  0  0  0  0  0  0  0  0  0
   46.0846   18.3339   -7.1507 C   0  0  0  0  0  0  0  0  0  0  0  0
   47.2453   18.7317   -7.7500 C   0  0  0  0  0  0  0  0  0  0  0  0
   48.3310   19.4359   -7.3455 C   0  0  0  0  0  0  0  0  0  0  0  0
   49.3648   19.6605   -8.2622 C   0  0  0  0  0  0  0  0  0  0  0  0
   49.2896   19.1802   -9.5491 C   0  0  0  0  0  0  0  0  0  0  0  0
   48.1865   18.4615   -9.9687 C   0  0  0  0  0  0  0  0  0  0  0  0
   47.1720   18.2501   -9.0432 C   0  0  0  0  0  0  0  0  0  0  0  0
   46.0459   17.5941   -9.2430 N   0  0  0  0  0  0  0  0  0  0  0  0
   45.3550   17.6257   -8.0721 C   0  0  0  0  0  0  0  0  0  0  0  0
   44.0798   17.0931   -7.8234 C   0  0  0  0  0  0  0  0  0  0  0  0
   44.9198   19.4545   -2.7816 H   0  0  0  0  0  0  0  0  0  0  0  0
   45.4207   15.2551  -14.0345 C   0  0  0  0  0  0  0  0  0  0  0  0
   44.4959   15.1977  -12.9420 N   0  0  0  0  0  0  0  0  0  0  0  0
   43.6051   14.7629  -13.1690 H   0  0  0  0  0  0  0  0  0  0  0  0
   42.2981   15.6267  -11.8650 O   0  0  0  0  0  0  0  0  0  0  0  0
   41.1832   16.3323  -12.2453 C   0  0  0  0  0  0  0  0  0  0  0  0
 33 34  1  0  0  0
 34  1  1  0  0  0
  1  2  1  0  0  0
  2  3  1  0  0  0
  3  4  1  0  0  0
  4  5  1  0  0  0
  5  6  1  0  0  0
  5  7  1  0  0  0
  7 36  1  0  0  0
 36 37  1  0  0  0
  5  8  1  0  0  0
  8  9  1  0  0  0
  9 10  2  0  0  0
 10 11  1  0  0  0
 11 12  2  0  0  0
 12 13  1  0  0  0
 13 14  2  0  0  0
 14 15  1  0  0  0
 15 16  2  0  0  0
 16 17  1  0  0  0
 17 18  1  0  0  0
 18 19  1  0  0  0
 19 20  2  0  0  0
 19 21  1  0  0  0
 21 22  2  0  0  0
 22 23  1  0  0  0
 23 24  2  0  0  0
 24 25  1  0  0  0
 25 26  2  0  0  0
 26 27  1  0  0  0
 27 28  2  0  0  0
 28 29  1  0  0  0
 29 30  1  0  0  0
 30 31  2  0  0  0
  7  1  1  0  0  0
 31  8  1  0  0  0
 29  3  1  0  0  0
 14  9  1  0  0  0
 31 15  1  0  0  0
 21 16  1  0  0  0
 30 22  1  0  0  0
 28 23  1  0  0  0
 34 35  1  0  0  0
 18 32  1  0  0  0
M  END
> <minimizedAffinity>
-4.54657

> <CNNscore>
0.1480215937

> <CNNaffinity>
5.0459299088

> <CNN_VS>
0.7469065785

> <CNNaffinity_variance>
0.4068617821

$$$$
[H]c1c([H])c([H])c(/C(=C2/C(=O)N([H])c3c([H])c(C(=O)OC([H])([H])[H])c([H])c([H])c32)N([H])c2c([H])c([H])c(N(C(=O)C([H])([H])N3C([H])([H])C([H])([H])N(C([H])([H])[H])C([H])([H])C3([H])[H])C([H])([H])[H])c([H])c2[H])c([H])c1[H]


 42 46  0  0  0  0  0  0  0  0999 V2000
   39.9006   12.1031  -17.1502 C   0  0  0  0  0  0  0  0  0  0  0  0
   38.6109   12.1025  -16.7156 C   0  0  0  0  0  0  0  0  0  0  0  0
   38.1872   12.8725  -15.6261 C   0  0  0  0  0  0  0  0  0  0  0  0
   39.1269   13.6418  -14.9941 C   0  0  0  0  0  0  0  0  0  0  0  0
   39.0033   14.5509  -13.8690 C   0  0  0  0  0  0  0  0  0  0  0  0
   37.9735   14.7720  -13.0964 C   0  0  0  0  0  0  0  0  0  0  0  0
   40.3722   15.1155  -13.6724 C   0  0  0  0  0  0  0  0  0  0  0  0
   40.7118   15.9379  -12.8167 O   0  0  0  0  0  0  0  0  0  0  0  0
   41.2321   14.5432  -14.6444 N   0  0  0  0  0  0  0  0  0  0  0  0
   40.4510   13.6551  -15.4282 C   0  0  0  0  0  0  0  0  0  0  0  0
   40.8336   12.8846  -16.5054 C   0  0  0  0  0  0  0  0  0  0  0  0
   42.2691   14.7370  -14.7703 H   0  0  0  0  0  0  0  0  0  0  0  0
   36.7613   14.0131  -13.1130 C   0  0  0  0  0  0  0  0  0  0  0  0
   36.5969   12.7173  -12.6826 C   0  0  0  0  0  0  0  0  0  0  0  0
   35.4240   12.0248  -12.8426 C   0  0  0  0  0  0  0  0  0  0  0  0
   34.3569   12.6264  -13.4536 C   0  0  0  0  0  0  0  0  0  0  0  0
   34.4682   13.9198  -13.9019 C   0  0  0  0  0  0  0  0  0  0  0  0
   35.6432   14.5977  -13.7357 C   0  0  0  0  0  0  0  0  0  0  0  0
   40.3673   11.3098  -18.2794 C   0  0  0  0  0  0  0  0  0  0  0  0
   41.5286   11.3697  -18.7273 O   0  0  0  0  0  0  0  0  0  0  0  0
   38.3391   10.8929  -19.6060 C   0  0  0  0  0  0  0  0  0  0  0  0
   39.4502   10.4465  -18.8733 O   0  0  0  0  0  0  0  0  0  0  0  0
   38.1205   15.7394  -12.0658 N   0  0  0  0  0  0  0  0  0  0  0  0
   38.2092   16.7401  -12.4155 H   0  0  0  0  0  0  0  0  0  0  0  0
   38.1514   15.4455  -10.6784 C   0  0  0  0  0  0  0  0  0  0  0  0
   39.3149   15.4410   -9.9453 C   0  0  0  0  0  0  0  0  0  0  0  0
   39.3090   15.1485   -8.5759 C   0  0  0  0  0  0  0  0  0  0  0  0
   38.1267   14.8592   -7.9397 C   0  0  0  0  0  0  0  0  0  0  0  0
   36.9637   14.8634   -8.6707 C   0  0  0  0  0  0  0  0  0  0  0  0
   36.9698   15.1543  -10.0333 C   0  0  0  0  0  0  0  0  0  0  0  0
   38.1273   14.5576   -6.5128 N   0  0  0  0  0  0  0  0  0  0  0  0
   38.8446   13.3492   -6.1730 C   0  0  0  0  0  0  0  0  0  0  0  0
   37.5281   15.4036   -5.5927 C   0  0  0  0  0  0  0  0  0  0  0  0
   37.1140   16.5368   -6.1227 O   0  0  0  0  0  0  0  0  0  0  0  0
   37.2700   15.2904   -4.1634 C   0  0  0  0  0  0  0  0  0  0  0  0
   36.0135   14.9067   -3.6859 N   0  0  0  0  0  0  0  0  0  0  0  0
   35.4555   13.6793   -4.1413 C   0  0  0  0  0  0  0  0  0  0  0  0
   34.3461   13.8898   -5.1478 C   0  0  0  0  0  0  0  0  0  0  0  0
   33.3207   14.7563   -4.6816 N   0  0  0  0  0  0  0  0  0  0  0  0
   32.4558   15.2788   -5.6731 C   0  0  0  0  0  0  0  0  0  0  0  0
   33.6468   15.6021   -3.5947 C   0  0  0  0  0  0  0  0  0  0  0  0
   35.0703   15.9129   -3.3614 C   0  0  0  0  0  0  0  0  0  0  0  0
 21 22  1  0  0  0
 22 19  1  0  0  0
 19 20  2  0  0  0
 19  1  1  0  0  0
  1  2  2  0  0  0
  2  3  1  0  0  0
  3  4  2  0  0  0
  4  5  1  0  0  0
  5  6  2  0  0  0
  6 23  1  0  0  0
 23 25  1  0  0  0
 25 26  2  0  0  0
 26 27  1  0  0  0
 27 28  2  0  0  0
 28 29  1  0  0  0
 29 30  2  0  0  0
 28 31  1  0  0  0
 31 32  1  0  0  0
 31 33  1  0  0  0
 33 34  2  0  0  0
 33 35  1  0  0  0
 35 36  1  0  0  0
 36 37  1  0  0  0
 37 38  1  0  0  0
 38 39  1  0  0  0
 39 40  1  0  0  0
 39 41  1  0  0  0
 41 42  1  0  0  0
  6 13  1  0  0  0
 13 14  2  0  0  0
 14 15  1  0  0  0
 15 16  2  0  0  0
 16 17  1  0  0  0
 17 18  2  0  0  0
  5  7  1  0  0  0
  7  8  2  0  0  0
  7  9  1  0  0  0
  9 10  1  0  0  0
 10 11  2  0  0  0
 11  1  1  0  0  0
 10  4  1  0  0  0
 30 25  1  0  0  0
 42 36  1  0  0  0
 18 13  1  0  0  0
 23 24  1  0  0  0
  9 12  1  0  0  0
M  END
> <minimizedAffinity>
-8.76372

> <CNNscore>
0.3160333037

> <CNNaffinity>
6.5613622665

> <CNN_VS>
2.0736088753

> <CNNaffinity_variance>
0.2402763367

$$$$
[H]c1c([H])c([H])c(/C(=C2/C(=O)N([H])c3c([H])c(C(=O)OC([H])([H])[H])c([H])c([H])c32)N([H])c2c([H])c([H])c(N(C(=O)C([H])([H])N3C([H])([H])C([H])([H])N(C([H])([H])[H])C([H])([H])C3([H])[H])C([H])([H])[H])c([H])c2[H])c([H])c1[H]


 42 46  0  0  0  0  0  0  0  0999 V2000
   36.7383   21.1643   -6.9272 C   0  0  0  0  0  0  0  0  0  0  0  0
   36.4972   20.2890   -5.9133 C   0  0  0  0  0  0  0  0  0  0  0  0
   36.8582   18.9386   -5.9878 C   0  0  0  0  0  0  0  0  0  0  0  0
   37.4722   18.5123   -7.1348 C   0  0  0  0  0  0  0  0  0  0  0  0
   37.9792   17.2034   -7.5053 C   0  0  0  0  0  0  0  0  0  0  0  0
   37.8663   16.0658   -6.8732 C   0  0  0  0  0  0  0  0  0  0  0  0
   38.5683   17.3848   -8.8659 C   0  0  0  0  0  0  0  0  0  0  0  0
   39.1142   16.5159   -9.5521 O   0  0  0  0  0  0  0  0  0  0  0  0
   38.3950   18.7399   -9.2474 N   0  0  0  0  0  0  0  0  0  0  0  0
   37.7281   19.3965   -8.1810 C   0  0  0  0  0  0  0  0  0  0  0  0
   37.3594   20.7205   -8.0735 C   0  0  0  0  0  0  0  0  0  0  0  0
   38.7036   19.1892  -10.1594 H   0  0  0  0  0  0  0  0  0  0  0  0
   37.0510   15.8499   -5.7182 C   0  0  0  0  0  0  0  0  0  0  0  0
   37.4639   15.8632   -4.4064 C   0  0  0  0  0  0  0  0  0  0  0  0
   36.6371   15.5303   -3.3642 C   0  0  0  0  0  0  0  0  0  0  0  0
   35.3414   15.1659   -3.6135 C   0  0  0  0  0  0  0  0  0  0  0  0
   34.8783   15.1363   -4.9062 C   0  0  0  0  0  0  0  0  0  0  0  0
   35.7136   15.4705   -5.9349 C   0  0  0  0  0  0  0  0  0  0  0  0
   36.3709   22.5730   -6.8755 C   0  0  0  0  0  0  0  0  0  0  0  0
   36.7847   23.3588   -6.0013 O   0  0  0  0  0  0  0  0  0  0  0  0
   34.2690   22.4538   -8.1462 C   0  0  0  0  0  0  0  0  0  0  0  0
   35.5114   23.0436   -7.8648 O   0  0  0  0  0  0  0  0  0  0  0  0
   38.4801   14.9252   -7.4579 N   0  0  0  0  0  0  0  0  0  0  0  0
   37.9062   14.4664   -8.2271 H   0  0  0  0  0  0  0  0  0  0  0  0
   39.7460   14.4060   -7.0832 C   0  0  0  0  0  0  0  0  0  0  0  0
   40.6299   15.1013   -6.2919 C   0  0  0  0  0  0  0  0  0  0  0  0
   41.8711   14.5575   -5.9390 C   0  0  0  0  0  0  0  0  0  0  0  0
   42.2257   13.3075   -6.3840 C   0  0  0  0  0  0  0  0  0  0  0  0
   41.3437   12.6117   -7.1745 C   0  0  0  0  0  0  0  0  0  0  0  0
   40.1088   13.1530   -7.5256 C   0  0  0  0  0  0  0  0  0  0  0  0
   43.5190   12.7461   -6.0110 N   0  0  0  0  0  0  0  0  0  0  0  0
   43.4548   11.8222   -4.9008 C   0  0  0  0  0  0  0  0  0  0  0  0
   44.6733   13.0548   -6.7135 C   0  0  0  0  0  0  0  0  0  0  0  0
   44.4447   13.7607   -7.8026 O   0  0  0  0  0  0  0  0  0  0  0  0
   46.0807   12.7523   -6.4898 C   0  0  0  0  0  0  0  0  0  0  0  0
   46.7729   11.8778   -7.3325 N   0  0  0  0  0  0  0  0  0  0  0  0
   47.7255   12.4166   -8.2420 C   0  0  0  0  0  0  0  0  0  0  0  0
   47.2160   12.4334   -9.6662 C   0  0  0  0  0  0  0  0  0  0  0  0
   46.7650   11.1635  -10.1173 N   0  0  0  0  0  0  0  0  0  0  0  0
   45.9573   11.1723  -11.2798 C   0  0  0  0  0  0  0  0  0  0  0  0
   46.4571   10.2063   -9.1212 C   0  0  0  0  0  0  0  0  0  0  0  0
   46.1258   10.6954   -7.7690 C   0  0  0  0  0  0  0  0  0  0  0  0
 21 22  1  0  0  0
 22 19  1  0  0  0
 19 20  2  0  0  0
 19  1  1  0  0  0
  1  2  2  0  0  0
  2  3  1  0  0  0
  3  4  2  0  0  0
  4  5  1  0  0  0
  5  6  2  0  0  0
  6 23  1  0  0  0
 23 25  1  0  0  0
 25 26  2  0  0  0
 26 27  1  0  0  0
 27 28  2  0  0  0
 28 29  1  0  0  0
 29 30  2  0  0  0
 28 31  1  0  0  0
 31 32  1  0  0  0
 31 33  1  0  0  0
 33 34  2  0  0  0
 33 35  1  0  0  0
 35 36  1  0  0  0
 36 37  1  0  0  0
 37 38  1  0  0  0
 38 39  1  0  0  0
 39 40  1  0  0  0
 39 41  1  0  0  0
 41 42  1  0  0  0
  6 13  1  0  0  0
 13 14  2  0  0  0
 14 15  1  0  0  0
 15 16  2  0  0  0
 16 17  1  0  0  0
 17 18  2  0  0  0
  5  7  1  0  0  0
  7  8  2  0  0  0
  7  9  1  0  0  0
  9 10  1  0  0  0
 10 11  2  0  0  0
 11  1  1  0  0  0
 10  4  1  0  0  0
 30 25  1  0  0  0
 42 36  1  0  0  0
 18 13  1  0  0  0
 23 24  1  0  0  0
  9 12  1  0  0  0
M  END
> <minimizedAffinity>
-6.21381

> <CNNscore>
0.2092057317

> <CNNaffinity>
5.3095140457

> <CNN_VS>
1.1107807159

> <CNNaffinity_variance>
0.2622349858

$$$$
[H]c1c([H])c([H])c(/C(=C2/C(=O)N([H])c3c([H])c(C(=O)OC([H])([H])[H])c([H])c([H])c32)N([H])c2c([H])c([H])c(N(C(=O)C([H])([H])N3C([H])([H])C([H])([H])N(C([H])([H])[H])C([H])([H])C3([H])[H])C([H])([H])[H])c([H])c2[H])c([H])c1[H]


 42 46  0  0  0  0  0  0  0  0999 V2000
   40.5844   12.8120  -16.2563 C   0  0  0  0  0  0  0  0  0  0  0  0
   39.2405   12.6638  -16.1010 C   0  0  0  0  0  0  0  0  0  0  0  0
   38.5259   13.3212  -15.0927 C   0  0  0  0  0  0  0  0  0  0  0  0
   39.2318   14.1339  -14.2468 C   0  0  0  0  0  0  0  0  0  0  0  0
   38.7876   14.9554  -13.1353 C   0  0  0  0  0  0  0  0  0  0  0  0
   37.6047   15.0305  -12.5862 C   0  0  0  0  0  0  0  0  0  0  0  0
   40.0212   15.6320  -12.6337 C   0  0  0  0  0  0  0  0  0  0  0  0
   40.0919   16.4275  -11.6924 O   0  0  0  0  0  0  0  0  0  0  0  0
   41.1159   15.2045  -13.4278 N   0  0  0  0  0  0  0  0  0  0  0  0
   40.6078   14.2980  -14.3940 C   0  0  0  0  0  0  0  0  0  0  0  0
   41.2799   13.6355  -15.3988 C   0  0  0  0  0  0  0  0  0  0  0  0
   42.1308   15.5017  -13.3262 H   0  0  0  0  0  0  0  0  0  0  0  0
   36.5073   14.1643  -12.8872 C   0  0  0  0  0  0  0  0  0  0  0  0
   36.3696   12.8496  -12.5075 C   0  0  0  0  0  0  0  0  0  0  0  0
   35.3375   12.0562  -12.9388 C   0  0  0  0  0  0  0  0  0  0  0  0
   34.3911   12.5708  -13.7834 C   0  0  0  0  0  0  0  0  0  0  0  0
   34.4818   13.8786  -14.1931 C   0  0  0  0  0  0  0  0  0  0  0  0
   35.5159   14.6575  -13.7552 C   0  0  0  0  0  0  0  0  0  0  0  0
   41.3514   12.1380  -17.2953 C   0  0  0  0  0  0  0  0  0  0  0  0
   42.5020   11.6931  -17.1200 O   0  0  0  0  0  0  0  0  0  0  0  0
   39.9394   10.8979  -18.8814 C   0  0  0  0  0  0  0  0  0  0  0  0
   40.7466   11.9949  -18.5415 O   0  0  0  0  0  0  0  0  0  0  0  0
   37.4371   15.9411  -11.5081 N   0  0  0  0  0  0  0  0  0  0  0  0
   38.0031   16.8370  -11.6010 H   0  0  0  0  0  0  0  0  0  0  0  0
   36.5995   15.7200  -10.3847 C   0  0  0  0  0  0  0  0  0  0  0  0
   36.9056   14.8145   -9.3961 C   0  0  0  0  0  0  0  0  0  0  0  0
   36.0568   14.6229   -8.2990 C   0  0  0  0  0  0  0  0  0  0  0  0
   34.8937   15.3457   -8.1950 C   0  0  0  0  0  0  0  0  0  0  0  0
   34.5866   16.2507   -9.1819 C   0  0  0  0  0  0  0  0  0  0  0  0
   35.4313   16.4411  -10.2734 C   0  0  0  0  0  0  0  0  0  0  0  0
   34.0151   15.1429   -7.0488 N   0  0  0  0  0  0  0  0  0  0  0  0
   32.8298   14.3727   -7.3523 C   0  0  0  0  0  0  0  0  0  0  0  0
   34.3460   15.6164   -5.7888 C   0  0  0  0  0  0  0  0  0  0  0  0
   35.5653   16.1121   -5.7246 O   0  0  0  0  0  0  0  0  0  0  0  0
   33.6185   15.6713   -4.5279 C   0  0  0  0  0  0  0  0  0  0  0  0
   32.8389   16.7823   -4.1931 N   0  0  0  0  0  0  0  0  0  0  0  0
   31.6550   17.0360   -4.9408 C   0  0  0  0  0  0  0  0  0  0  0  0
   31.8190   18.1908   -5.9040 C   0  0  0  0  0  0  0  0  0  0  0  0
   32.2747   19.3834   -5.2798 N   0  0  0  0  0  0  0  0  0  0  0  0
   32.7884   20.3770   -6.1475 C   0  0  0  0  0  0  0  0  0  0  0  0
   32.8947   19.2436   -4.0152 C   0  0  0  0  0  0  0  0  0  0  0  0
   33.4794   17.9332   -3.6712 C   0  0  0  0  0  0  0  0  0  0  0  0
 21 22  1  0  0  0
 22 19  1  0  0  0
 19 20  2  0  0  0
 19  1  1  0  0  0
  1  2  2  0  0  0
  2  3  1  0  0  0
  3  4  2  0  0  0
  4  5  1  0  0  0
  5  6  2  0  0  0
  6 23  1  0  0  0
 23 25  1  0  0  0
 25 26  2  0  0  0
 26 27  1  0  0  0
 27 28  2  0  0  0
 28 29  1  0  0  0
 29 30  2  0  0  0
 28 31  1  0  0  0
 31 32  1  0  0  0
 31 33  1  0  0  0
 33 34  2  0  0  0
 33 35  1  0  0  0
 35 36  1  0  0  0
 36 37  1  0  0  0
 37 38  1  0  0  0
 38 39  1  0  0  0
 39 40  1  0  0  0
 39 41  1  0  0  0
 41 42  1  0  0  0
  6 13  1  0  0  0
 13 14  2  0  0  0
 14 15  1  0  0  0
 15 16  2  0  0  0
 16 17  1  0  0  0
 17 18  2  0  0  0
  5  7  1  0  0  0
  7  8  2  0  0  0
  7  9  1  0  0  0
  9 10  1  0  0  0
 10 11  2  0  0  0
 11  1  1  0  0  0
 10  4  1  0  0  0
 30 25  1  0  0  0
 42 36  1  0  0  0
 18 13  1  0  0  0
 23 24  1  0  0  0
  9 12  1  0  0  0
M  END
> <minimizedAffinity>
-8.74746

> <CNNscore>
0.1744081676

> <CNNaffinity>
6.1901121140

> <CNN_VS>
1.0796060562

> <CNNaffinity_variance>
0.3236486316

$$$$
[H]c1c([H])c([H])c(/C(=C2/C(=O)N([H])c3c([H])c(C(=O)OC([H])([H])[H])c([H])c([H])c32)N([H])c2c([H])c([H])c(N(C(=O)C([H])([H])N3C([H])([H])C([H])([H])N(C([H])([H])[H])C([H])([H])C3([H])[H])C([H])([H])[H])c([H])c2[H])c([H])c1[H]


 42 46  0  0  0  0  0  0  0  0999 V2000
   36.8928   20.3531   -7.4371 C   0  0  0  0  0  0  0  0  0  0  0  0
   36.9565   19.5136   -6.3678 C   0  0  0  0  0  0  0  0  0  0  0  0
   37.5015   18.2273   -6.4567 C   0  0  0  0  0  0  0  0  0  0  0  0
   37.9776   17.8271   -7.6763 C   0  0  0  0  0  0  0  0  0  0  0  0
   38.6104   16.5854   -8.0830 C   0  0  0  0  0  0  0  0  0  0  0  0
   38.7765   15.4828   -7.4026 C   0  0  0  0  0  0  0  0  0  0  0  0
   38.9348   16.7692   -9.5294 C   0  0  0  0  0  0  0  0  0  0  0  0
   39.4870   15.9491  -10.2686 O   0  0  0  0  0  0  0  0  0  0  0  0
   38.4975   18.0602   -9.9217 N   0  0  0  0  0  0  0  0  0  0  0  0
   37.9217   18.6756   -8.7803 C   0  0  0  0  0  0  0  0  0  0  0  0
   37.3785   19.9366   -8.6567 C   0  0  0  0  0  0  0  0  0  0  0  0
   38.5811   18.4947  -10.8877 H   0  0  0  0  0  0  0  0  0  0  0  0
   38.2032   15.2201   -6.1189 C   0  0  0  0  0  0  0  0  0  0  0  0
   38.7947   15.4320   -4.8956 C   0  0  0  0  0  0  0  0  0  0  0  0
   38.2174   15.0427   -3.7141 C   0  0  0  0  0  0  0  0  0  0  0  0
   37.0012   14.4146   -3.7259 C   0  0  0  0  0  0  0  0  0  0  0  0
   36.3673   14.1788   -4.9213 C   0  0  0  0  0  0  0  0  0  0  0  0
   36.9545   14.5724   -6.0909 C   0  0  0  0  0  0  0  0  0  0  0  0
   36.3289   21.6948   -7.3715 C   0  0  0  0  0  0  0  0  0  0  0  0
   36.9816   22.6976   -7.0236 O   0  0  0  0  0  0  0  0  0  0  0  0
   34.5582   22.6171   -8.8072 C   0  0  0  0  0  0  0  0  0  0  0  0
   34.9886   21.8398   -7.7203 O   0  0  0  0  0  0  0  0  0  0  0  0
   39.4528   14.4101   -8.0441 N   0  0  0  0  0  0  0  0  0  0  0  0
   39.0543   14.1490   -8.9952 H   0  0  0  0  0  0  0  0  0  0  0  0
   40.5667   13.7172   -7.5041 C   0  0  0  0  0  0  0  0  0  0  0  0
   40.4353   12.5936   -6.7223 C   0  0  0  0  0  0  0  0  0  0  0  0
   41.5571   11.9325   -6.2071 C   0  0  0  0  0  0  0  0  0  0  0  0
   42.8181   12.4035   -6.4794 C   0  0  0  0  0  0  0  0  0  0  0  0
   42.9509   13.5258   -7.2603 C   0  0  0  0  0  0  0  0  0  0  0  0
   41.8345   14.1835   -7.7728 C   0  0  0  0  0  0  0  0  0  0  0  0
   43.9822   11.7090   -5.9416 N   0  0  0  0  0  0  0  0  0  0  0  0
   44.4473   10.6213   -6.7728 C   0  0  0  0  0  0  0  0  0  0  0  0
   44.5899   12.1167   -4.7644 C   0  0  0  0  0  0  0  0  0  0  0  0
   44.1055   13.2491   -4.2956 O   0  0  0  0  0  0  0  0  0  0  0  0
   45.6542   11.5466   -3.9491 C   0  0  0  0  0  0  0  0  0  0  0  0
   46.9855   11.9338   -4.1282 N   0  0  0  0  0  0  0  0  0  0  0  0
   47.4887   13.0229   -3.3630 C   0  0  0  0  0  0  0  0  0  0  0  0
   47.6369   14.2840   -4.1851 C   0  0  0  0  0  0  0  0  0  0  0  0
   48.4174   14.1018   -5.3587 N   0  0  0  0  0  0  0  0  0  0  0  0
   48.3009   15.1144   -6.3410 C   0  0  0  0  0  0  0  0  0  0  0  0
   48.5810   12.7720   -5.8147 C   0  0  0  0  0  0  0  0  0  0  0  0
   47.5779   11.7705   -5.4048 C   0  0  0  0  0  0  0  0  0  0  0  0
 21 22  1  0  0  0
 22 19  1  0  0  0
 19 20  2  0  0  0
 19  1  1  0  0  0
  1  2  2  0  0  0
  2  3  1  0  0  0
  3  4  2  0  0  0
  4  5  1  0  0  0
  5  6  2  0  0  0
  6 23  1  0  0  0
 23 25  1  0  0  0
 25 26  2  0  0  0
 26 27  1  0  0  0
 27 28  2  0  0  0
 28 29  1  0  0  0
 29 30  2  0  0  0
 28 31  1  0  0  0
 31 32  1  0  0  0
 31 33  1  0  0  0
 33 34  2  0  0  0
 33 35  1  0  0  0
 35 36  1  0  0  0
 36 37  1  0  0  0
 37 38  1  0  0  0
 38 39  1  0  0  0
 39 40  1  0  0  0
 39 41  1  0  0  0
 41 42  1  0  0  0
  6 13  1  0  0  0
 13 14  2  0  0  0
 14 15  1  0  0  0
 15 16  2  0  0  0
 16 17  1  0  0  0
 17 18  2  0  0  0
  5  7  1  0  0  0
  7  8  2  0  0  0
  7  9  1  0  0  0
  9 10  1  0  0  0
 10 11  2  0  0  0
 11  1  1  0  0  0
 10  4  1  0  0  0
 30 25  1  0  0  0
 42 36  1  0  0  0
 18 13  1  0  0  0
 23 24  1  0  0  0
  9 12  1  0  0  0
M  END
> <minimizedAffinity>
-5.81654

> <CNNscore>
0.1634974778

> <CNNaffinity>
5.1731758118

> <CNN_VS>
0.8458011746

> <CNNaffinity_variance>
0.3145719171

$$$$
[H]c1c([H])c([H])c(/C(=C2/C(=O)N([H])c3c([H])c(C(=O)OC([H])([H])[H])c([H])c([H])c32)N([H])c2c([H])c([H])c(N(C(=O)C([H])([H])N3C([H])([H])C([H])([H])N(C([H])([H])[H])C([H])([H])C3([H])[H])C([H])([H])[H])c([H])c2[H])c([H])c1[H]


 42 46  0  0  0  0  0  0  0  0999 V2000
   35.4854   21.6278   -4.9892 C   0  0  0  0  0  0  0  0  0  0  0  0
   35.3548   20.3188   -4.6400 C   0  0  0  0  0  0  0  0  0  0  0  0
   35.8535   19.2787   -5.4330 C   0  0  0  0  0  0  0  0  0  0  0  0
   36.4887   19.6216   -6.5963 C   0  0  0  0  0  0  0  0  0  0  0  0
   37.1232   18.7939   -7.6063 C   0  0  0  0  0  0  0  0  0  0  0  0
   37.1408   17.4922   -7.7143 C   0  0  0  0  0  0  0  0  0  0  0  0
   37.6663   19.7551   -8.6125 C   0  0  0  0  0  0  0  0  0  0  0  0
   38.2880   19.4700   -9.6402 O   0  0  0  0  0  0  0  0  0  0  0  0
   37.3458   21.0700   -8.1882 N   0  0  0  0  0  0  0  0  0  0  0  0
   36.6325   20.9572   -6.9668 C   0  0  0  0  0  0  0  0  0  0  0  0
   36.1294   21.9564   -6.1614 C   0  0  0  0  0  0  0  0  0  0  0  0
   37.5898   21.9768   -8.6851 H   0  0  0  0  0  0  0  0  0  0  0  0
   36.3727   16.5947   -6.9082 C   0  0  0  0  0  0  0  0  0  0  0  0
   35.0308   16.3209   -7.0334 C   0  0  0  0  0  0  0  0  0  0  0  0
   34.3471   15.5338   -6.1425 C   0  0  0  0  0  0  0  0  0  0  0  0
   35.0055   14.9855   -5.0748 C   0  0  0  0  0  0  0  0  0  0  0  0
   36.3465   15.2275   -4.9033 C   0  0  0  0  0  0  0  0  0  0  0  0
   37.0149   16.0139   -5.7992 C   0  0  0  0  0  0  0  0  0  0  0  0
   34.9738   22.7282   -4.1831 C   0  0  0  0  0  0  0  0  0  0  0  0
   35.6674   23.3576   -3.3613 O   0  0  0  0  0  0  0  0  0  0  0  0
   32.5889   22.4847   -3.6350 C   0  0  0  0  0  0  0  0  0  0  0  0
   33.6370   23.0770   -4.3572 O   0  0  0  0  0  0  0  0  0  0  0  0
   37.8602   16.9328   -8.8048 N   0  0  0  0  0  0  0  0  0  0  0  0
   38.9125   17.0801   -8.7555 H   0  0  0  0  0  0  0  0  0  0  0  0
   37.2714   16.2302   -9.8874 C   0  0  0  0  0  0  0  0  0  0  0  0
   37.5798   14.9225  -10.1804 C   0  0  0  0  0  0  0  0  0  0  0  0
   36.9777   14.2580  -11.2560 C   0  0  0  0  0  0  0  0  0  0  0  0
   36.0602   14.9118  -12.0414 C   0  0  0  0  0  0  0  0  0  0  0  0
   35.7511   16.2181  -11.7499 C   0  0  0  0  0  0  0  0  0  0  0  0
   36.3504   16.8791  -10.6797 C   0  0  0  0  0  0  0  0  0  0  0  0
   35.4352   14.2133  -13.1587 N   0  0  0  0  0  0  0  0  0  0  0  0
   34.0710   13.8085  -12.9030 C   0  0  0  0  0  0  0  0  0  0  0  0
   36.1029   14.0200  -14.3579 C   0  0  0  0  0  0  0  0  0  0  0  0
   37.2585   14.6509  -14.4158 O   0  0  0  0  0  0  0  0  0  0  0  0
   35.7808   13.2649  -15.5614 C   0  0  0  0  0  0  0  0  0  0  0  0
   36.3627   12.0179  -15.8073 N   0  0  0  0  0  0  0  0  0  0  0  0
   37.5878   11.6962  -15.1587 C   0  0  0  0  0  0  0  0  0  0  0  0
   38.7718   11.7661  -16.0977 C   0  0  0  0  0  0  0  0  0  0  0  0
   38.6092   10.9759  -17.2676 N   0  0  0  0  0  0  0  0  0  0  0  0
   39.4905   11.2669  -18.3366 C   0  0  0  0  0  0  0  0  0  0  0  0
   37.2870   10.5976  -17.6021 C   0  0  0  0  0  0  0  0  0  0  0  0
   36.1780   11.4171  -17.0771 C   0  0  0  0  0  0  0  0  0  0  0  0
 21 22  1  0  0  0
 22 19  1  0  0  0
 19 20  2  0  0  0
 19  1  1  0  0  0
  1  2  2  0  0  0
  2  3  1  0  0  0
  3  4  2  0  0  0
  4  5  1  0  0  0
  5  6  2  0  0  0
  6 23  1  0  0  0
 23 25  1  0  0  0
 25 26  2  0  0  0
 26 27  1  0  0  0
 27 28  2  0  0  0
 28 29  1  0  0  0
 29 30  2  0  0  0
 28 31  1  0  0  0
 31 32  1  0  0  0
 31 33  1  0  0  0
 33 34  2  0  0  0
 33 35  1  0  0  0
 35 36  1  0  0  0
 36 37  1  0  0  0
 37 38  1  0  0  0
 38 39  1  0  0  0
 39 40  1  0  0  0
 39 41  1  0  0  0
 41 42  1  0  0  0
  6 13  1  0  0  0
 13 14  2  0  0  0
 14 15  1  0  0  0
 15 16  2  0  0  0
 16 17  1  0  0  0
 17 18  2  0  0  0
  5  7  1  0  0  0
  7  8  2  0  0  0
  7  9  1  0  0  0
  9 10  1  0  0  0
 10 11  2  0  0  0
 11  1  1  0  0  0
 10  4  1  0  0  0
 30 25  1  0  0  0
 42 36  1  0  0  0
 18 13  1  0  0  0
 23 24  1  0  0  0
  9 12  1  0  0  0
M  END
> <minimizedAffinity>
-7.88415

> <CNNscore>
0.1466400921

> <CNNaffinity>
6.0200071335

> <CNN_VS>
0.8827744126

> <CNNaffinity_variance>
0.3114455342

$$$$
[H]c1c([H])c([H])c(/C(=C2/C(=O)N([H])c3c([H])c(C(=O)OC([H])([H])[H])c([H])c([H])c32)N([H])c2c([H])c([H])c(N(C(=O)C([H])([H])N3C([H])([H])C([H])([H])N(C([H])([H])[H])C([H])([H])C3([H])[H])C([H])([H])[H])c([H])c2[H])c([H])c1[H]


 42 46  0  0  0  0  0  0  0  0999 V2000
   41.2142   12.7495  -15.9885 C   0  0  0  0  0  0  0  0  0  0  0  0
   39.8681   12.5568  -15.9326 C   0  0  0  0  0  0  0  0  0  0  0  0
   39.0504   13.2410  -15.0255 C   0  0  0  0  0  0  0  0  0  0  0  0
   39.6555   14.1276  -14.1758 C   0  0  0  0  0  0  0  0  0  0  0  0
   39.0928   14.9921  -13.1542 C   0  0  0  0  0  0  0  0  0  0  0  0
   37.8670   15.0509  -12.7068 C   0  0  0  0  0  0  0  0  0  0  0  0
   40.2566   15.7446  -12.5967 C   0  0  0  0  0  0  0  0  0  0  0  0
   40.2217   16.5941  -11.7017 O   0  0  0  0  0  0  0  0  0  0  0  0
   41.4271   15.3170  -13.2739 N   0  0  0  0  0  0  0  0  0  0  0  0
   41.0322   14.3379  -14.2220 C   0  0  0  0  0  0  0  0  0  0  0  0
   41.8075   13.6471  -15.1287 C   0  0  0  0  0  0  0  0  0  0  0  0
   42.4192   15.6597  -13.1094 H   0  0  0  0  0  0  0  0  0  0  0  0
   36.8291   14.1260  -13.0426 C   0  0  0  0  0  0  0  0  0  0  0  0
   36.6353   12.8762  -12.5021 C   0  0  0  0  0  0  0  0  0  0  0  0
   35.6820   12.0063  -12.9658 C   0  0  0  0  0  0  0  0  0  0  0  0
   34.8763   12.3735  -14.0098 C   0  0  0  0  0  0  0  0  0  0  0  0
   35.0282   13.6111  -14.5856 C   0  0  0  0  0  0  0  0  0  0  0  0
   35.9826   14.4677  -14.1131 C   0  0  0  0  0  0  0  0  0  0  0  0
   42.0871   12.0491  -16.9211 C   0  0  0  0  0  0  0  0  0  0  0  0
   41.7285   11.6893  -18.0589 O   0  0  0  0  0  0  0  0  0  0  0  0
   44.5227   12.0932  -17.2573 C   0  0  0  0  0  0  0  0  0  0  0  0
   43.3854   11.7783  -16.4969 O   0  0  0  0  0  0  0  0  0  0  0  0
   37.5795   16.0134  -11.7015 N   0  0  0  0  0  0  0  0  0  0  0  0
   37.6296   17.0221  -12.0355 H   0  0  0  0  0  0  0  0  0  0  0  0
   37.2489   15.7053  -10.3569 C   0  0  0  0  0  0  0  0  0  0  0  0
   35.9717   15.8203   -9.8604 C   0  0  0  0  0  0  0  0  0  0  0  0
   35.6798   15.5054   -8.5276 C   0  0  0  0  0  0  0  0  0  0  0  0
   36.6774   15.0722   -7.6890 C   0  0  0  0  0  0  0  0  0  0  0  0
   37.9538   14.9567   -8.1836 C   0  0  0  0  0  0  0  0  0  0  0  0
   38.2440   15.2703   -9.5098 C   0  0  0  0  0  0  0  0  0  0  0  0
   36.3662   14.7437   -6.3026 N   0  0  0  0  0  0  0  0  0  0  0  0
   36.1544   13.3323   -6.0716 C   0  0  0  0  0  0  0  0  0  0  0  0
   36.3362   15.7169   -5.3160 C   0  0  0  0  0  0  0  0  0  0  0  0
   36.7561   16.8936   -5.7352 O   0  0  0  0  0  0  0  0  0  0  0  0
   35.9382   15.6961   -3.9148 C   0  0  0  0  0  0  0  0  0  0  0  0
   34.6050   15.8891   -3.5412 N   0  0  0  0  0  0  0  0  0  0  0  0
   33.6294   14.9524   -3.9837 C   0  0  0  0  0  0  0  0  0  0  0  0
   32.7707   15.5007   -5.1019 C   0  0  0  0  0  0  0  0  0  0  0  0
   32.1559   16.7414   -4.7822 N   0  0  0  0  0  0  0  0  0  0  0  0
   31.6457   17.4781   -5.8781 C   0  0  0  0  0  0  0  0  0  0  0  0
   32.7232   17.4770   -3.7144 C   0  0  0  0  0  0  0  0  0  0  0  0
   34.1313   17.2122   -3.3617 C   0  0  0  0  0  0  0  0  0  0  0  0
 21 22  1  0  0  0
 22 19  1  0  0  0
 19 20  2  0  0  0
 19  1  1  0  0  0
  1  2  2  0  0  0
  2  3  1  0  0  0
  3  4  2  0  0  0
  4  5  1  0  0  0
  5  6  2  0  0  0
  6 23  1  0  0  0
 23 25  1  0  0  0
 25 26  2  0  0  0
 26 27  1  0  0  0
 27 28  2  0  0  0
 28 29  1  0  0  0
 29 30  2  0  0  0
 28 31  1  0  0  0
 31 32  1  0  0  0
 31 33  1  0  0  0
 33 34  2  0  0  0
 33 35  1  0  0  0
 35 36  1  0  0  0
 36 37  1  0  0  0
 37 38  1  0  0  0
 38 39  1  0  0  0
 39 40  1  0  0  0
 39 41  1  0  0  0
 41 42  1  0  0  0
  6 13  1  0  0  0
 13 14  2  0  0  0
 14 15  1  0  0  0
 15 16  2  0  0  0
 16 17  1  0  0  0
 17 18  2  0  0  0
  5  7  1  0  0  0
  7  8  2  0  0  0
  7  9  1  0  0  0
  9 10  1  0  0  0
 10 11  2  0  0  0
 11  1  1  0  0  0
 10  4  1  0  0  0
 30 25  1  0  0  0
 42 36  1  0  0  0
 18 13  1  0  0  0
 23 24  1  0  0  0
  9 12  1  0  0  0
M  END
> <minimizedAffinity>
-8.82209

> <CNNscore>
0.1335945576

> <CNNaffinity>
6.0960545540

> <CNN_VS>
0.8143997192

> <CNNaffinity_variance>
0.1610801518

$$$$
[H]c1c([H])c([H])c(/C(=C2/C(=O)N([H])c3c([H])c(C(=O)OC([H])([H])[H])c([H])c([H])c32)N([H])c2c([H])c([H])c(N(C(=O)C([H])([H])N3C([H])([H])C([H])([H])N(C([H])([H])[H])C([H])([H])C3([H])[H])C([H])([H])[H])c([H])c2[H])c([H])c1[H]


 42 46  0  0  0  0  0  0  0  0999 V2000
   40.5364   12.4402  -16.8509 C   0  0  0  0  0  0  0  0  0  0  0  0
   41.8129   12.2801  -16.4067 C   0  0  0  0  0  0  0  0  0  0  0  0
   42.3051   12.9542  -15.2829 C   0  0  0  0  0  0  0  0  0  0  0  0
   41.4488   13.7992  -14.6294 C   0  0  0  0  0  0  0  0  0  0  0  0
   41.6450   14.6111  -13.4419 C   0  0  0  0  0  0  0  0  0  0  0  0
   42.7396   14.8291  -12.7632 C   0  0  0  0  0  0  0  0  0  0  0  0
   40.3309   15.2815  -13.2071 C   0  0  0  0  0  0  0  0  0  0  0  0
   40.0580   16.0631  -12.2914 O   0  0  0  0  0  0  0  0  0  0  0  0
   39.4335   14.8673  -14.2244 N   0  0  0  0  0  0  0  0  0  0  0  0
   40.1383   13.9723  -15.0702 C   0  0  0  0  0  0  0  0  0  0  0  0
   39.6865   13.2920  -16.1807 C   0  0  0  0  0  0  0  0  0  0  0  0
   38.4204   15.1658  -14.3401 H   0  0  0  0  0  0  0  0  0  0  0  0
   44.0478   14.4157  -13.1672 C   0  0  0  0  0  0  0  0  0  0  0  0
   44.8310   14.9977  -14.1364 C   0  0  0  0  0  0  0  0  0  0  0  0
   46.0279   14.4656  -14.5426 C   0  0  0  0  0  0  0  0  0  0  0  0
   46.4846   13.3066  -13.9748 C   0  0  0  0  0  0  0  0  0  0  0  0
   45.7408   12.6849  -13.0020 C   0  0  0  0  0  0  0  0  0  0  0  0
   44.5499   13.2267  -12.6071 C   0  0  0  0  0  0  0  0  0  0  0  0
   40.0008   11.7526  -18.0182 C   0  0  0  0  0  0  0  0  0  0  0  0
   40.7140   11.2830  -18.9257 O   0  0  0  0  0  0  0  0  0  0  0  0
   37.9564   10.3869  -18.0703 C   0  0  0  0  0  0  0  0  0  0  0  0
   38.6167   11.6253  -18.1027 O   0  0  0  0  0  0  0  0  0  0  0  0
   42.6468   15.6627  -11.6160 N   0  0  0  0  0  0  0  0  0  0  0  0
   41.6511   15.9103  -11.3354 H   0  0  0  0  0  0  0  0  0  0  0  0
   43.7557   16.1474  -10.8759 C   0  0  0  0  0  0  0  0  0  0  0  0
   44.1465   15.5982   -9.6773 C   0  0  0  0  0  0  0  0  0  0  0  0
   45.2481   16.1002   -8.9736 C   0  0  0  0  0  0  0  0  0  0  0  0
   45.9610   17.1603   -9.4777 C   0  0  0  0  0  0  0  0  0  0  0  0
   45.5718   17.7100  -10.6749 C   0  0  0  0  0  0  0  0  0  0  0  0
   44.4756   17.2103  -11.3749 C   0  0  0  0  0  0  0  0  0  0  0  0
   47.1086   17.6770   -8.7408 N   0  0  0  0  0  0  0  0  0  0  0  0
   48.3803   17.1905   -9.2271 C   0  0  0  0  0  0  0  0  0  0  0  0
   46.9565   18.5891   -7.7082 C   0  0  0  0  0  0  0  0  0  0  0  0
   45.7208   19.0296   -7.5831 O   0  0  0  0  0  0  0  0  0  0  0  0
   47.8871   19.1567   -6.7418 C   0  0  0  0  0  0  0  0  0  0  0  0
   47.4749   20.1360   -5.8334 N   0  0  0  0  0  0  0  0  0  0  0  0
   47.0533   19.7301   -4.5363 C   0  0  0  0  0  0  0  0  0  0  0  0
   45.5510   19.7961   -4.3725 C   0  0  0  0  0  0  0  0  0  0  0  0
   45.0056   21.0684   -4.6941 N   0  0  0  0  0  0  0  0  0  0  0  0
   43.6073   21.1035   -4.9119 C   0  0  0  0  0  0  0  0  0  0  0  0
   45.8071   21.9227   -5.4884 C   0  0  0  0  0  0  0  0  0  0  0  0
   46.8524   21.3082   -6.3293 C   0  0  0  0  0  0  0  0  0  0  0  0
 21 22  1  0  0  0
 22 19  1  0  0  0
 19 20  2  0  0  0
 19  1  1  0  0  0
  1  2  2  0  0  0
  2  3  1  0  0  0
  3  4  2  0  0  0
  4  5  1  0  0  0
  5  6  2  0  0  0
  6 23  1  0  0  0
 23 25  1  0  0  0
 25 26  2  0  0  0
 26 27  1  0  0  0
 27 28  2  0  0  0
 28 29  1  0  0  0
 29 30  2  0  0  0
 28 31  1  0  0  0
 31 32  1  0  0  0
 31 33  1  0  0  0
 33 34  2  0  0  0
 33 35  1  0  0  0
 35 36  1  0  0  0
 36 37  1  0  0  0
 37 38  1  0  0  0
 38 39  1  0  0  0
 39 40  1  0  0  0
 39 41  1  0  0  0
 41 42  1  0  0  0
  6 13  1  0  0  0
 13 14  2  0  0  0
 14 15  1  0  0  0
 15 16  2  0  0  0
 16 17  1  0  0  0
 17 18  2  0  0  0
  5  7  1  0  0  0
  7  8  2  0  0  0
  7  9  1  0  0  0
  9 10  1  0  0  0
 10 11  2  0  0  0
 11  1  1  0  0  0
 10  4  1  0  0  0
 30 25  1  0  0  0
 42 36  1  0  0  0
 18 13  1  0  0  0
 23 24  1  0  0  0
  9 12  1  0  0  0
M  END
> <minimizedAffinity>
-6.97393

> <CNNscore>
0.1300713122

> <CNNaffinity>
5.7386708260

> <CNN_VS>
0.7464364171

> <CNNaffinity_variance>
0.2566024959

$$$$
[H]c1c([H])c([H])c(/C(=C2/C(=O)N([H])c3c([H])c(C(=O)OC([H])([H])[H])c([H])c([H])c32)N([H])c2c([H])c([H])c(N(C(=O)C([H])([H])N3C([H])([H])C([H])([H])N(C([H])([H])[H])C([H])([H])C3([H])[H])C([H])([H])[H])c([H])c2[H])c([H])c1[H]


 42 46  0  0  0  0  0  0  0  0999 V2000
   35.3071   12.1112  -14.9100 C   0  0  0  0  0  0  0  0  0  0  0  0
   36.6276   11.8845  -15.1489 C   0  0  0  0  0  0  0  0  0  0  0  0
   37.6348   12.7049  -14.6273 C   0  0  0  0  0  0  0  0  0  0  0  0
   37.2465   13.7663  -13.8547 C   0  0  0  0  0  0  0  0  0  0  0  0
   38.0345   14.7709  -13.1637 C   0  0  0  0  0  0  0  0  0  0  0  0
   39.3229   14.9819  -13.2067 C   0  0  0  0  0  0  0  0  0  0  0  0
   37.0368   15.6356  -12.4650 C   0  0  0  0  0  0  0  0  0  0  0  0
   37.2828   16.6149  -11.7549 O   0  0  0  0  0  0  0  0  0  0  0  0
   35.7399   15.1404  -12.7555 N   0  0  0  0  0  0  0  0  0  0  0  0
   35.8987   14.0106  -13.5990 C   0  0  0  0  0  0  0  0  0  0  0  0
   34.9328   13.1817  -14.1285 C   0  0  0  0  0  0  0  0  0  0  0  0
   34.8156   15.5349  -12.4106 H   0  0  0  0  0  0  0  0  0  0  0  0
   40.2280   14.3332  -14.1041 C   0  0  0  0  0  0  0  0  0  0  0  0
   41.3981   13.6922  -13.7705 C   0  0  0  0  0  0  0  0  0  0  0  0
   42.2671   13.1968  -14.7087 C   0  0  0  0  0  0  0  0  0  0  0  0
   41.9807   13.3334  -16.0403 C   0  0  0  0  0  0  0  0  0  0  0  0
   40.8245   13.9656  -16.4275 C   0  0  0  0  0  0  0  0  0  0  0  0
   39.9678   14.4543  -15.4815 C   0  0  0  0  0  0  0  0  0  0  0  0
   34.2401   11.2743  -15.4424 C   0  0  0  0  0  0  0  0  0  0  0  0
   33.2577   10.9044  -14.7709 O   0  0  0  0  0  0  0  0  0  0  0  0
   33.2322   10.5774  -17.5745 C   0  0  0  0  0  0  0  0  0  0  0  0
   34.3449   10.8792  -16.7736 O   0  0  0  0  0  0  0  0  0  0  0  0
   39.8434   16.0360  -12.4081 N   0  0  0  0  0  0  0  0  0  0  0  0
   39.1432   16.8070  -12.1921 H   0  0  0  0  0  0  0  0  0  0  0  0
   41.1729   16.0989  -11.9173 C   0  0  0  0  0  0  0  0  0  0  0  0
   42.2123   16.6199  -12.6516 C   0  0  0  0  0  0  0  0  0  0  0  0
   43.5130   16.6686  -12.1352 C   0  0  0  0  0  0  0  0  0  0  0  0
   43.7703   16.1911  -10.8735 C   0  0  0  0  0  0  0  0  0  0  0  0
   42.7329   15.6704  -10.1388 C   0  0  0  0  0  0  0  0  0  0  0  0
   41.4388   15.6219  -10.6529 C   0  0  0  0  0  0  0  0  0  0  0  0
   45.1268   16.2469  -10.3408 N   0  0  0  0  0  0  0  0  0  0  0  0
   45.3680   17.3823   -9.4789 C   0  0  0  0  0  0  0  0  0  0  0  0
   46.0556   15.2559  -10.6171 C   0  0  0  0  0  0  0  0  0  0  0  0
   45.5411   14.2275  -11.2608 O   0  0  0  0  0  0  0  0  0  0  0  0
   47.4789   15.1249  -10.3355 C   0  0  0  0  0  0  0  0  0  0  0  0
   47.9295   14.6907   -9.0855 N   0  0  0  0  0  0  0  0  0  0  0  0
   47.4425   13.4545   -8.5757 C   0  0  0  0  0  0  0  0  0  0  0  0
   46.4230   13.6475   -7.4751 C   0  0  0  0  0  0  0  0  0  0  0  0
   46.8893   14.4704   -6.4144 N   0  0  0  0  0  0  0  0  0  0  0  0
   45.8945   14.9830   -5.5475 C   0  0  0  0  0  0  0  0  0  0  0  0
   47.9969   15.3054   -6.6959 C   0  0  0  0  0  0  0  0  0  0  0  0
   48.2581   15.6587   -8.1045 C   0  0  0  0  0  0  0  0  0  0  0  0
 21 22  1  0  0  0
 22 19  1  0  0  0
 19 20  2  0  0  0
 19  1  1  0  0  0
  1  2  2  0  0  0
  2  3  1  0  0  0
  3  4  2  0  0  0
  4  5  1  0  0  0
  5  6  2  0  0  0
  6 23  1  0  0  0
 23 25  1  0  0  0
 25 26  2  0  0  0
 26 27  1  0  0  0
 27 28  2  0  0  0
 28 29  1  0  0  0
 29 30  2  0  0  0
 28 31  1  0  0  0
 31 32  1  0  0  0
 31 33  1  0  0  0
 33 34  2  0  0  0
 33 35  1  0  0  0
 35 36  1  0  0  0
 36 37  1  0  0  0
 37 38  1  0  0  0
 38 39  1  0  0  0
 39 40  1  0  0  0
 39 41  1  0  0  0
 41 42  1  0  0  0
  6 13  1  0  0  0
 13 14  2  0  0  0
 14 15  1  0  0  0
 15 16  2  0  0  0
 16 17  1  0  0  0
 17 18  2  0  0  0
  5  7  1  0  0  0
  7  8  2  0  0  0
  7  9  1  0  0  0
  9 10  1  0  0  0
 10 11  2  0  0  0
 11  1  1  0  0  0
 10  4  1  0  0  0
 30 25  1  0  0  0
 42 36  1  0  0  0
 18 13  1  0  0  0
 23 24  1  0  0  0
  9 12  1  0  0  0
M  END
> <minimizedAffinity>
-7.69133

> <CNNscore>
0.1285414547

> <CNNaffinity>
6.1589398384

> <CNN_VS>
0.7916790843

> <CNNaffinity_variance>
0.0899590403

$$$$
[H]c1c([H])c([H])c(/C(=C2/C(=O)N([H])c3c([H])c(C(=O)OC([H])([H])[H])c([H])c([H])c32)N([H])c2c([H])c([H])c(N(C(=O)C([H])([H])N3C([H])([H])C([H])([H])N(C([H])([H])[H])C([H])([H])C3([H])[H])C([H])([H])[H])c([H])c2[H])c([H])c1[H]


 42 46  0  0  0  0  0  0  0  0999 V2000
   38.1863   12.6185  -15.1826 C   0  0  0  0  0  0  0  0  0  0  0  0
   38.4999   13.2597  -14.0238 C   0  0  0  0  0  0  0  0  0  0  0  0
   37.5223   13.7718  -13.1628 C   0  0  0  0  0  0  0  0  0  0  0  0
   36.2128   13.6082  -13.5272 C   0  0  0  0  0  0  0  0  0  0  0  0
   34.9879   13.9986  -12.8526 C   0  0  0  0  0  0  0  0  0  0  0  0
   34.8340   14.7177  -11.7730 C   0  0  0  0  0  0  0  0  0  0  0  0
   33.8853   13.5109  -13.7345 C   0  0  0  0  0  0  0  0  0  0  0  0
   32.6737   13.6319  -13.5312 O   0  0  0  0  0  0  0  0  0  0  0  0
   34.4666   12.8764  -14.8620 N   0  0  0  0  0  0  0  0  0  0  0  0
   35.8752   12.9520  -14.7092 C   0  0  0  0  0  0  0  0  0  0  0  0
   36.8641   12.4595  -15.5337 C   0  0  0  0  0  0  0  0  0  0  0  0
   33.9518   12.4254  -15.6747 H   0  0  0  0  0  0  0  0  0  0  0  0
   35.8833   15.4218  -11.1034 C   0  0  0  0  0  0  0  0  0  0  0  0
   36.2609   16.7276  -11.3126 C   0  0  0  0  0  0  0  0  0  0  0  0
   37.3562   17.2899  -10.7084 C   0  0  0  0  0  0  0  0  0  0  0  0
   38.1225   16.5407   -9.8567 C   0  0  0  0  0  0  0  0  0  0  0  0
   37.7890   15.2309   -9.6130 C   0  0  0  0  0  0  0  0  0  0  0  0
   36.6947   14.6838  -10.2221 C   0  0  0  0  0  0  0  0  0  0  0  0
   39.1842   12.0787  -16.0964 C   0  0  0  0  0  0  0  0  0  0  0  0
   38.9117   11.2929  -17.0243 O   0  0  0  0  0  0  0  0  0  0  0  0
   41.0684   13.5980  -16.5305 C   0  0  0  0  0  0  0  0  0  0  0  0
   40.5049   12.4755  -15.9035 O   0  0  0  0  0  0  0  0  0  0  0  0
   33.5073   14.9376  -11.3134 N   0  0  0  0  0  0  0  0  0  0  0  0
   32.7521   14.5761  -11.9695 H   0  0  0  0  0  0  0  0  0  0  0  0
   33.1692   15.5776  -10.0934 C   0  0  0  0  0  0  0  0  0  0  0  0
   31.9872   16.2568   -9.9130 C   0  0  0  0  0  0  0  0  0  0  0  0
   31.6841   16.8756   -8.6940 C   0  0  0  0  0  0  0  0  0  0  0  0
   32.5743   16.8111   -7.6501 C   0  0  0  0  0  0  0  0  0  0  0  0
   33.7555   16.1328   -7.8288 C   0  0  0  0  0  0  0  0  0  0  0  0
   34.0568   15.5173   -9.0419 C   0  0  0  0  0  0  0  0  0  0  0  0
   32.2516   17.4558   -6.3824 N   0  0  0  0  0  0  0  0  0  0  0  0
   31.2334   16.7672   -5.6211 C   0  0  0  0  0  0  0  0  0  0  0  0
   32.9181   18.5944   -5.9577 C   0  0  0  0  0  0  0  0  0  0  0  0
   33.9367   18.9174   -6.7289 O   0  0  0  0  0  0  0  0  0  0  0  0
   32.7193   19.4977   -4.8321 C   0  0  0  0  0  0  0  0  0  0  0  0
   32.6565   20.8814   -5.0206 N   0  0  0  0  0  0  0  0  0  0  0  0
   31.7864   21.3953   -6.0226 C   0  0  0  0  0  0  0  0  0  0  0  0
   32.5357   21.8639   -7.2503 C   0  0  0  0  0  0  0  0  0  0  0  0
   33.5625   22.8020   -6.9585 N   0  0  0  0  0  0  0  0  0  0  0  0
   34.5218   23.0048   -7.9796 C   0  0  0  0  0  0  0  0  0  0  0  0
   34.0204   22.8494   -5.6201 C   0  0  0  0  0  0  0  0  0  0  0  0
   33.8166   21.6569   -4.7754 C   0  0  0  0  0  0  0  0  0  0  0  0
 21 22  1  0  0  0
 22 19  1  0  0  0
 19 20  2  0  0  0
 19  1  1  0  0  0
  1  2  2  0  0  0
  2  3  1  0  0  0
  3  4  2  0  0  0
  4  5  1  0  0  0
  5  6  2  0  0  0
  6 23  1  0  0  0
 23 25  1  0  0  0
 25 26  2  0  0  0
 26 27  1  0  0  0
 27 28  2  0  0  0
 28 29  1  0  0  0
 29 30  2  0  0  0
 28 31  1  0  0  0
 31 32  1  0  0  0
 31 33  1  0  0  0
 33 34  2  0  0  0
 33 35  1  0  0  0
 35 36  1  0  0  0
 36 37  1  0  0  0
 37 38  1  0  0  0
 38 39  1  0  0  0
 39 40  1  0  0  0
 39 41  1  0  0  0
 41 42  1  0  0  0
  6 13  1  0  0  0
 13 14  2  0  0  0
 14 15  1  0  0  0
 15 16  2  0  0  0
 16 17  1  0  0  0
 17 18  2  0  0  0
  5  7  1  0  0  0
  7  8  2  0  0  0
  7  9  1  0  0  0
  9 10  1  0  0  0
 10 11  2  0  0  0
 11  1  1  0  0  0
 10  4  1  0  0  0
 30 25  1  0  0  0
 42 36  1  0  0  0
 18 13  1  0  0  0
 23 24  1  0  0  0
  9 12  1  0  0  0
M  END
> <minimizedAffinity>
-7.96925

> <CNNscore>
0.1274899840

> <CNNaffinity>
6.0205011368

> <CNN_VS>
0.7675535679

> <CNNaffinity_variance>
0.4264730513

$$$$
[H]OC([H])([H])[C@@]1(O[H])C([H])([H])[C@@]2([H])O[C@]1(C([H])([H])[H])n1c3c([H])c([H])c([H])c([H])c3c3c4c(c5c6c([H])c([H])c([H])c([H])c6n2c5c31)C([H])([H])N([H])C4=O


 36 43  0  0  0  0  0  0  0  0999 V2000
   35.7568   12.5875  -12.3955 C   0  0  0  0  0  0  0  0  0  0  0  0
   36.7326   13.2619  -13.3552 C   0  0  0  0  0  0  0  0  0  0  0  0
   37.9657   13.0080  -12.6830 O   0  0  0  0  0  0  0  0  0  0  0  0
   38.8555   13.9786  -12.9783 C   0  0  0  0  0  0  0  0  0  0  0  0
   38.1105   15.2063  -13.4261 C   0  0  0  0  0  0  0  0  0  0  0  0
   36.6683   14.7362  -13.3504 C   0  0  0  0  0  0  0  0  0  0  0  0
   36.0338   15.2881  -14.4607 O   0  0  0  0  0  0  0  0  0  0  0  0
   39.6628   13.5055  -14.1041 N   0  0  0  0  0  0  0  0  0  0  0  0
   40.9568   13.6500  -14.3150 C   0  0  0  0  0  0  0  0  0  0  0  0
   41.9277   14.2585  -13.5526 C   0  0  0  0  0  0  0  0  0  0  0  0
   43.2414   14.2700  -14.0154 C   0  0  0  0  0  0  0  0  0  0  0  0
   43.5829   13.6768  -15.2336 C   0  0  0  0  0  0  0  0  0  0  0  0
   42.6155   13.0657  -16.0023 C   0  0  0  0  0  0  0  0  0  0  0  0
   41.3252   13.0663  -15.5255 C   0  0  0  0  0  0  0  0  0  0  0  0
   40.1831   12.5570  -16.0425 C   0  0  0  0  0  0  0  0  0  0  0  0
   39.8640   11.8810  -17.2183 C   0  0  0  0  0  0  0  0  0  0  0  0
   40.7432   11.4687  -18.3153 C   0  0  0  0  0  0  0  0  0  0  0  0
   39.9269   10.8050  -19.2809 N   0  0  0  0  0  0  0  0  0  0  0  0
   38.5687   10.8107  -18.7943 C   0  0  0  0  0  0  0  0  0  0  0  0
   37.6784   10.2846  -19.4796 O   0  0  0  0  0  0  0  0  0  0  0  0
   38.5765   11.4870  -17.5149 C   0  0  0  0  0  0  0  0  0  0  0  0
   37.5448   11.7688  -16.6116 C   0  0  0  0  0  0  0  0  0  0  0  0
   36.2031   11.5593  -16.5694 C   0  0  0  0  0  0  0  0  0  0  0  0
   35.3364   10.9648  -17.4560 C   0  0  0  0  0  0  0  0  0  0  0  0
   33.9691   10.9079  -17.1558 C   0  0  0  0  0  0  0  0  0  0  0  0
   33.5273   11.4476  -15.9838 C   0  0  0  0  0  0  0  0  0  0  0  0
   34.4224   12.0507  -15.0896 C   0  0  0  0  0  0  0  0  0  0  0  0
   35.7533   12.1083  -15.3742 C   0  0  0  0  0  0  0  0  0  0  0  0
   36.7670   12.6473  -14.6707 N   0  0  0  0  0  0  0  0  0  0  0  0
   37.8760   12.4384  -15.4475 C   0  0  0  0  0  0  0  0  0  0  0  0
   39.1637   12.8240  -15.1721 C   0  0  0  0  0  0  0  0  0  0  0  0
   35.1495   15.6245  -14.1425 H   0  0  0  0  0  0  0  0  0  0  0  0
   40.2494   10.3751  -20.2048 H   0  0  0  0  0  0  0  0  0  0  0  0
   36.1191   15.2825  -12.0564 C   0  0  0  0  0  0  0  0  0  0  0  0
   36.0730   16.6898  -12.2045 O   0  0  0  0  0  0  0  0  0  0  0  0
   35.5784   17.0716  -11.4106 H   0  0  0  0  0  0  0  0  0  0  0  0
  2  1  1  0  0  0
  2  3  1  0  0  0
  3  4  1  0  0  0
  4  5  1  0  0  0
  5  6  1  0  0  0
  6  7  1  0  0  0
  6 34  1  0  0  0
 34 35  1  0  0  0
  4  8  1  0  0  0
  8  9  1  0  0  0
  9 10  2  0  0  0
 10 11  1  0  0  0
 11 12  2  0  0  0
 12 13  1  0  0  0
 13 14  2  0  0  0
 14 15  1  0  0  0
 15 16  2  0  0  0
 16 17  1  0  0  0
 17 18  1  0  0  0
 18 19  1  0  0  0
 19 20  2  0  0  0
 19 21  1  0  0  0
 21 22  2  0  0  0
 22 23  1  0  0  0
 23 24  2  0  0  0
 24 25  1  0  0  0
 25 26  2  0  0  0
 26 27  1  0  0  0
 27 28  2  0  0  0
 28 29  1  0  0  0
 29 30  1  0  0  0
 30 31  2  0  0  0
  6  2  1  0  0  0
 31  8  1  0  0  0
 29  2  1  0  0  0
 14  9  1  0  0  0
 31 15  1  0  0  0
 21 16  1  0  0  0
 30 22  1  0  0  0
 28 23  1  0  0  0
  7 32  1  0  0  0
 35 36  1  0  0  0
 18 33  1  0  0  0
M  END
> <minimizedAffinity>
-13.19578

> <CNNscore>
0.8542451262

> <CNNaffinity>
7.2238631248

> <CNN_VS>
6.1709499359

> <CNNaffinity_variance>
0.0545589030

$$$$
[H]OC([H])([H])[C@@]1(O[H])C([H])([H])[C@@]2([H])O[C@]1(C([H])([H])[H])n1c3c([H])c([H])c([H])c([H])c3c3c4c(c5c6c([H])c([H])c([H])c([H])c6n2c5c31)C([H])([H])N([H])C4=O


 36 43  0  0  0  0  0  0  0  0999 V2000
   35.3147   12.0082  -13.1031 C   0  0  0  0  0  0  0  0  0  0  0  0
   36.2843   13.1201  -13.4921 C   0  0  0  0  0  0  0  0  0  0  0  0
   37.0148   13.2573  -12.2737 O   0  0  0  0  0  0  0  0  0  0  0  0
   37.4762   14.5201  -12.1572 C   0  0  0  0  0  0  0  0  0  0  0  0
   36.6377   15.4290  -13.0136 C   0  0  0  0  0  0  0  0  0  0  0  0
   35.6586   14.4489  -13.6362 C   0  0  0  0  0  0  0  0  0  0  0  0
   35.4940   14.8674  -14.9544 O   0  0  0  0  0  0  0  0  0  0  0  0
   38.8420   14.5380  -12.6836 N   0  0  0  0  0  0  0  0  0  0  0  0
   39.8985   15.1820  -12.2263 C   0  0  0  0  0  0  0  0  0  0  0  0
   40.0450   16.0008  -11.1299 C   0  0  0  0  0  0  0  0  0  0  0  0
   41.2920   16.5639  -10.8692 C   0  0  0  0  0  0  0  0  0  0  0  0
   42.3867   16.3101  -11.6997 C   0  0  0  0  0  0  0  0  0  0  0  0
   42.2469   15.4910  -12.7996 C   0  0  0  0  0  0  0  0  0  0  0  0
   41.0066   14.9460  -13.0375 C   0  0  0  0  0  0  0  0  0  0  0  0
   40.5676   14.1214  -14.0165 C   0  0  0  0  0  0  0  0  0  0  0  0
   41.1585   13.5393  -15.1361 C   0  0  0  0  0  0  0  0  0  0  0  0
   42.5427   13.6361  -15.6064 C   0  0  0  0  0  0  0  0  0  0  0  0
   42.6379   12.8516  -16.7958 N   0  0  0  0  0  0  0  0  0  0  0  0
   41.3377   12.2845  -17.0598 C   0  0  0  0  0  0  0  0  0  0  0  0
   41.1842   11.5610  -18.0558 O   0  0  0  0  0  0  0  0  0  0  0  0
   40.4531   12.7367  -16.0074 C   0  0  0  0  0  0  0  0  0  0  0  0
   39.0958   12.4892  -15.7703 C   0  0  0  0  0  0  0  0  0  0  0  0
   38.1103   11.7903  -16.3917 C   0  0  0  0  0  0  0  0  0  0  0  0
   38.1006   11.0399  -17.5438 C   0  0  0  0  0  0  0  0  0  0  0  0
   36.9091   10.4370  -17.9679 C   0  0  0  0  0  0  0  0  0  0  0  0
   35.7798   10.6104  -17.2232 C   0  0  0  0  0  0  0  0  0  0  0  0
   35.8046   11.3784  -16.0511 C   0  0  0  0  0  0  0  0  0  0  0  0
   36.9597   11.9662  -15.6319 C   0  0  0  0  0  0  0  0  0  0  0  0
   37.1955   12.7451  -14.5591 N   0  0  0  0  0  0  0  0  0  0  0  0
   38.5226   13.0715  -14.6542 C   0  0  0  0  0  0  0  0  0  0  0  0
   39.2418   13.8693  -13.8003 C   0  0  0  0  0  0  0  0  0  0  0  0
   34.5176   14.8035  -15.1512 H   0  0  0  0  0  0  0  0  0  0  0  0
   43.5098   12.7011  -17.3953 H   0  0  0  0  0  0  0  0  0  0  0  0
   34.3831   14.5719  -12.8410 C   0  0  0  0  0  0  0  0  0  0  0  0
   33.3448   14.7793  -13.7808 O   0  0  0  0  0  0  0  0  0  0  0  0
   32.4633   14.7234  -13.2903 H   0  0  0  0  0  0  0  0  0  0  0  0
  2  1  1  0  0  0
  2  3  1  0  0  0
  3  4  1  0  0  0
  4  5  1  0  0  0
  5  6  1  0  0  0
  6  7  1  0  0  0
  6 34  1  0  0  0
 34 35  1  0  0  0
  4  8  1  0  0  0
  8  9  1  0  0  0
  9 10  2  0  0  0
 10 11  1  0  0  0
 11 12  2  0  0  0
 12 13  1  0  0  0
 13 14  2  0  0  0
 14 15  1  0  0  0
 15 16  2  0  0  0
 16 17  1  0  0  0
 17 18  1  0  0  0
 18 19  1  0  0  0
 19 20  2  0  0  0
 19 21  1  0  0  0
 21 22  2  0  0  0
 22 23  1  0  0  0
 23 24  2  0  0  0
 24 25  1  0  0  0
 25 26  2  0  0  0
 26 27  1  0  0  0
 27 28  2  0  0  0
 28 29  1  0  0  0
 29 30  1  0  0  0
 30 31  2  0  0  0
  6  2  1  0  0  0
 31  8  1  0  0  0
 29  2  1  0  0  0
 14  9  1  0  0  0
 31 15  1  0  0  0
 21 16  1  0  0  0
 30 22  1  0  0  0
 28 23  1  0  0  0
  7 32  1  0  0  0
 35 36  1  0  0  0
 18 33  1  0  0  0
M  END
> <minimizedAffinity>
-12.45050

> <CNNscore>
0.7041062713

> <CNNaffinity>
7.0110731125

> <CNN_VS>
4.9365406036

> <CNNaffinity_variance>
0.0780625492

$$$$
[H]OC([H])([H])[C@@]1(O[H])C([H])([H])[C@@]2([H])O[C@]1(C([H])([H])[H])n1c3c([H])c([H])c([H])c([H])c3c3c4c(c5c6c([H])c([H])c([H])c([H])c6n2c5c31)C([H])([H])N([H])C4=O


 36 43  0  0  0  0  0  0  0  0999 V2000
   40.7899   14.4734  -16.9350 C   0  0  0  0  0  0  0  0  0  0  0  0
   40.0170   13.9602  -15.7237 C   0  0  0  0  0  0  0  0  0  0  0  0
   39.4922   15.1877  -15.2191 O   0  0  0  0  0  0  0  0  0  0  0  0
   39.3084   15.0922  -13.8856 C   0  0  0  0  0  0  0  0  0  0  0  0
   40.1917   14.0007  -13.3463 C   0  0  0  0  0  0  0  0  0  0  0  0
   40.8688   13.4997  -14.6101 C   0  0  0  0  0  0  0  0  0  0  0  0
   40.9406   12.1153  -14.4751 O   0  0  0  0  0  0  0  0  0  0  0  0
   37.9165   14.6976  -13.6621 N   0  0  0  0  0  0  0  0  0  0  0  0
   37.0765   15.1110  -12.7329 C   0  0  0  0  0  0  0  0  0  0  0  0
   37.2380   16.0317  -11.7229 C   0  0  0  0  0  0  0  0  0  0  0  0
   36.1713   16.2865  -10.8642 C   0  0  0  0  0  0  0  0  0  0  0  0
   34.9498   15.6245  -11.0141 C   0  0  0  0  0  0  0  0  0  0  0  0
   34.7813   14.7011  -12.0235 C   0  0  0  0  0  0  0  0  0  0  0  0
   35.8479   14.4656  -12.8594 C   0  0  0  0  0  0  0  0  0  0  0  0
   35.9848   13.6344  -13.9183 C   0  0  0  0  0  0  0  0  0  0  0  0
   35.1506   12.7103  -14.5440 C   0  0  0  0  0  0  0  0  0  0  0  0
   33.7638   12.3564  -14.2310 C   0  0  0  0  0  0  0  0  0  0  0  0
   33.3622   11.3598  -15.1716 N   0  0  0  0  0  0  0  0  0  0  0  0
   34.4793   11.0979  -16.0463 C   0  0  0  0  0  0  0  0  0  0  0  0
   34.3564   10.2555  -16.9488 O   0  0  0  0  0  0  0  0  0  0  0  0
   35.5645   11.9558  -15.6212 C   0  0  0  0  0  0  0  0  0  0  0  0
   36.8652   12.1144  -16.1139 C   0  0  0  0  0  0  0  0  0  0  0  0
   37.6042   11.5581  -17.1090 C   0  0  0  0  0  0  0  0  0  0  0  0
   37.3162   10.5817  -18.0333 C   0  0  0  0  0  0  0  0  0  0  0  0
   38.2998   10.1804  -18.9467 C   0  0  0  0  0  0  0  0  0  0  0  0
   39.5280   10.7714  -18.8966 C   0  0  0  0  0  0  0  0  0  0  0  0
   39.8075   11.7653  -17.9487 C   0  0  0  0  0  0  0  0  0  0  0  0
   38.8555   12.1615  -17.0586 C   0  0  0  0  0  0  0  0  0  0  0  0
   38.9193   13.0751  -16.0714 N   0  0  0  0  0  0  0  0  0  0  0  0
   37.6818   13.0367  -15.4848 C   0  0  0  0  0  0  0  0  0  0  0  0
   37.2513   13.7763  -14.4122 C   0  0  0  0  0  0  0  0  0  0  0  0
   41.8513   11.8482  -14.7843 H   0  0  0  0  0  0  0  0  0  0  0  0
   32.4075   10.8828  -15.2305 H   0  0  0  0  0  0  0  0  0  0  0  0
   42.2356   14.1368  -14.6315 C   0  0  0  0  0  0  0  0  0  0  0  0
   42.9470   13.5933  -13.5347 O   0  0  0  0  0  0  0  0  0  0  0  0
   43.9091   13.8930  -13.6066 H   0  0  0  0  0  0  0  0  0  0  0  0
  2  1  1  0  0  0
  2  3  1  0  0  0
  3  4  1  0  0  0
  4  5  1  0  0  0
  5  6  1  0  0  0
  6  7  1  0  0  0
  6 34  1  0  0  0
 34 35  1  0  0  0
  4  8  1  0  0  0
  8  9  1  0  0  0
  9 10  2  0  0  0
 10 11  1  0  0  0
 11 12  2  0  0  0
 12 13  1  0  0  0
 13 14  2  0  0  0
 14 15  1  0  0  0
 15 16  2  0  0  0
 16 17  1  0  0  0
 17 18  1  0  0  0
 18 19  1  0  0  0
 19 20  2  0  0  0
 19 21  1  0  0  0
 21 22  2  0  0  0
 22 23  1  0  0  0
 23 24  2  0  0  0
 24 25  1  0  0  0
 25 26  2  0  0  0
 26 27  1  0  0  0
 27 28  2  0  0  0
 28 29  1  0  0  0
 29 30  1  0  0  0
 30 31  2  0  0  0
  6  2  1  0  0  0
 31  8  1  0  0  0
 29  2  1  0  0  0
 14  9  1  0  0  0
 31 15  1  0  0  0
 21 16  1  0  0  0
 30 22  1  0  0  0
 28 23  1  0  0  0
  7 32  1  0  0  0
 35 36  1  0  0  0
 18 33  1  0  0  0
M  END
> <minimizedAffinity>
-7.98357

> <CNNscore>
0.4804401994

> <CNNaffinity>
6.8060226440

> <CNN_VS>
3.2698869705

> <CNNaffinity_variance>
0.1301314533

$$$$
[H]OC([H])([H])[C@@]1(O[H])C([H])([H])[C@@]2([H])O[C@]1(C([H])([H])[H])n1c3c([H])c([H])c([H])c([H])c3c3c4c(c5c6c([H])c([H])c([H])c([H])c6n2c5c31)C([H])([H])N([H])C4=O


 36 43  0  0  0  0  0  0  0  0999 V2000
   37.0204   16.8245  -11.6579 C   0  0  0  0  0  0  0  0  0  0  0  0
   37.0163   15.3560  -12.0719 C   0  0  0  0  0  0  0  0  0  0  0  0
   35.9152   15.3516  -12.9799 O   0  0  0  0  0  0  0  0  0  0  0  0
   35.3444   14.1289  -13.0002 C   0  0  0  0  0  0  0  0  0  0  0  0
   35.6869   13.4072  -11.7256 C   0  0  0  0  0  0  0  0  0  0  0  0
   36.5600   14.4290  -11.0181 C   0  0  0  0  0  0  0  0  0  0  0  0
   37.5799   13.6983  -10.4134 O   0  0  0  0  0  0  0  0  0  0  0  0
   35.9389   13.3860  -14.1126 N   0  0  0  0  0  0  0  0  0  0  0  0
   35.3580   12.5639  -14.9651 C   0  0  0  0  0  0  0  0  0  0  0  0
   34.0433   12.1742  -15.0817 C   0  0  0  0  0  0  0  0  0  0  0  0
   33.6911   11.2783  -16.0883 C   0  0  0  0  0  0  0  0  0  0  0  0
   34.6476   10.7745  -16.9737 C   0  0  0  0  0  0  0  0  0  0  0  0
   35.9662   11.1606  -16.8625 C   0  0  0  0  0  0  0  0  0  0  0  0
   36.2911   12.0461  -15.8613 C   0  0  0  0  0  0  0  0  0  0  0  0
   37.4749   12.5981  -15.5082 C   0  0  0  0  0  0  0  0  0  0  0  0
   38.7816   12.4807  -15.9773 C   0  0  0  0  0  0  0  0  0  0  0  0
   39.2951   11.6821  -17.0931 C   0  0  0  0  0  0  0  0  0  0  0  0
   40.7024   11.9139  -17.1629 N   0  0  0  0  0  0  0  0  0  0  0  0
   41.0545   12.8335  -16.1083 C   0  0  0  0  0  0  0  0  0  0  0  0
   42.2389   13.1785  -15.9770 O   0  0  0  0  0  0  0  0  0  0  0  0
   39.8349   13.1576  -15.3998 C   0  0  0  0  0  0  0  0  0  0  0  0
   39.5969   13.9958  -14.3042 C   0  0  0  0  0  0  0  0  0  0  0  0
   40.3557   14.7811  -13.4959 C   0  0  0  0  0  0  0  0  0  0  0  0
   41.7061   15.0388  -13.4674 C   0  0  0  0  0  0  0  0  0  0  0  0
   42.2282   15.8916  -12.4861 C   0  0  0  0  0  0  0  0  0  0  0  0
   41.3790   16.4490  -11.5759 C   0  0  0  0  0  0  0  0  0  0  0  0
   40.0047   16.1771  -11.6170 C   0  0  0  0  0  0  0  0  0  0  0  0
   39.4899   15.3502  -12.5693 C   0  0  0  0  0  0  0  0  0  0  0  0
   38.2206   14.9505  -12.7750 N   0  0  0  0  0  0  0  0  0  0  0  0
   38.2949   14.1048  -13.8502 C   0  0  0  0  0  0  0  0  0  0  0  0
   37.2607   13.4205  -14.4378 C   0  0  0  0  0  0  0  0  0  0  0  0
   37.6981   14.0812   -9.4993 H   0  0  0  0  0  0  0  0  0  0  0  0
   41.3871   11.4894  -17.8653 H   0  0  0  0  0  0  0  0  0  0  0  0
   35.6719   15.1053  -10.0039 C   0  0  0  0  0  0  0  0  0  0  0  0
   35.5587   14.2108   -8.9124 O   0  0  0  0  0  0  0  0  0  0  0  0
   35.0879   14.6936   -8.1601 H   0  0  0  0  0  0  0  0  0  0  0  0
  2  1  1  0  0  0
  2  3  1  0  0  0
  3  4  1  0  0  0
  4  5  1  0  0  0
  5  6  1  0  0  0
  6  7  1  0  0  0
  6 34  1  0  0  0
 34 35  1  0  0  0
  4  8  1  0  0  0
  8  9  1  0  0  0
  9 10  2  0  0  0
 10 11  1  0  0  0
 11 12  2  0  0  0
 12 13  1  0  0  0
 13 14  2  0  0  0
 14 15  1  0  0  0
 15 16  2  0  0  0
 16 17  1  0  0  0
 17 18  1  0  0  0
 18 19  1  0  0  0
 19 20  2  0  0  0
 19 21  1  0  0  0
 21 22  2  0  0  0
 22 23  1  0  0  0
 23 24  2  0  0  0
 24 25  1  0  0  0
 25 26  2  0  0  0
 26 27  1  0  0  0
 27 28  2  0  0  0
 28 29  1  0  0  0
 29 30  1  0  0  0
 30 31  2  0  0  0
  6  2  1  0  0  0
 31  8  1  0  0  0
 29  2  1  0  0  0
 14  9  1  0  0  0
 31 15  1  0  0  0
 21 16  1  0  0  0
 30 22  1  0  0  0
 28 23  1  0  0  0
  7 32  1  0  0  0
 35 36  1  0  0  0
 18 33  1  0  0  0
M  END
> <minimizedAffinity>
-11.32684

> <CNNscore>
0.4713077247

> <CNNaffinity>
6.6833314896

> <CNN_VS>
3.1499056816

> <CNNaffinity_variance>
0.0761757419

$$$$
[H]OC([H])([H])[C@@]1(O[H])C([H])([H])[C@@]2([H])O[C@]1(C([H])([H])[H])n1c3c([H])c([H])c([H])c([H])c3c3c4c(c5c6c([H])c([H])c([H])c([H])c6n2c5c31)C([H])([H])N([H])C4=O


 36 43  0  0  0  0  0  0  0  0999 V2000
   37.3008   13.7793  -10.6682 C   0  0  0  0  0  0  0  0  0  0  0  0
   38.0380   14.2550  -11.9166 C   0  0  0  0  0  0  0  0  0  0  0  0
   39.3700   13.8596  -11.5907 O   0  0  0  0  0  0  0  0  0  0  0  0
   40.2522   14.6744  -12.2062 C   0  0  0  0  0  0  0  0  0  0  0  0
   39.5696   15.9727  -12.5397 C   0  0  0  0  0  0  0  0  0  0  0  0
   38.1622   15.7214  -12.0269 C   0  0  0  0  0  0  0  0  0  0  0  0
   37.3110   16.3021  -12.9640 O   0  0  0  0  0  0  0  0  0  0  0  0
   40.6385   14.0322  -13.4637 N   0  0  0  0  0  0  0  0  0  0  0  0
   41.8258   13.9765  -14.0356 C   0  0  0  0  0  0  0  0  0  0  0  0
   43.0420   14.4757  -13.6288 C   0  0  0  0  0  0  0  0  0  0  0  0
   44.1595   14.2729  -14.4352 C   0  0  0  0  0  0  0  0  0  0  0  0
   44.0619   13.5749  -15.6418 C   0  0  0  0  0  0  0  0  0  0  0  0
   42.8468   13.0723  -16.0554 C   0  0  0  0  0  0  0  0  0  0  0  0
   41.7571   13.2844  -15.2432 C   0  0  0  0  0  0  0  0  0  0  0  0
   40.4607   12.9206  -15.3769 C   0  0  0  0  0  0  0  0  0  0  0  0
   39.7372   12.2389  -16.3532 C   0  0  0  0  0  0  0  0  0  0  0  0
   40.2077   11.6478  -17.6085 C   0  0  0  0  0  0  0  0  0  0  0  0
   39.0733   11.0612  -18.2476 N   0  0  0  0  0  0  0  0  0  0  0  0
   37.9225   11.2889  -17.4076 C   0  0  0  0  0  0  0  0  0  0  0  0
   36.8151   10.8631  -17.7704 O   0  0  0  0  0  0  0  0  0  0  0  0
   38.3799   12.0213  -16.2463 C   0  0  0  0  0  0  0  0  0  0  0  0
   37.6929   12.4956  -15.1225 C   0  0  0  0  0  0  0  0  0  0  0  0
   36.4040   12.4854  -14.6931 C   0  0  0  0  0  0  0  0  0  0  0  0
   35.2530   11.9785  -15.2488 C   0  0  0  0  0  0  0  0  0  0  0  0
   34.0325   12.1360  -14.5791 C   0  0  0  0  0  0  0  0  0  0  0  0
   34.0150   12.7934  -13.3842 C   0  0  0  0  0  0  0  0  0  0  0  0
   35.1962   13.3050  -12.8298 C   0  0  0  0  0  0  0  0  0  0  0  0
   36.3866   13.1542  -13.4746 C   0  0  0  0  0  0  0  0  0  0  0  0
   37.6181   13.5756  -13.1296 N   0  0  0  0  0  0  0  0  0  0  0  0
   38.4238   13.1686  -14.1602 C   0  0  0  0  0  0  0  0  0  0  0  0
   39.7741   13.3768  -14.2867 C   0  0  0  0  0  0  0  0  0  0  0  0
   36.6037   16.7791  -12.4458 H   0  0  0  0  0  0  0  0  0  0  0  0
   39.0621   10.5424  -19.1820 H   0  0  0  0  0  0  0  0  0  0  0  0
   38.0783   16.4070  -10.6862 C   0  0  0  0  0  0  0  0  0  0  0  0
   36.7109   16.7077  -10.4761 O   0  0  0  0  0  0  0  0  0  0  0  0
   36.6056   17.0380   -9.5272 H   0  0  0  0  0  0  0  0  0  0  0  0
  2  1  1  0  0  0
  2  3  1  0  0  0
  3  4  1  0  0  0
  4  5  1  0  0  0
  5  6  1  0  0  0
  6  7  1  0  0  0
  6 34  1  0  0  0
 34 35  1  0  0  0
  4  8  1  0  0  0
  8  9  1  0  0  0
  9 10  2  0  0  0
 10 11  1  0  0  0
 11 12  2  0  0  0
 12 13  1  0  0  0
 13 14  2  0  0  0
 14 15  1  0  0  0
 15 16  2  0  0  0
 16 17  1  0  0  0
 17 18  1  0  0  0
 18 19  1  0  0  0
 19 20  2  0  0  0
 19 21  1  0  0  0
 21 22  2  0  0  0
 22 23  1  0  0  0
 23 24  2  0  0  0
 24 25  1  0  0  0
 25 26  2  0  0  0
 26 27  1  0  0  0
 27 28  2  0  0  0
 28 29  1  0  0  0
 29 30  1  0  0  0
 30 31  2  0  0  0
  6  2  1  0  0  0
 31  8  1  0  0  0
 29  2  1  0  0  0
 14  9  1  0  0  0
 31 15  1  0  0  0
 21 16  1  0  0  0
 30 22  1  0  0  0
 28 23  1  0  0  0
  7 32  1  0  0  0
 35 36  1  0  0  0
 18 33  1  0  0  0
M  END
> <minimizedAffinity>
-5.24942

> <CNNscore>
0.4293877184

> <CNNaffinity>
6.6390175819

> <CNN_VS>
2.8507125378

> <CNNaffinity_variance>
0.1163183674

$$$$
[H]OC([H])([H])[C@@]1(O[H])C([H])([H])[C@@]2([H])O[C@]1(C([H])([H])[H])n1c3c([H])c([H])c([H])c([H])c3c3c4c(c5c6c([H])c([H])c([H])c([H])c6n2c5c31)C([H])([H])N([H])C4=O


 36 43  0  0  0  0  0  0  0  0999 V2000
   46.1467   16.1767   -8.9644 C   0  0  0  0  0  0  0  0  0  0  0  0
   45.2701   16.0426   -7.7228 C   0  0  0  0  0  0  0  0  0  0  0  0
   43.9789   16.2236   -8.3032 O   0  0  0  0  0  0  0  0  0  0  0  0
   43.1353   16.7445   -7.3877 C   0  0  0  0  0  0  0  0  0  0  0  0
   43.9377   17.4351   -6.3192 C   0  0  0  0  0  0  0  0  0  0  0  0
   45.3595   17.1826   -6.7900 C   0  0  0  0  0  0  0  0  0  0  0  0
   46.0978   16.9263   -5.6372 O   0  0  0  0  0  0  0  0  0  0  0  0
   42.4210   15.6288   -6.7650 N   0  0  0  0  0  0  0  0  0  0  0  0
   41.1529   15.5509   -6.4101 C   0  0  0  0  0  0  0  0  0  0  0  0
   40.1302   16.4639   -6.5293 C   0  0  0  0  0  0  0  0  0  0  0  0
   38.8622   16.1223   -6.0650 C   0  0  0  0  0  0  0  0  0  0  0  0
   38.6177   14.8750   -5.4845 C   0  0  0  0  0  0  0  0  0  0  0  0
   39.6376   13.9558   -5.3618 C   0  0  0  0  0  0  0  0  0  0  0  0
   40.8813   14.3146   -5.8273 C   0  0  0  0  0  0  0  0  0  0  0  0
   42.0550   13.6416   -5.8459 C   0  0  0  0  0  0  0  0  0  0  0  0
   42.4635   12.3855   -5.4024 C   0  0  0  0  0  0  0  0  0  0  0  0
   41.6761   11.3318   -4.7571 C   0  0  0  0  0  0  0  0  0  0  0  0
   42.5616   10.2403   -4.5054 N   0  0  0  0  0  0  0  0  0  0  0  0
   43.8723   10.6122   -4.9805 C   0  0  0  0  0  0  0  0  0  0  0  0
   44.8095    9.8082   -4.8614 O   0  0  0  0  0  0  0  0  0  0  0  0
   43.7648   11.9477   -5.5276 C   0  0  0  0  0  0  0  0  0  0  0  0
   44.7187   12.7839   -6.1197 C   0  0  0  0  0  0  0  0  0  0  0  0
   46.0478   12.7062   -6.3907 C   0  0  0  0  0  0  0  0  0  0  0  0
   46.9779   11.7204   -6.1593 C   0  0  0  0  0  0  0  0  0  0  0  0
   48.3126   11.9257   -6.5323 C   0  0  0  0  0  0  0  0  0  0  0  0
   48.6600   13.1067   -7.1194 C   0  0  0  0  0  0  0  0  0  0  0  0
   47.7011   14.1028   -7.3489 C   0  0  0  0  0  0  0  0  0  0  0  0
   46.4013   13.9094   -6.9903 C   0  0  0  0  0  0  0  0  0  0  0  0
   45.3397   14.7298   -7.1055 N   0  0  0  0  0  0  0  0  0  0  0  0
   44.2991   14.0271   -6.5575 C   0  0  0  0  0  0  0  0  0  0  0  0
   42.9992   14.4449   -6.4215 C   0  0  0  0  0  0  0  0  0  0  0  0
   46.9567   17.4253   -5.7351 H   0  0  0  0  0  0  0  0  0  0  0  0
   42.3134    9.3069   -4.0475 H   0  0  0  0  0  0  0  0  0  0  0  0
   45.8033   18.4510   -7.4748 C   0  0  0  0  0  0  0  0  0  0  0  0
   45.1161   19.5113   -6.8362 O   0  0  0  0  0  0  0  0  0  0  0  0
   45.4987   20.3820   -7.1769 H   0  0  0  0  0  0  0  0  0  0  0  0
  2  1  1  0  0  0
  2  3  1  0  0  0
  3  4  1  0  0  0
  4  5  1  0  0  0
  5  6  1  0  0  0
  6  7  1  0  0  0
  6 34  1  0  0  0
 34 35  1  0  0  0
  4  8  1  0  0  0
  8  9  1  0  0  0
  9 10  2  0  0  0
 10 11  1  0  0  0
 11 12  2  0  0  0
 12 13  1  0  0  0
 13 14  2  0  0  0
 14 15  1  0  0  0
 15 16  2  0  0  0
 16 17  1  0  0  0
 17 18  1  0  0  0
 18 19  1  0  0  0
 19 20  2  0  0  0
 19 21  1  0  0  0
 21 22  2  0  0  0
 22 23  1  0  0  0
 23 24  2  0  0  0
 24 25  1  0  0  0
 25 26  2  0  0  0
 26 27  1  0  0  0
 27 28  2  0  0  0
 28 29  1  0  0  0
 29 30  1  0  0  0
 30 31  2  0  0  0
  6  2  1  0  0  0
 31  8  1  0  0  0
 29  2  1  0  0  0
 14  9  1  0  0  0
 31 15  1  0  0  0
 21 16  1  0  0  0
 30 22  1  0  0  0
 28 23  1  0  0  0
  7 32  1  0  0  0
 35 36  1  0  0  0
 18 33  1  0  0  0
M  END
> <minimizedAffinity>
-5.18184

> <CNNscore>
0.3964966238

> <CNNaffinity>
5.0689477921

> <CNN_VS>
2.0098206997

> <CNNaffinity_variance>
0.1835983694

$$$$
[H]OC([H])([H])[C@@]1(O[H])C([H])([H])[C@@]2([H])O[C@]1(C([H])([H])[H])n1c3c([H])c([H])c([H])c([H])c3c3c4c(c5c6c([H])c([H])c([H])c([H])c6n2c5c31)C([H])([H])N([H])C4=O


 36 43  0  0  0  0  0  0  0  0999 V2000
   44.0323   14.7802  -11.3620 C   0  0  0  0  0  0  0  0  0  0  0  0
   44.6051   15.1914  -10.0089 C   0  0  0  0  0  0  0  0  0  0  0  0
   43.5129   15.9503   -9.4911 O   0  0  0  0  0  0  0  0  0  0  0  0
   43.9724   16.8871   -8.6354 C   0  0  0  0  0  0  0  0  0  0  0  0
   45.4202   17.1601   -8.9390 C   0  0  0  0  0  0  0  0  0  0  0  0
   45.6810   16.1986  -10.0854 C   0  0  0  0  0  0  0  0  0  0  0  0
   46.9601   15.6919   -9.8680 O   0  0  0  0  0  0  0  0  0  0  0  0
   43.8930   16.3250   -7.2861 N   0  0  0  0  0  0  0  0  0  0  0  0
   43.5394   16.9161   -6.1611 C   0  0  0  0  0  0  0  0  0  0  0  0
   43.1281   18.2064   -5.9163 C   0  0  0  0  0  0  0  0  0  0  0  0
   42.8085   18.5776   -4.6124 C   0  0  0  0  0  0  0  0  0  0  0  0
   42.8997   17.6643   -3.5588 C   0  0  0  0  0  0  0  0  0  0  0  0
   43.3111   16.3704   -3.7969 C   0  0  0  0  0  0  0  0  0  0  0  0
   43.6213   16.0261   -5.0920 C   0  0  0  0  0  0  0  0  0  0  0  0
   44.0451   14.8578   -5.6272 C   0  0  0  0  0  0  0  0  0  0  0  0
   44.3460   13.6012   -5.1058 C   0  0  0  0  0  0  0  0  0  0  0  0
   44.2624   13.1307   -3.7208 C   0  0  0  0  0  0  0  0  0  0  0  0
   44.6771   11.7643   -3.7157 N   0  0  0  0  0  0  0  0  0  0  0  0
   45.0156   11.3972   -5.0694 C   0  0  0  0  0  0  0  0  0  0  0  0
   45.4079   10.2437   -5.3032 O   0  0  0  0  0  0  0  0  0  0  0  0
   44.7958   12.5646   -5.8959 C   0  0  0  0  0  0  0  0  0  0  0  0
   44.9595   12.7680   -7.2713 C   0  0  0  0  0  0  0  0  0  0  0  0
   45.3798   12.0182   -8.3233 C   0  0  0  0  0  0  0  0  0  0  0  0
   45.8229   10.7193   -8.4087 C   0  0  0  0  0  0  0  0  0  0  0  0
   46.2225   10.2037   -9.6486 C   0  0  0  0  0  0  0  0  0  0  0  0
   46.1627   11.0079  -10.7485 C   0  0  0  0  0  0  0  0  0  0  0  0
   45.7091   12.3301  -10.6464 C   0  0  0  0  0  0  0  0  0  0  0  0
   45.3175   12.8376   -9.4444 C   0  0  0  0  0  0  0  0  0  0  0  0
   44.8699   14.0675   -9.1279 N   0  0  0  0  0  0  0  0  0  0  0  0
   44.6550   14.0195   -7.7757 C   0  0  0  0  0  0  0  0  0  0  0  0
   44.2107   15.0388   -6.9717 C   0  0  0  0  0  0  0  0  0  0  0  0
   47.4166   15.6871  -10.7556 H   0  0  0  0  0  0  0  0  0  0  0  0
   44.7324   11.1152   -2.8683 H   0  0  0  0  0  0  0  0  0  0  0  0
   45.6068   17.0230  -11.3461 C   0  0  0  0  0  0  0  0  0  0  0  0
   45.8491   18.3638  -10.9615 O   0  0  0  0  0  0  0  0  0  0  0  0
   45.9464   18.9172  -11.8011 H   0  0  0  0  0  0  0  0  0  0  0  0
  2  1  1  0  0  0
  2  3  1  0  0  0
  3  4  1  0  0  0
  4  5  1  0  0  0
  5  6  1  0  0  0
  6  7  1  0  0  0
  6 34  1  0  0  0
 34 35  1  0  0  0
  4  8  1  0  0  0
  8  9  1  0  0  0
  9 10  2  0  0  0
 10 11  1  0  0  0
 11 12  2  0  0  0
 12 13  1  0  0  0
 13 14  2  0  0  0
 14 15  1  0  0  0
 15 16  2  0  0  0
 16 17  1  0  0  0
 17 18  1  0  0  0
 18 19  1  0  0  0
 19 20  2  0  0  0
 19 21  1  0  0  0
 21 22  2  0  0  0
 22 23  1  0  0  0
 23 24  2  0  0  0
 24 25  1  0  0  0
 25 26  2  0  0  0
 26 27  1  0  0  0
 27 28  2  0  0  0
 28 29  1  0  0  0
 29 30  1  0  0  0
 30 31  2  0  0  0
  6  2  1  0  0  0
 31  8  1  0  0  0
 29  2  1  0  0  0
 14  9  1  0  0  0
 31 15  1  0  0  0
 21 16  1  0  0  0
 30 22  1  0  0  0
 28 23  1  0  0  0
  7 32  1  0  0  0
 35 36  1  0  0  0
 18 33  1  0  0  0
M  END
> <minimizedAffinity>
-5.22730

> <CNNscore>
0.3727041185

> <CNNaffinity>
4.9260125160

> <CNN_VS>
1.8359451294

> <CNNaffinity_variance>
0.2272004634

$$$$
[H]OC([H])([H])[C@@]1(O[H])C([H])([H])[C@@]2([H])O[C@]1(C([H])([H])[H])n1c3c([H])c([H])c([H])c([H])c3c3c4c(c5c6c([H])c([H])c([H])c([H])c6n2c5c31)C([H])([H])N([H])C4=O


 36 43  0  0  0  0  0  0  0  0999 V2000
   41.5939   10.6863  -16.9315 C   0  0  0  0  0  0  0  0  0  0  0  0
   40.4372   11.6797  -16.8753 C   0  0  0  0  0  0  0  0  0  0  0  0
   39.3590   10.7963  -16.5684 O   0  0  0  0  0  0  0  0  0  0  0  0
   38.2046   11.2980  -17.0550 C   0  0  0  0  0  0  0  0  0  0  0  0
   38.5192   12.2615  -18.1665 C   0  0  0  0  0  0  0  0  0  0  0  0
   40.0373   12.2214  -18.1884 C   0  0  0  0  0  0  0  0  0  0  0  0
   40.4451   13.5333  -18.4180 O   0  0  0  0  0  0  0  0  0  0  0  0
   37.5635   12.0496  -15.9747 N   0  0  0  0  0  0  0  0  0  0  0  0
   36.2852   12.1162  -15.6561 C   0  0  0  0  0  0  0  0  0  0  0  0
   35.1882   11.5007  -16.2144 C   0  0  0  0  0  0  0  0  0  0  0  0
   33.9278   11.7479  -15.6755 C   0  0  0  0  0  0  0  0  0  0  0  0
   33.7647   12.6059  -14.5846 C   0  0  0  0  0  0  0  0  0  0  0  0
   34.8591   13.2257  -14.0207 C   0  0  0  0  0  0  0  0  0  0  0  0
   36.0937   12.9668  -14.5691 C   0  0  0  0  0  0  0  0  0  0  0  0
   37.3272   13.4164  -14.2415 C   0  0  0  0  0  0  0  0  0  0  0  0
   37.8182   14.2971  -13.2800 C   0  0  0  0  0  0  0  0  0  0  0  0
   37.0904   15.0345  -12.2441 C   0  0  0  0  0  0  0  0  0  0  0  0
   38.0538   15.7955  -11.5149 N   0  0  0  0  0  0  0  0  0  0  0  0
   39.3516   15.5388  -12.0908 C   0  0  0  0  0  0  0  0  0  0  0  0
   40.3479   16.1022  -11.6121 O   0  0  0  0  0  0  0  0  0  0  0  0
   39.1582   14.6061  -13.1802 C   0  0  0  0  0  0  0  0  0  0  0  0
   40.0679   14.0208  -14.0689 C   0  0  0  0  0  0  0  0  0  0  0  0
   41.4083   14.0926  -14.2781 C   0  0  0  0  0  0  0  0  0  0  0  0
   42.3996   14.8131  -13.6545 C   0  0  0  0  0  0  0  0  0  0  0  0
   43.7218   14.7065  -14.1053 C   0  0  0  0  0  0  0  0  0  0  0  0
   43.9959   13.8855  -15.1594 C   0  0  0  0  0  0  0  0  0  0  0  0
   42.9752   13.1573  -15.7856 C   0  0  0  0  0  0  0  0  0  0  0  0
   41.6877   13.2548  -15.3516 C   0  0  0  0  0  0  0  0  0  0  0  0
   40.5704   12.6622  -15.8140 N   0  0  0  0  0  0  0  0  0  0  0  0
   39.5672   13.1468  -15.0169 C   0  0  0  0  0  0  0  0  0  0  0  0
   38.2292   12.8543  -15.1010 C   0  0  0  0  0  0  0  0  0  0  0  0
   41.1859   13.4861  -19.0853 H   0  0  0  0  0  0  0  0  0  0  0  0
   37.8636   16.4446  -10.6873 H   0  0  0  0  0  0  0  0  0  0  0  0
   40.4138   11.3056  -19.3260 C   0  0  0  0  0  0  0  0  0  0  0  0
   39.4290   11.4861  -20.3269 O   0  0  0  0  0  0  0  0  0  0  0  0
   39.7315   10.9936  -21.1556 H   0  0  0  0  0  0  0  0  0  0  0  0
  2  1  1  0  0  0
  2  3  1  0  0  0
  3  4  1  0  0  0
  4  5  1  0  0  0
  5  6  1  0  0  0
  6  7  1  0  0  0
  6 34  1  0  0  0
 34 35  1  0  0  0
  4  8  1  0  0  0
  8  9  1  0  0  0
  9 10  2  0  0  0
 10 11  1  0  0  0
 11 12  2  0  0  0
 12 13  1  0  0  0
 13 14  2  0  0  0
 14 15  1  0  0  0
 15 16  2  0  0  0
 16 17  1  0  0  0
 17 18  1  0  0  0
 18 19  1  0  0  0
 19 20  2  0  0  0
 19 21  1  0  0  0
 21 22  2  0  0  0
 22 23  1  0  0  0
 23 24  2  0  0  0
 24 25  1  0  0  0
 25 26  2  0  0  0
 26 27  1  0  0  0
 27 28  2  0  0  0
 28 29  1  0  0  0
 29 30  1  0  0  0
 30 31  2  0  0  0
  6  2  1  0  0  0
 31  8  1  0  0  0
 29  2  1  0  0  0
 14  9  1  0  0  0
 31 15  1  0  0  0
 21 16  1  0  0  0
 30 22  1  0  0  0
 28 23  1  0  0  0
  7 32  1  0  0  0
 35 36  1  0  0  0
 18 33  1  0  0  0
M  END
> <minimizedAffinity>
-7.70572

> <CNNscore>
0.3607087135

> <CNNaffinity>
6.6127710342

> <CNN_VS>
2.3852841854

> <CNNaffinity_variance>
0.0675125867

$$$$
[H]OC([H])([H])[C@@]1(O[H])C([H])([H])[C@@]2([H])O[C@]1(C([H])([H])[H])n1c3c([H])c([H])c([H])c([H])c3c3c4c(c5c6c([H])c([H])c([H])c([H])c6n2c5c31)C([H])([H])N([H])C4=O


 36 43  0  0  0  0  0  0  0  0999 V2000
   37.5918   14.3939  -10.8215 C   0  0  0  0  0  0  0  0  0  0  0  0
   37.7887   14.4722  -12.3325 C   0  0  0  0  0  0  0  0  0  0  0  0
   38.9168   13.6115  -12.4862 O   0  0  0  0  0  0  0  0  0  0  0  0
   39.6309   13.9830  -13.5693 C   0  0  0  0  0  0  0  0  0  0  0  0
   39.3285   15.4222  -13.8853 C   0  0  0  0  0  0  0  0  0  0  0  0
   38.3120   15.7666  -12.8106 C   0  0  0  0  0  0  0  0  0  0  0  0
   37.3647   16.5754  -13.4338 O   0  0  0  0  0  0  0  0  0  0  0  0
   39.1737   13.1683  -14.6963 N   0  0  0  0  0  0  0  0  0  0  0  0
   39.8820   12.6231  -15.6665 C   0  0  0  0  0  0  0  0  0  0  0  0
   41.2376   12.6352  -15.9035 C   0  0  0  0  0  0  0  0  0  0  0  0
   41.7339   11.9680  -17.0209 C   0  0  0  0  0  0  0  0  0  0  0  0
   40.8799   11.2925  -17.8968 C   0  0  0  0  0  0  0  0  0  0  0  0
   39.5211   11.2765  -17.6654 C   0  0  0  0  0  0  0  0  0  0  0  0
   39.0535   11.9418  -16.5560 C   0  0  0  0  0  0  0  0  0  0  0  0
   37.7990   12.1015  -16.0747 C   0  0  0  0  0  0  0  0  0  0  0  0
   36.5351   11.6971  -16.4994 C   0  0  0  0  0  0  0  0  0  0  0  0
   36.1652   10.8970  -17.6696 C   0  0  0  0  0  0  0  0  0  0  0  0
   34.7440   10.7591  -17.6520 N   0  0  0  0  0  0  0  0  0  0  0  0
   34.2432   11.4640  -16.4970 C   0  0  0  0  0  0  0  0  0  0  0  0
   33.0216   11.4801  -16.2808 O   0  0  0  0  0  0  0  0  0  0  0  0
   35.3865   12.0291  -15.8129 C   0  0  0  0  0  0  0  0  0  0  0  0
   35.4791   12.7981  -14.6467 C   0  0  0  0  0  0  0  0  0  0  0  0
   34.6005   13.3134  -13.7477 C   0  0  0  0  0  0  0  0  0  0  0  0
   33.2289   13.2603  -13.6673 C   0  0  0  0  0  0  0  0  0  0  0  0
   32.5703   13.9177  -12.6199 C   0  0  0  0  0  0  0  0  0  0  0  0
   33.3102   14.5997  -11.6993 C   0  0  0  0  0  0  0  0  0  0  0  0
   34.7078   14.6455  -11.7941 C   0  0  0  0  0  0  0  0  0  0  0  0
   35.3550   14.0074  -12.8088 C   0  0  0  0  0  0  0  0  0  0  0  0
   36.6702   13.9383  -13.0894 N   0  0  0  0  0  0  0  0  0  0  0  0
   36.7400   13.1908  -14.2354 C   0  0  0  0  0  0  0  0  0  0  0  0
   37.8710   12.8516  -14.9344 C   0  0  0  0  0  0  0  0  0  0  0  0
   37.1659   17.3188  -12.7982 H   0  0  0  0  0  0  0  0  0  0  0  0
   34.1432   10.2310  -18.3608 H   0  0  0  0  0  0  0  0  0  0  0  0
   39.0722   16.5090  -11.7403 C   0  0  0  0  0  0  0  0  0  0  0  0
   38.1034   17.0181  -10.8423 O   0  0  0  0  0  0  0  0  0  0  0  0
   38.5882   17.3973  -10.0412 H   0  0  0  0  0  0  0  0  0  0  0  0
  2  1  1  0  0  0
  2  3  1  0  0  0
  3  4  1  0  0  0
  4  5  1  0  0  0
  5  6  1  0  0  0
  6  7  1  0  0  0
  6 34  1  0  0  0
 34 35  1  0  0  0
  4  8  1  0  0  0
  8  9  1  0  0  0
  9 10  2  0  0  0
 10 11  1  0  0  0
 11 12  2  0  0  0
 12 13  1  0  0  0
 13 14  2  0  0  0
 14 15  1  0  0  0
 15 16  2  0  0  0
 16 17  1  0  0  0
 17 18  1  0  0  0
 18 19  1  0  0  0
 19 20  2  0  0  0
 19 21  1  0  0  0
 21 22  2  0  0  0
 22 23  1  0  0  0
 23 24  2  0  0  0
 24 25  1  0  0  0
 25 26  2  0  0  0
 26 27  1  0  0  0
 27 28  2  0  0  0
 28 29  1  0  0  0
 29 30  1  0  0  0
 30 31  2  0  0  0
  6  2  1  0  0  0
 31  8  1  0  0  0
 29  2  1  0  0  0
 14  9  1  0  0  0
 31 15  1  0  0  0
 21 16  1  0  0  0
 30 22  1  0  0  0
 28 23  1  0  0  0
  7 32  1  0  0  0
 35 36  1  0  0  0
 18 33  1  0  0  0
M  END
> <minimizedAffinity>
-5.21160

> <CNNscore>
0.2890931368

> <CNNaffinity>
6.3917303085

> <CNN_VS>
1.8478053808

> <CNNaffinity_variance>
0.1891566366

$$$$
[H]c1c([H])c(Cl)c(-c2c([H])c3c([H])nc(N([H])c4c([H])c([H])c(N5C([H])([H])C([H])([H])N(C([H])([H])[H])C([H])([H])C5([H])[H])c([H])c4[H])nc3n(C([H])([H])[H])c2=O)c(Cl)c1[H]


 35 39  0  0  0  0  0  0  0  0999 V2000
   39.4120   16.3454   -8.6820 C   0  0  0  0  0  0  0  0  0  0  0  0
   39.0564   16.5964   -9.9852 N   0  0  0  0  0  0  0  0  0  0  0  0
   39.9160   16.5439  -11.0020 C   0  0  0  0  0  0  0  0  0  0  0  0
   41.2259   16.2303  -10.7949 C   0  0  0  0  0  0  0  0  0  0  0  0
   42.1504   16.1673  -11.8349 C   0  0  0  0  0  0  0  0  0  0  0  0
   43.4665   15.8470  -11.5842 C   0  0  0  0  0  0  0  0  0  0  0  0
   43.7986   15.5998  -10.2720 C   0  0  0  0  0  0  0  0  0  0  0  0
   44.9974   15.3048  -10.0200 O   0  0  0  0  0  0  0  0  0  0  0  0
   42.9036   15.6615   -9.2709 N   0  0  0  0  0  0  0  0  0  0  0  0
   43.2856   15.3933   -7.8856 C   0  0  0  0  0  0  0  0  0  0  0  0
   41.6104   15.9732   -9.4941 C   0  0  0  0  0  0  0  0  0  0  0  0
   40.7019   16.0423   -8.5221 N   0  0  0  0  0  0  0  0  0  0  0  0
   44.4216   15.7857  -12.6833 C   0  0  0  0  0  0  0  0  0  0  0  0
   45.2002   16.8846  -12.9791 C   0  0  0  0  0  0  0  0  0  0  0  0
   45.0755   18.3719  -12.0632 Cl  0  0  0  0  0  0  0  0  0  0  0  0
   46.1176   16.8541  -14.0201 C   0  0  0  0  0  0  0  0  0  0  0  0
   46.2799   15.7111  -14.7986 C   0  0  0  0  0  0  0  0  0  0  0  0
   45.4984   14.6088  -14.5012 C   0  0  0  0  0  0  0  0  0  0  0  0
   44.5975   14.6691  -13.4631 C   0  0  0  0  0  0  0  0  0  0  0  0
   43.6324   13.2504  -13.1257 Cl  0  0  0  0  0  0  0  0  0  0  0  0
   38.4388   16.4361   -7.6621 N   0  0  0  0  0  0  0  0  0  0  0  0
   38.4942   15.6555   -6.9327 H   0  0  0  0  0  0  0  0  0  0  0  0
   35.5680   19.5236   -7.1530 C   0  0  0  0  0  0  0  0  0  0  0  0
   36.9258   19.7415   -7.0976 C   0  0  0  0  0  0  0  0  0  0  0  0
   37.8451   18.7306   -7.2603 C   0  0  0  0  0  0  0  0  0  0  0  0
   37.4377   17.4069   -7.4947 C   0  0  0  0  0  0  0  0  0  0  0  0
   36.0828   17.2098   -7.5470 C   0  0  0  0  0  0  0  0  0  0  0  0
   35.1480   18.2440   -7.3802 C   0  0  0  0  0  0  0  0  0  0  0  0
   32.1121   23.1699   -5.6253 C   0  0  0  0  0  0  0  0  0  0  0  0
   32.5608   22.5728   -6.8827 N   0  0  0  0  0  0  0  0  0  0  0  0
   32.3118   21.1492   -6.7676 C   0  0  0  0  0  0  0  0  0  0  0  0
   33.4902   20.4996   -6.0706 C   0  0  0  0  0  0  0  0  0  0  0  0
   34.6125   20.5454   -6.9838 N   0  0  0  0  0  0  0  0  0  0  0  0
   34.7096   21.7846   -7.7663 C   0  0  0  0  0  0  0  0  0  0  0  0
   33.9636   22.8701   -7.0216 C   0  0  0  0  0  0  0  0  0  0  0  0
 29 30  1  0  0  0
 30 31  1  0  0  0
 31 32  1  0  0  0
 32 33  1  0  0  0
 33 34  1  0  0  0
 34 35  1  0  0  0
 33 23  1  0  0  0
 23 24  2  0  0  0
 24 25  1  0  0  0
 25 26  2  0  0  0
 26 21  1  0  0  0
 21  1  1  0  0  0
  1  2  2  0  0  0
  2  3  1  0  0  0
  3  4  2  0  0  0
  4  5  1  0  0  0
  5  6  2  0  0  0
  6 13  1  0  0  0
 13 14  2  0  0  0
 14 15  1  0  0  0
 14 16  1  0  0  0
 16 17  2  0  0  0
 17 18  1  0  0  0
 18 19  2  0  0  0
 19 20  1  0  0  0
  6  7  1  0  0  0
  7  8  2  0  0  0
  7  9  1  0  0  0
  9 10  1  0  0  0
  9 11  1  0  0  0
 11 12  2  0  0  0
 26 27  1  0  0  0
 27 28  2  0  0  0
 35 30  1  0  0  0
 28 23  1  0  0  0
 12  1  1  0  0  0
 11  4  1  0  0  0
 19 13  1  0  0  0
 21 22  1  0  0  0
M  END
> <minimizedAffinity>
-6.48145

> <CNNscore>
0.1251360178

> <CNNaffinity>
5.7608809471

> <CNN_VS>
0.7208936810

> <CNNaffinity_variance>
0.5443764329

$$$$
[H]c1c([H])c(Cl)c(-c2c([H])c3c([H])nc(N([H])c4c([H])c([H])c(N5C([H])([H])C([H])([H])N(C([H])([H])[H])C([H])([H])C5([H])[H])c([H])c4[H])nc3n(C([H])([H])[H])c2=O)c(Cl)c1[H]


 35 39  0  0  0  0  0  0  0  0999 V2000
   43.7275   13.0346  -15.9218 C   0  0  0  0  0  0  0  0  0  0  0  0
   45.0647   12.7881  -16.1188 N   0  0  0  0  0  0  0  0  0  0  0  0
   46.0215   13.2573  -15.3187 C   0  0  0  0  0  0  0  0  0  0  0  0
   45.7136   14.0255  -14.2361 C   0  0  0  0  0  0  0  0  0  0  0  0
   46.6888   14.5321  -13.3803 C   0  0  0  0  0  0  0  0  0  0  0  0
   46.3367   15.3055  -12.2962 C   0  0  0  0  0  0  0  0  0  0  0  0
   44.9922   15.5385  -12.1194 C   0  0  0  0  0  0  0  0  0  0  0  0
   44.6476   16.2436  -11.1337 O   0  0  0  0  0  0  0  0  0  0  0  0
   44.0537   15.0478  -12.9475 N   0  0  0  0  0  0  0  0  0  0  0  0
   42.6318   15.3118  -12.7343 C   0  0  0  0  0  0  0  0  0  0  0  0
   44.3765   14.2886  -14.0146 C   0  0  0  0  0  0  0  0  0  0  0  0
   43.4685   13.7896  -14.8521 N   0  0  0  0  0  0  0  0  0  0  0  0
   47.3691   15.8285  -11.4104 C   0  0  0  0  0  0  0  0  0  0  0  0
   47.9317   17.0617  -11.6636 C   0  0  0  0  0  0  0  0  0  0  0  0
   47.4378   18.0324  -13.0349 Cl  0  0  0  0  0  0  0  0  0  0  0  0
   48.9166   17.5839  -10.8369 C   0  0  0  0  0  0  0  0  0  0  0  0
   49.3672   16.8773   -9.7249 C   0  0  0  0  0  0  0  0  0  0  0  0
   48.8024   15.6400   -9.4714 C   0  0  0  0  0  0  0  0  0  0  0  0
   47.8279   15.1485  -10.3090 C   0  0  0  0  0  0  0  0  0  0  0  0
   47.1441   13.5802   -9.9472 Cl  0  0  0  0  0  0  0  0  0  0  0  0
   42.7791   12.5087  -16.8270 N   0  0  0  0  0  0  0  0  0  0  0  0
   43.1982   12.1601  -17.7475 H   0  0  0  0  0  0  0  0  0  0  0  0
   38.5770   11.9959  -16.4917 C   0  0  0  0  0  0  0  0  0  0  0  0
   39.3302   11.4098  -17.4833 C   0  0  0  0  0  0  0  0  0  0  0  0
   40.6911   11.5879  -17.5825 C   0  0  0  0  0  0  0  0  0  0  0  0
   41.3894   12.3882  -16.6633 C   0  0  0  0  0  0  0  0  0  0  0  0
   40.6231   12.9626  -15.6835 C   0  0  0  0  0  0  0  0  0  0  0  0
   39.2346   12.7785  -15.5858 C   0  0  0  0  0  0  0  0  0  0  0  0
   33.5771   10.4820  -15.9613 C   0  0  0  0  0  0  0  0  0  0  0  0
   34.3000   11.7084  -16.2963 N   0  0  0  0  0  0  0  0  0  0  0  0
   35.0998   11.4015  -17.4660 C   0  0  0  0  0  0  0  0  0  0  0  0
   36.4093   10.7850  -17.0171 C   0  0  0  0  0  0  0  0  0  0  0  0
   37.1825   11.8286  -16.3777 N   0  0  0  0  0  0  0  0  0  0  0  0
   36.3921   12.7536  -15.5549 C   0  0  0  0  0  0  0  0  0  0  0  0
   35.1120   12.0519  -15.1570 C   0  0  0  0  0  0  0  0  0  0  0  0
 29 30  1  0  0  0
 30 31  1  0  0  0
 31 32  1  0  0  0
 32 33  1  0  0  0
 33 34  1  0  0  0
 34 35  1  0  0  0
 33 23  1  0  0  0
 23 24  2  0  0  0
 24 25  1  0  0  0
 25 26  2  0  0  0
 26 21  1  0  0  0
 21  1  1  0  0  0
  1  2  2  0  0  0
  2  3  1  0  0  0
  3  4  2  0  0  0
  4  5  1  0  0  0
  5  6  2  0  0  0
  6 13  1  0  0  0
 13 14  2  0  0  0
 14 15  1  0  0  0
 14 16  1  0  0  0
 16 17  2  0  0  0
 17 18  1  0  0  0
 18 19  2  0  0  0
 19 20  1  0  0  0
  6  7  1  0  0  0
  7  8  2  0  0  0
  7  9  1  0  0  0
  9 10  1  0  0  0
  9 11  1  0  0  0
 11 12  2  0  0  0
 26 27  1  0  0  0
 27 28  2  0  0  0
 35 30  1  0  0  0
 28 23  1  0  0  0
 12  1  1  0  0  0
 11  4  1  0  0  0
 19 13  1  0  0  0
 21 22  1  0  0  0
M  END
> <minimizedAffinity>
-7.73993

> <CNNscore>
0.0759486482

> <CNNaffinity>
6.3051695824

> <CNN_VS>
0.4788691103

> <CNNaffinity_variance>
0.0994927734

$$$$
[H]c1c([H])c(Cl)c(-c2c([H])c3c([H])nc(N([H])c4c([H])c([H])c(N5C([H])([H])C([H])([H])N(C([H])([H])[H])C([H])([H])C5([H])[H])c([H])c4[H])nc3n(C([H])([H])[H])c2=O)c(Cl)c1[H]


 35 39  0  0  0  0  0  0  0  0999 V2000
   39.1857   16.0373  -11.0017 C   0  0  0  0  0  0  0  0  0  0  0  0
   39.2581   15.7462  -12.3425 N   0  0  0  0  0  0  0  0  0  0  0  0
   40.4071   15.5526  -12.9889 C   0  0  0  0  0  0  0  0  0  0  0  0
   41.5999   15.6358  -12.3352 C   0  0  0  0  0  0  0  0  0  0  0  0
   42.8186   15.4398  -12.9806 C   0  0  0  0  0  0  0  0  0  0  0  0
   44.0034   15.5329  -12.2843 C   0  0  0  0  0  0  0  0  0  0  0  0
   43.9056   15.8251  -10.9432 C   0  0  0  0  0  0  0  0  0  0  0  0
   44.9774   15.9149  -10.2868 O   0  0  0  0  0  0  0  0  0  0  0  0
   42.7277   16.0137  -10.3236 N   0  0  0  0  0  0  0  0  0  0  0  0
   42.6547   16.3227   -8.8967 C   0  0  0  0  0  0  0  0  0  0  0  0
   41.5561   15.9272  -10.9864 C   0  0  0  0  0  0  0  0  0  0  0  0
   40.3743   16.1096  -10.3990 N   0  0  0  0  0  0  0  0  0  0  0  0
   45.2703   15.3255  -12.9742 C   0  0  0  0  0  0  0  0  0  0  0  0
   45.8960   16.3856  -13.5954 C   0  0  0  0  0  0  0  0  0  0  0  0
   45.2069   17.9953  -13.5812 Cl  0  0  0  0  0  0  0  0  0  0  0  0
   47.1029   16.2166  -14.2597 C   0  0  0  0  0  0  0  0  0  0  0  0
   47.7193   14.9694  -14.3192 C   0  0  0  0  0  0  0  0  0  0  0  0
   47.0909   13.9061  -13.6957 C   0  0  0  0  0  0  0  0  0  0  0  0
   45.8951   14.1046  -13.0449 C   0  0  0  0  0  0  0  0  0  0  0  0
   45.1393   12.7300  -12.2719 Cl  0  0  0  0  0  0  0  0  0  0  0  0
   37.9250   16.2408  -10.3977 N   0  0  0  0  0  0  0  0  0  0  0  0
   37.2228   15.4530  -10.5729 H   0  0  0  0  0  0  0  0  0  0  0  0
   36.4947   19.3802   -7.9214 C   0  0  0  0  0  0  0  0  0  0  0  0
   35.9280   18.1263   -7.9502 C   0  0  0  0  0  0  0  0  0  0  0  0
   36.3994   17.1192   -8.7608 C   0  0  0  0  0  0  0  0  0  0  0  0
   37.4984   17.3236   -9.6115 C   0  0  0  0  0  0  0  0  0  0  0  0
   38.0492   18.5774   -9.5686 C   0  0  0  0  0  0  0  0  0  0  0  0
   37.5651   19.6024   -8.7401 C   0  0  0  0  0  0  0  0  0  0  0  0
   33.9056   23.0347   -5.1804 C   0  0  0  0  0  0  0  0  0  0  0  0
   35.2980   22.6796   -5.4526 N   0  0  0  0  0  0  0  0  0  0  0  0
   35.4571   22.7355   -6.8925 C   0  0  0  0  0  0  0  0  0  0  0  0
   35.0314   21.4074   -7.4853 C   0  0  0  0  0  0  0  0  0  0  0  0
   36.0225   20.4244   -7.1016 N   0  0  0  0  0  0  0  0  0  0  0  0
   36.5359   20.5802   -5.7343 C   0  0  0  0  0  0  0  0  0  0  0  0
   35.5112   21.3530   -4.9329 C   0  0  0  0  0  0  0  0  0  0  0  0
 29 30  1  0  0  0
 30 31  1  0  0  0
 31 32  1  0  0  0
 32 33  1  0  0  0
 33 34  1  0  0  0
 34 35  1  0  0  0
 33 23  1  0  0  0
 23 24  2  0  0  0
 24 25  1  0  0  0
 25 26  2  0  0  0
 26 21  1  0  0  0
 21  1  1  0  0  0
  1  2  2  0  0  0
  2  3  1  0  0  0
  3  4  2  0  0  0
  4  5  1  0  0  0
  5  6  2  0  0  0
  6 13  1  0  0  0
 13 14  2  0  0  0
 14 15  1  0  0  0
 14 16  1  0  0  0
 16 17  2  0  0  0
 17 18  1  0  0  0
 18 19  2  0  0  0
 19 20  1  0  0  0
  6  7  1  0  0  0
  7  8  2  0  0  0
  7  9  1  0  0  0
  9 10  1  0  0  0
  9 11  1  0  0  0
 11 12  2  0  0  0
 26 27  1  0  0  0
 27 28  2  0  0  0
 35 30  1  0  0  0
 28 23  1  0  0  0
 12  1  1  0  0  0
 11  4  1  0  0  0
 19 13  1  0  0  0
 21 22  1  0  0  0
M  END
> <minimizedAffinity>
-6.83016

> <CNNscore>
0.0664067566

> <CNNaffinity>
5.5717797279

> <CNN_VS>
0.3700038195

> <CNNaffinity_variance>
0.2738791108

$$$$
[H]c1c([H])c(Cl)c(-c2c([H])c3c([H])nc(N([H])c4c([H])c([H])c(N5C([H])([H])C([H])([H])N(C([H])([H])[H])C([H])([H])C5([H])[H])c([H])c4[H])nc3n(C([H])([H])[H])c2=O)c(Cl)c1[H]


 35 39  0  0  0  0  0  0  0  0999 V2000
   43.8316   13.1875  -15.4045 C   0  0  0  0  0  0  0  0  0  0  0  0
   45.0732   12.6223  -15.5677 N   0  0  0  0  0  0  0  0  0  0  0  0
   46.0039   12.6110  -14.6141 C   0  0  0  0  0  0  0  0  0  0  0  0
   45.7644   13.1744  -13.3965 C   0  0  0  0  0  0  0  0  0  0  0  0
   46.7150   13.1804  -12.3784 C   0  0  0  0  0  0  0  0  0  0  0  0
   46.4344   13.7608  -11.1611 C   0  0  0  0  0  0  0  0  0  0  0  0
   45.1850   14.3199  -11.0214 C   0  0  0  0  0  0  0  0  0  0  0  0
   44.9070   14.8564   -9.9156 O   0  0  0  0  0  0  0  0  0  0  0  0
   44.2701   14.3123  -12.0062 N   0  0  0  0  0  0  0  0  0  0  0  0
   42.9498   14.9142  -11.8287 C   0  0  0  0  0  0  0  0  0  0  0  0
   44.5240   13.7496  -13.2055 C   0  0  0  0  0  0  0  0  0  0  0  0
   43.6373   13.7276  -14.1996 N   0  0  0  0  0  0  0  0  0  0  0  0
   47.4399   13.7593  -10.1062 C   0  0  0  0  0  0  0  0  0  0  0  0
   47.5027   12.7062   -9.2183 C   0  0  0  0  0  0  0  0  0  0  0  0
   46.3971   11.3520   -9.3199 Cl  0  0  0  0  0  0  0  0  0  0  0  0
   48.4498   12.6788   -8.2042 C   0  0  0  0  0  0  0  0  0  0  0  0
   49.3668   13.7156   -8.0523 C   0  0  0  0  0  0  0  0  0  0  0  0
   49.3033   14.7720   -8.9435 C   0  0  0  0  0  0  0  0  0  0  0  0
   48.3533   14.7711   -9.9386 C   0  0  0  0  0  0  0  0  0  0  0  0
   48.3126   16.1282  -11.0407 Cl  0  0  0  0  0  0  0  0  0  0  0  0
   42.9083   13.1669  -16.4735 N   0  0  0  0  0  0  0  0  0  0  0  0
   43.3368   13.3931  -17.4272 H   0  0  0  0  0  0  0  0  0  0  0  0
   38.7799   12.1731  -16.5103 C   0  0  0  0  0  0  0  0  0  0  0  0
   39.6813   11.6792  -17.4256 C   0  0  0  0  0  0  0  0  0  0  0  0
   41.0161   12.0131  -17.4044 C   0  0  0  0  0  0  0  0  0  0  0  0
   41.5326   12.8868  -16.4334 C   0  0  0  0  0  0  0  0  0  0  0  0
   40.6206   13.3675  -15.5310 C   0  0  0  0  0  0  0  0  0  0  0  0
   39.2593   13.0246  -15.5561 C   0  0  0  0  0  0  0  0  0  0  0  0
   33.9613   10.0870  -16.4665 C   0  0  0  0  0  0  0  0  0  0  0  0
   34.5619   11.4028  -16.6825 N   0  0  0  0  0  0  0  0  0  0  0  0
   35.4791   11.2525  -17.7953 C   0  0  0  0  0  0  0  0  0  0  0  0
   36.8125   10.7608  -17.2693 C   0  0  0  0  0  0  0  0  0  0  0  0
   37.4092   11.8460  -16.5198 N   0  0  0  0  0  0  0  0  0  0  0  0
   36.4570   12.6301  -15.7225 C   0  0  0  0  0  0  0  0  0  0  0  0
   35.2393   11.7696  -15.4651 C   0  0  0  0  0  0  0  0  0  0  0  0
 29 30  1  0  0  0
 30 31  1  0  0  0
 31 32  1  0  0  0
 32 33  1  0  0  0
 33 34  1  0  0  0
 34 35  1  0  0  0
 33 23  1  0  0  0
 23 24  2  0  0  0
 24 25  1  0  0  0
 25 26  2  0  0  0
 26 21  1  0  0  0
 21  1  1  0  0  0
  1  2  2  0  0  0
  2  3  1  0  0  0
  3  4  2  0  0  0
  4  5  1  0  0  0
  5  6  2  0  0  0
  6 13  1  0  0  0
 13 14  2  0  0  0
 14 15  1  0  0  0
 14 16  1  0  0  0
 16 17  2  0  0  0
 17 18  1  0  0  0
 18 19  2  0  0  0
 19 20  1  0  0  0
  6  7  1  0  0  0
  7  8  2  0  0  0
  7  9  1  0  0  0
  9 10  1  0  0  0
  9 11  1  0  0  0
 11 12  2  0  0  0
 26 27  1  0  0  0
 27 28  2  0  0  0
 35 30  1  0  0  0
 28 23  1  0  0  0
 12  1  1  0  0  0
 11  4  1  0  0  0
 19 13  1  0  0  0
 21 22  1  0  0  0
M  END
> <minimizedAffinity>
-7.47799

> <CNNscore>
0.0649790093

> <CNNaffinity>
6.3165669441

> <CNN_VS>
0.4104442596

> <CNNaffinity_variance>
0.1316806227

$$$$
[H]c1c([H])c(Cl)c(-c2c([H])c3c([H])nc(N([H])c4c([H])c([H])c(N5C([H])([H])C([H])([H])N(C([H])([H])[H])C([H])([H])C5([H])[H])c([H])c4[H])nc3n(C([H])([H])[H])c2=O)c(Cl)c1[H]


 35 39  0  0  0  0  0  0  0  0999 V2000
   40.1730   14.9398   -7.3007 C   0  0  0  0  0  0  0  0  0  0  0  0
   41.3895   14.3350   -7.0955 N   0  0  0  0  0  0  0  0  0  0  0  0
   42.3678   14.3321   -8.0002 C   0  0  0  0  0  0  0  0  0  0  0  0
   42.2067   14.9453   -9.2065 C   0  0  0  0  0  0  0  0  0  0  0  0
   43.2083   14.9604  -10.1744 C   0  0  0  0  0  0  0  0  0  0  0  0
   43.0062   15.5910  -11.3822 C   0  0  0  0  0  0  0  0  0  0  0  0
   41.7807   16.1895  -11.5645 C   0  0  0  0  0  0  0  0  0  0  0  0
   41.5744   16.7723  -12.6624 O   0  0  0  0  0  0  0  0  0  0  0  0
   40.8164   16.1728  -10.6281 N   0  0  0  0  0  0  0  0  0  0  0  0
   39.5235   16.8180  -10.8499 C   0  0  0  0  0  0  0  0  0  0  0  0
   40.9932   15.5613   -9.4390 C   0  0  0  0  0  0  0  0  0  0  0  0
   40.0558   15.5283   -8.4928 N   0  0  0  0  0  0  0  0  0  0  0  0
   44.0640   15.5976  -12.3847 C   0  0  0  0  0  0  0  0  0  0  0  0
   44.0618   14.6562  -13.3922 C   0  0  0  0  0  0  0  0  0  0  0  0
   42.8107   13.4362  -13.5065 Cl  0  0  0  0  0  0  0  0  0  0  0  0
   45.0567   14.6390  -14.3597 C   0  0  0  0  0  0  0  0  0  0  0  0
   46.0889   15.5735  -14.3424 C   0  0  0  0  0  0  0  0  0  0  0  0
   46.0906   16.5178  -13.3312 C   0  0  0  0  0  0  0  0  0  0  0  0
   45.0908   16.5096  -12.3861 C   0  0  0  0  0  0  0  0  0  0  0  0
   45.1359   17.7231  -11.1278 Cl  0  0  0  0  0  0  0  0  0  0  0  0
   39.1857   14.8838   -6.2920 N   0  0  0  0  0  0  0  0  0  0  0  0
   39.5762   14.8799   -5.2960 H   0  0  0  0  0  0  0  0  0  0  0  0
   34.9475   14.8767   -6.5596 C   0  0  0  0  0  0  0  0  0  0  0  0
   35.6346   15.4406   -5.5088 C   0  0  0  0  0  0  0  0  0  0  0  0
   37.0085   15.4321   -5.4329 C   0  0  0  0  0  0  0  0  0  0  0  0
   37.7895   14.8391   -6.4386 C   0  0  0  0  0  0  0  0  0  0  0  0
   37.0881   14.2837   -7.4763 C   0  0  0  0  0  0  0  0  0  0  0  0
   35.6860   14.2942   -7.5499 C   0  0  0  0  0  0  0  0  0  0  0  0
   29.8474   14.7702   -7.8045 C   0  0  0  0  0  0  0  0  0  0  0  0
   30.6587   15.0078   -6.6111 N   0  0  0  0  0  0  0  0  0  0  0  0
   31.5270   16.1252   -6.9265 C   0  0  0  0  0  0  0  0  0  0  0  0
   32.7636   15.6027   -7.6294 C   0  0  0  0  0  0  0  0  0  0  0  0
   33.5414   14.8718   -6.6514 N   0  0  0  0  0  0  0  0  0  0  0  0
   32.7421   14.0778   -5.7091 C   0  0  0  0  0  0  0  0  0  0  0  0
   31.3996   13.8003   -6.3494 C   0  0  0  0  0  0  0  0  0  0  0  0
 29 30  1  0  0  0
 30 31  1  0  0  0
 31 32  1  0  0  0
 32 33  1  0  0  0
 33 34  1  0  0  0
 34 35  1  0  0  0
 33 23  1  0  0  0
 23 24  2  0  0  0
 24 25  1  0  0  0
 25 26  2  0  0  0
 26 21  1  0  0  0
 21  1  1  0  0  0
  1  2  2  0  0  0
  2  3  1  0  0  0
  3  4  2  0  0  0
  4  5  1  0  0  0
  5  6  2  0  0  0
  6 13  1  0  0  0
 13 14  2  0  0  0
 14 15  1  0  0  0
 14 16  1  0  0  0
 16 17  2  0  0  0
 17 18  1  0  0  0
 18 19  2  0  0  0
 19 20  1  0  0  0
  6  7  1  0  0  0
  7  8  2  0  0  0
  7  9  1  0  0  0
  9 10  1  0  0  0
  9 11  1  0  0  0
 11 12  2  0  0  0
 26 27  1  0  0  0
 27 28  2  0  0  0
 35 30  1  0  0  0
 28 23  1  0  0  0
 12  1  1  0  0  0
 11  4  1  0  0  0
 19 13  1  0  0  0
 21 22  1  0  0  0
M  END
> <minimizedAffinity>
-6.66532

> <CNNscore>
0.0567642003

> <CNNaffinity>
5.4634566307

> <CNN_VS>
0.3101287484

> <CNNaffinity_variance>
0.1828070283

$$$$
[H]c1c([H])c(Cl)c(-c2c([H])c3c([H])nc(N([H])c4c([H])c([H])c(N5C([H])([H])C([H])([H])N(C([H])([H])[H])C([H])([H])C5([H])[H])c([H])c4[H])nc3n(C([H])([H])[H])c2=O)c(Cl)c1[H]


 35 39  0  0  0  0  0  0  0  0999 V2000
   39.2827   16.6316  -10.1755 C   0  0  0  0  0  0  0  0  0  0  0  0
   39.4343   15.9769   -8.9771 N   0  0  0  0  0  0  0  0  0  0  0  0
   40.5733   15.3989   -8.5972 C   0  0  0  0  0  0  0  0  0  0  0  0
   41.6744   15.4291   -9.3996 C   0  0  0  0  0  0  0  0  0  0  0  0
   42.8797   14.8348   -9.0334 C   0  0  0  0  0  0  0  0  0  0  0  0
   43.9704   14.8867   -9.8731 C   0  0  0  0  0  0  0  0  0  0  0  0
   43.7945   15.5477  -11.0671 C   0  0  0  0  0  0  0  0  0  0  0  0
   44.7795   15.6074  -11.8506 O   0  0  0  0  0  0  0  0  0  0  0  0
   42.6297   16.1201  -11.4172 N   0  0  0  0  0  0  0  0  0  0  0  0
   42.4724   16.8163  -12.6929 C   0  0  0  0  0  0  0  0  0  0  0  0
   41.5496   16.0809  -10.6102 C   0  0  0  0  0  0  0  0  0  0  0  0
   40.3829   16.6385  -10.9309 N   0  0  0  0  0  0  0  0  0  0  0  0
   45.2244   14.2596   -9.4756 C   0  0  0  0  0  0  0  0  0  0  0  0
   46.1040   14.9389   -8.6595 C   0  0  0  0  0  0  0  0  0  0  0  0
   45.7569   16.5538   -8.0779 Cl  0  0  0  0  0  0  0  0  0  0  0  0
   47.3051   14.3659   -8.2655 C   0  0  0  0  0  0  0  0  0  0  0  0
   47.6589   13.0855   -8.6831 C   0  0  0  0  0  0  0  0  0  0  0  0
   46.7759   12.4044   -9.5019 C   0  0  0  0  0  0  0  0  0  0  0  0
   45.5926   12.9985   -9.8758 C   0  0  0  0  0  0  0  0  0  0  0  0
   44.5091   12.0979  -10.9116 Cl  0  0  0  0  0  0  0  0  0  0  0  0
   38.0349   17.2056  -10.5052 N   0  0  0  0  0  0  0  0  0  0  0  0
   38.0879   17.9720  -11.2497 H   0  0  0  0  0  0  0  0  0  0  0  0
   34.1659   16.1369   -9.1188 C   0  0  0  0  0  0  0  0  0  0  0  0
   34.6452   15.7833  -10.3595 C   0  0  0  0  0  0  0  0  0  0  0  0
   35.9000   16.1400  -10.7976 C   0  0  0  0  0  0  0  0  0  0  0  0
   36.7666   16.8935   -9.9887 C   0  0  0  0  0  0  0  0  0  0  0  0
   36.2722   17.2355   -8.7575 C   0  0  0  0  0  0  0  0  0  0  0  0
   34.9912   16.8697   -8.3142 C   0  0  0  0  0  0  0  0  0  0  0  0
   29.2164   14.6035   -8.2679 C   0  0  0  0  0  0  0  0  0  0  0  0
   30.2896   15.2444   -7.5088 N   0  0  0  0  0  0  0  0  0  0  0  0
   30.6300   16.4551   -8.2301 C   0  0  0  0  0  0  0  0  0  0  0  0
   31.6354   16.1157   -9.3120 C   0  0  0  0  0  0  0  0  0  0  0  0
   32.8825   15.7847   -8.6556 N   0  0  0  0  0  0  0  0  0  0  0  0
   32.7305   15.0161   -7.4132 C   0  0  0  0  0  0  0  0  0  0  0  0
   31.3898   14.3159   -7.4550 C   0  0  0  0  0  0  0  0  0  0  0  0
 29 30  1  0  0  0
 30 31  1  0  0  0
 31 32  1  0  0  0
 32 33  1  0  0  0
 33 34  1  0  0  0
 34 35  1  0  0  0
 33 23  1  0  0  0
 23 24  2  0  0  0
 24 25  1  0  0  0
 25 26  2  0  0  0
 26 21  1  0  0  0
 21  1  1  0  0  0
  1  2  2  0  0  0
  2  3  1  0  0  0
  3  4  2  0  0  0
  4  5  1  0  0  0
  5  6  2  0  0  0
  6 13  1  0  0  0
 13 14  2  0  0  0
 14 15  1  0  0  0
 14 16  1  0  0  0
 16 17  2  0  0  0
 17 18  1  0  0  0
 18 19  2  0  0  0
 19 20  1  0  0  0
  6  7  1  0  0  0
  7  8  2  0  0  0
  7  9  1  0  0  0
  9 10  1  0  0  0
  9 11  1  0  0  0
 11 12  2  0  0  0
 26 27  1  0  0  0
 27 28  2  0  0  0
 35 30  1  0  0  0
 28 23  1  0  0  0
 12  1  1  0  0  0
 11  4  1  0  0  0
 19 13  1  0  0  0
 21 22  1  0  0  0
M  END
> <minimizedAffinity>
-6.48246

> <CNNscore>
0.0530898124

> <CNNaffinity>
5.7047514915

> <CNN_VS>
0.3028641939

> <CNNaffinity_variance>
0.4534744322

$$$$
[H]c1c([H])c(Cl)c(-c2c([H])c3c([H])nc(N([H])c4c([H])c([H])c(N5C([H])([H])C([H])([H])N(C([H])([H])[H])C([H])([H])C5([H])[H])c([H])c4[H])nc3n(C([H])([H])[H])c2=O)c(Cl)c1[H]


 35 39  0  0  0  0  0  0  0  0999 V2000
   39.0126   16.1576   -8.3268 C   0  0  0  0  0  0  0  0  0  0  0  0
   38.7544   16.7816   -9.5233 N   0  0  0  0  0  0  0  0  0  0  0  0
   39.6137   16.7971  -10.5417 C   0  0  0  0  0  0  0  0  0  0  0  0
   40.8239   16.1781  -10.4450 C   0  0  0  0  0  0  0  0  0  0  0  0
   41.7452   16.1757  -11.4897 C   0  0  0  0  0  0  0  0  0  0  0  0
   42.9587   15.5387  -11.3526 C   0  0  0  0  0  0  0  0  0  0  0  0
   43.1944   14.9209  -10.1459 C   0  0  0  0  0  0  0  0  0  0  0  0
   44.2985   14.3318   -9.9987 O   0  0  0  0  0  0  0  0  0  0  0  0
   42.3029   14.9253   -9.1398 N   0  0  0  0  0  0  0  0  0  0  0  0
   42.5810   14.2597   -7.8683 C   0  0  0  0  0  0  0  0  0  0  0  0
   41.1092   15.5428   -9.2529 C   0  0  0  0  0  0  0  0  0  0  0  0
   40.2068   15.5640   -8.2730 N   0  0  0  0  0  0  0  0  0  0  0  0
   43.9120   15.5456  -12.4549 C   0  0  0  0  0  0  0  0  0  0  0  0
   44.9142   16.4920  -12.4908 C   0  0  0  0  0  0  0  0  0  0  0  0
   45.0797   17.7024  -11.2361 Cl  0  0  0  0  0  0  0  0  0  0  0  0
   45.8354   16.5220  -13.5284 C   0  0  0  0  0  0  0  0  0  0  0  0
   45.7754   15.5958  -14.5665 C   0  0  0  0  0  0  0  0  0  0  0  0
   44.7695   14.6464  -14.5299 C   0  0  0  0  0  0  0  0  0  0  0  0
   43.8709   14.6419  -13.4882 C   0  0  0  0  0  0  0  0  0  0  0  0
   42.6175   13.4225  -13.4860 Cl  0  0  0  0  0  0  0  0  0  0  0  0
   38.0500   16.2012   -7.2938 N   0  0  0  0  0  0  0  0  0  0  0  0
   38.4462   16.4672   -6.3364 H   0  0  0  0  0  0  0  0  0  0  0  0
   33.9170   15.2389   -7.4547 C   0  0  0  0  0  0  0  0  0  0  0  0
   34.8894   14.3276   -7.1106 C   0  0  0  0  0  0  0  0  0  0  0  0
   36.2259   14.6522   -7.0665 C   0  0  0  0  0  0  0  0  0  0  0  0
   36.6708   15.9484   -7.3747 C   0  0  0  0  0  0  0  0  0  0  0  0
   35.6887   16.8414   -7.7142 C   0  0  0  0  0  0  0  0  0  0  0  0
   34.3260   16.5062   -7.7582 C   0  0  0  0  0  0  0  0  0  0  0  0
   28.9399   13.9861   -8.5643 C   0  0  0  0  0  0  0  0  0  0  0  0
   29.7046   14.4229   -7.3966 N   0  0  0  0  0  0  0  0  0  0  0  0
   30.2984   15.6965   -7.7536 C   0  0  0  0  0  0  0  0  0  0  0  0
   31.6042   15.4430   -8.4795 C   0  0  0  0  0  0  0  0  0  0  0  0
   32.5449   14.9231   -7.5097 N   0  0  0  0  0  0  0  0  0  0  0  0
   31.9608   13.9941   -6.5334 C   0  0  0  0  0  0  0  0  0  0  0  0
   30.6988   13.4140   -7.1337 C   0  0  0  0  0  0  0  0  0  0  0  0
 29 30  1  0  0  0
 30 31  1  0  0  0
 31 32  1  0  0  0
 32 33  1  0  0  0
 33 34  1  0  0  0
 34 35  1  0  0  0
 33 23  1  0  0  0
 23 24  2  0  0  0
 24 25  1  0  0  0
 25 26  2  0  0  0
 26 21  1  0  0  0
 21  1  1  0  0  0
  1  2  2  0  0  0
  2  3  1  0  0  0
  3  4  2  0  0  0
  4  5  1  0  0  0
  5  6  2  0  0  0
  6 13  1  0  0  0
 13 14  2  0  0  0
 14 15  1  0  0  0
 14 16  1  0  0  0
 16 17  2  0  0  0
 17 18  1  0  0  0
 18 19  2  0  0  0
 19 20  1  0  0  0
  6  7  1  0  0  0
  7  8  2  0  0  0
  7  9  1  0  0  0
  9 10  1  0  0  0
  9 11  1  0  0  0
 11 12  2  0  0  0
 26 27  1  0  0  0
 27 28  2  0  0  0
 35 30  1  0  0  0
 28 23  1  0  0  0
 12  1  1  0  0  0
 11  4  1  0  0  0
 19 13  1  0  0  0
 21 22  1  0  0  0
M  END
> <minimizedAffinity>
-7.03818

> <CNNscore>
0.0469221734

> <CNNaffinity>
5.5322036743

> <CNN_VS>
0.2595830262

> <CNNaffinity_variance>
0.3144960105

$$$$
[H]c1c([H])c(Cl)c(-c2c([H])c3c([H])nc(N([H])c4c([H])c([H])c(N5C([H])([H])C([H])([H])N(C([H])([H])[H])C([H])([H])C5([H])[H])c([H])c4[H])nc3n(C([H])([H])[H])c2=O)c(Cl)c1[H]


 35 39  0  0  0  0  0  0  0  0999 V2000
   39.0050   15.9492  -10.5631 C   0  0  0  0  0  0  0  0  0  0  0  0
   38.9975   15.8979  -11.9361 N   0  0  0  0  0  0  0  0  0  0  0  0
   40.1052   15.9274  -12.6762 C   0  0  0  0  0  0  0  0  0  0  0  0
   41.3339   16.0123  -12.0930 C   0  0  0  0  0  0  0  0  0  0  0  0
   42.5111   16.0459  -12.8369 C   0  0  0  0  0  0  0  0  0  0  0  0
   43.7343   16.1325  -12.2095 C   0  0  0  0  0  0  0  0  0  0  0  0
   43.7166   16.1824  -10.8346 C   0  0  0  0  0  0  0  0  0  0  0  0
   44.8247   16.2617  -10.2400 O   0  0  0  0  0  0  0  0  0  0  0  0
   42.5784   16.1498  -10.1199 N   0  0  0  0  0  0  0  0  0  0  0  0
   42.5905   16.2041   -8.6592 C   0  0  0  0  0  0  0  0  0  0  0  0
   41.3704   16.0652  -10.7139 C   0  0  0  0  0  0  0  0  0  0  0  0
   40.2265   16.0316  -10.0317 N   0  0  0  0  0  0  0  0  0  0  0  0
   44.9568   16.1671  -13.0021 C   0  0  0  0  0  0  0  0  0  0  0  0
   45.5966   14.9905  -13.3302 C   0  0  0  0  0  0  0  0  0  0  0  0
   44.9778   13.4347  -12.8173 Cl  0  0  0  0  0  0  0  0  0  0  0  0
   46.7622   14.9940  -14.0836 C   0  0  0  0  0  0  0  0  0  0  0  0
   47.3218   16.1877  -14.5318 C   0  0  0  0  0  0  0  0  0  0  0  0
   46.6794   17.3679  -14.2022 C   0  0  0  0  0  0  0  0  0  0  0  0
   45.5254   17.3326  -13.4540 C   0  0  0  0  0  0  0  0  0  0  0  0
   44.7498   18.8504  -13.0629 Cl  0  0  0  0  0  0  0  0  0  0  0  0
   37.7823   15.9259   -9.8561 N   0  0  0  0  0  0  0  0  0  0  0  0
   37.2551   14.9974   -9.9226 H   0  0  0  0  0  0  0  0  0  0  0  0
   36.1614   19.1542   -7.6236 C   0  0  0  0  0  0  0  0  0  0  0  0
   37.3401   19.2433   -8.3287 C   0  0  0  0  0  0  0  0  0  0  0  0
   37.8560   18.1875   -9.0448 C   0  0  0  0  0  0  0  0  0  0  0  0
   37.1958   16.9486   -9.0927 C   0  0  0  0  0  0  0  0  0  0  0  0
   36.0244   16.8794   -8.3855 C   0  0  0  0  0  0  0  0  0  0  0  0
   35.5014   17.9589   -7.6558 C   0  0  0  0  0  0  0  0  0  0  0  0
   34.9730   23.1717   -4.4583 C   0  0  0  0  0  0  0  0  0  0  0  0
   34.2708   22.2982   -5.3978 N   0  0  0  0  0  0  0  0  0  0  0  0
   34.4677   20.9444   -4.9181 C   0  0  0  0  0  0  0  0  0  0  0  0
   35.7834   20.4194   -5.4562 C   0  0  0  0  0  0  0  0  0  0  0  0
   35.6209   20.2230   -6.8813 N   0  0  0  0  0  0  0  0  0  0  0  0
   34.8204   21.2570   -7.5502 C   0  0  0  0  0  0  0  0  0  0  0  0
   34.8583   22.5058   -6.6968 C   0  0  0  0  0  0  0  0  0  0  0  0
 29 30  1  0  0  0
 30 31  1  0  0  0
 31 32  1  0  0  0
 32 33  1  0  0  0
 33 34  1  0  0  0
 34 35  1  0  0  0
 33 23  1  0  0  0
 23 24  2  0  0  0
 24 25  1  0  0  0
 25 26  2  0  0  0
 26 21  1  0  0  0
 21  1  1  0  0  0
  1  2  2  0  0  0
  2  3  1  0  0  0
  3  4  2  0  0  0
  4  5  1  0  0  0
  5  6  2  0  0  0
  6 13  1  0  0  0
 13 14  2  0  0  0
 14 15  1  0  0  0
 14 16  1  0  0  0
 16 17  2  0  0  0
 17 18  1  0  0  0
 18 19  2  0  0  0
 19 20  1  0  0  0
  6  7  1  0  0  0
  7  8  2  0  0  0
  7  9  1  0  0  0
  9 10  1  0  0  0
  9 11  1  0  0  0
 11 12  2  0  0  0
 26 27  1  0  0  0
 27 28  2  0  0  0
 35 30  1  0  0  0
 28 23  1  0  0  0
 12  1  1  0  0  0
 11  4  1  0  0  0
 19 13  1  0  0  0
 21 22  1  0  0  0
M  END
> <minimizedAffinity>
-6.71014

> <CNNscore>
0.0424701087

> <CNNaffinity>
5.4563894272

> <CNN_VS>
0.2317334563

> <CNNaffinity_variance>
0.1610130370

$$$$
[H]c1c([H])c(Cl)c(-c2c([H])c3c([H])nc(N([H])c4c([H])c([H])c(N5C([H])([H])C([H])([H])N(C([H])([H])[H])C([H])([H])C5([H])[H])c([H])c4[H])nc3n(C([H])([H])[H])c2=O)c(Cl)c1[H]


 35 39  0  0  0  0  0  0  0  0999 V2000
   39.9473   16.1058  -10.2990 C   0  0  0  0  0  0  0  0  0  0  0  0
   39.3990   15.9362   -9.0507 N   0  0  0  0  0  0  0  0  0  0  0  0
   40.1234   15.8863   -7.9333 C   0  0  0  0  0  0  0  0  0  0  0  0
   41.4804   16.0040   -7.9737 C   0  0  0  0  0  0  0  0  0  0  0  0
   42.2671   15.9556   -6.8252 C   0  0  0  0  0  0  0  0  0  0  0  0
   43.6366   16.0782   -6.9081 C   0  0  0  0  0  0  0  0  0  0  0  0
   44.1623   16.2472   -8.1684 C   0  0  0  0  0  0  0  0  0  0  0  0
   45.4133   16.3616   -8.2674 O   0  0  0  0  0  0  0  0  0  0  0  0
   43.4000   16.2935   -9.2746 N   0  0  0  0  0  0  0  0  0  0  0  0
   43.9869   16.4745  -10.6011 C   0  0  0  0  0  0  0  0  0  0  0  0
   42.0576   16.1755   -9.2161 C   0  0  0  0  0  0  0  0  0  0  0  0
   41.2773   16.2170  -10.2951 N   0  0  0  0  0  0  0  0  0  0  0  0
   44.4457   16.0250   -5.6971 C   0  0  0  0  0  0  0  0  0  0  0  0
   44.9096   14.8121   -5.2334 C   0  0  0  0  0  0  0  0  0  0  0  0
   44.5521   13.3132   -6.0652 Cl  0  0  0  0  0  0  0  0  0  0  0  0
   45.6819   14.7321   -4.0830 C   0  0  0  0  0  0  0  0  0  0  0  0
   46.0122   15.8761   -3.3611 C   0  0  0  0  0  0  0  0  0  0  0  0
   45.5464   17.0928   -3.8269 C   0  0  0  0  0  0  0  0  0  0  0  0
   44.7829   17.1404   -4.9704 C   0  0  0  0  0  0  0  0  0  0  0  0
   44.2175   18.7014   -5.5196 Cl  0  0  0  0  0  0  0  0  0  0  0  0
   39.1063   16.1342  -11.4337 N   0  0  0  0  0  0  0  0  0  0  0  0
   38.3778   16.9175  -11.4199 H   0  0  0  0  0  0  0  0  0  0  0  0
   39.3450   13.6175  -14.8458 C   0  0  0  0  0  0  0  0  0  0  0  0
   40.3381   14.5023  -14.4920 C   0  0  0  0  0  0  0  0  0  0  0  0
   40.2457   15.3151  -13.3855 C   0  0  0  0  0  0  0  0  0  0  0  0
   39.1171   15.2816  -12.5498 C   0  0  0  0  0  0  0  0  0  0  0  0
   38.1398   14.3947  -12.9177 C   0  0  0  0  0  0  0  0  0  0  0  0
   38.2378   13.5671  -14.0477 C   0  0  0  0  0  0  0  0  0  0  0  0
   38.8668   10.9389  -19.3368 C   0  0  0  0  0  0  0  0  0  0  0  0
   39.7043   10.8897  -18.1388 N   0  0  0  0  0  0  0  0  0  0  0  0
   38.8000   10.7230  -17.0180 C   0  0  0  0  0  0  0  0  0  0  0  0
   38.3031   12.0863  -16.5811 C   0  0  0  0  0  0  0  0  0  0  0  0
   39.4204   12.7814  -15.9775 N   0  0  0  0  0  0  0  0  0  0  0  0
   40.7085   12.5588  -16.6472 C   0  0  0  0  0  0  0  0  0  0  0  0
   40.4299   12.1326  -18.0720 C   0  0  0  0  0  0  0  0  0  0  0  0
 29 30  1  0  0  0
 30 31  1  0  0  0
 31 32  1  0  0  0
 32 33  1  0  0  0
 33 34  1  0  0  0
 34 35  1  0  0  0
 33 23  1  0  0  0
 23 24  2  0  0  0
 24 25  1  0  0  0
 25 26  2  0  0  0
 26 21  1  0  0  0
 21  1  1  0  0  0
  1  2  2  0  0  0
  2  3  1  0  0  0
  3  4  2  0  0  0
  4  5  1  0  0  0
  5  6  2  0  0  0
  6 13  1  0  0  0
 13 14  2  0  0  0
 14 15  1  0  0  0
 14 16  1  0  0  0
 16 17  2  0  0  0
 17 18  1  0  0  0
 18 19  2  0  0  0
 19 20  1  0  0  0
  6  7  1  0  0  0
  7  8  2  0  0  0
  7  9  1  0  0  0
  9 10  1  0  0  0
  9 11  1  0  0  0
 11 12  2  0  0  0
 26 27  1  0  0  0
 27 28  2  0  0  0
 35 30  1  0  0  0
 28 23  1  0  0  0
 12  1  1  0  0  0
 11  4  1  0  0  0
 19 13  1  0  0  0
 21 22  1  0  0  0
M  END
> <minimizedAffinity>
-6.80864

> <CNNscore>
0.0313928314

> <CNNaffinity>
5.7712869644

> <CNN_VS>
0.1811770350

> <CNNaffinity_variance>
0.2177835405

$$$$
[H]O[C@@]([H])(C([H])([H])N([H])C(=O)c1c(C([H])([H])[H])c(/C([H])=C2\C(=O)N([H])c3c([H])c([H])c(F)c([H])c32)n([H])c1C([H])([H])[H])C([H])([H])N1C([H])([H])C([H])([H])OC([H])([H])C1([H])[H]


 36 39  0  0  0  0  0  0  0  0999 V2000
   44.8658   12.1101  -17.5492 C   0  0  0  0  0  0  0  0  0  0  0  0
   43.7348   12.4763  -16.6564 C   0  0  0  0  0  0  0  0  0  0  0  0
   42.4261   12.1021  -16.8684 N   0  0  0  0  0  0  0  0  0  0  0  0
   41.6675   12.6083  -15.9195 C   0  0  0  0  0  0  0  0  0  0  0  0
   42.4792   13.3164  -15.0840 C   0  0  0  0  0  0  0  0  0  0  0  0
   42.0570   14.0697  -13.8606 C   0  0  0  0  0  0  0  0  0  0  0  0
   43.8313   13.2503  -15.5334 C   0  0  0  0  0  0  0  0  0  0  0  0
   42.1501   11.5062  -17.7007 H   0  0  0  0  0  0  0  0  0  0  0  0
   40.2440   12.4597  -15.7311 C   0  0  0  0  0  0  0  0  0  0  0  0
   39.4043   11.9176  -16.5918 C   0  0  0  0  0  0  0  0  0  0  0  0
   39.7285   11.3539  -17.8938 C   0  0  0  0  0  0  0  0  0  0  0  0
   40.8617   11.2472  -18.4442 O   0  0  0  0  0  0  0  0  0  0  0  0
   38.4764   10.9279  -18.4447 N   0  0  0  0  0  0  0  0  0  0  0  0
   37.4097   11.2021  -17.5461 C   0  0  0  0  0  0  0  0  0  0  0  0
   36.0308   10.9850  -17.6112 C   0  0  0  0  0  0  0  0  0  0  0  0
   35.2204   11.3622  -16.5655 C   0  0  0  0  0  0  0  0  0  0  0  0
   35.7297   11.9583  -15.4330 C   0  0  0  0  0  0  0  0  0  0  0  0
   34.9147   12.3277  -14.4020 F   0  0  0  0  0  0  0  0  0  0  0  0
   37.0919   12.1600  -15.3960 C   0  0  0  0  0  0  0  0  0  0  0  0
   37.9405   11.7969  -16.4234 C   0  0  0  0  0  0  0  0  0  0  0  0
   38.3899   10.4815  -19.3779 H   0  0  0  0  0  0  0  0  0  0  0  0
   44.9335   13.8667  -14.8393 C   0  0  0  0  0  0  0  0  0  0  0  0
   45.5718   13.1413  -14.0061 O   0  0  0  0  0  0  0  0  0  0  0  0
   45.3775   15.1738  -14.9860 N   0  0  0  0  0  0  0  0  0  0  0  0
   44.8421   15.7505  -15.7189 H   0  0  0  0  0  0  0  0  0  0  0  0
   46.4606   15.8044  -14.2945 C   0  0  0  0  0  0  0  0  0  0  0  0
   46.2242   16.7503  -13.2083 C   0  0  0  0  0  0  0  0  0  0  0  0
   46.5301   18.0829  -13.3822 O   0  0  0  0  0  0  0  0  0  0  0  0
   47.3447   18.2725  -12.8537 H   0  0  0  0  0  0  0  0  0  0  0  0
   46.3699   16.3438  -11.7921 C   0  0  0  0  0  0  0  0  0  0  0  0
   47.2152   17.1202  -10.9345 N   0  0  0  0  0  0  0  0  0  0  0  0
   46.4202   17.4091   -9.7326 C   0  0  0  0  0  0  0  0  0  0  0  0
   47.2101   18.1090   -8.6853 C   0  0  0  0  0  0  0  0  0  0  0  0
   48.5973   18.0221   -8.9290 O   0  0  0  0  0  0  0  0  0  0  0  0
   48.8292   16.6643   -9.1443 C   0  0  0  0  0  0  0  0  0  0  0  0
   48.3877   16.3571  -10.5721 C   0  0  0  0  0  0  0  0  0  0  0  0
  1  2  1  0  0  0
  2  3  1  0  0  0
  3  4  1  0  0  0
  4  9  1  0  0  0
  9 10  2  0  0  0
 10 11  1  0  0  0
 11 12  2  0  0  0
 11 13  1  0  0  0
 13 14  1  0  0  0
 14 15  2  0  0  0
 15 16  1  0  0  0
 16 17  2  0  0  0
 17 18  1  0  0  0
 17 19  1  0  0  0
 19 20  2  0  0  0
  4  5  2  0  0  0
  5  6  1  0  0  0
  5  7  1  0  0  0
  7 22  1  0  0  0
 22 23  2  0  0  0
 22 24  1  0  0  0
 24 26  1  0  0  0
 26 27  1  0  0  0
 27 28  1  0  0  0
 27 30  1  0  0  0
 30 31  1  0  0  0
 31 32  1  0  0  0
 32 33  1  0  0  0
 33 34  1  0  0  0
 34 35  1  0  0  0
 35 36  1  0  0  0
  7  2  2  0  0  0
 36 31  1  0  0  0
 20 10  1  0  0  0
 20 14  1  0  0  0
  3  8  1  0  0  0
 13 21  1  0  0  0
 24 25  1  0  0  0
 28 29  1  0  0  0
M  END
> <minimizedAffinity>
-8.32965

> <CNNscore>
0.8832298517

> <CNNaffinity>
6.7098212242

> <CNN_VS>
5.9263143539

> <CNNaffinity_variance>
0.2912890017

$$$$
[H]O[C@@]([H])(C([H])([H])N([H])C(=O)c1c(C([H])([H])[H])c(/C([H])=C2\C(=O)N([H])c3c([H])c([H])c(F)c([H])c32)n([H])c1C([H])([H])[H])C([H])([H])N1C([H])([H])C([H])([H])OC([H])([H])C1([H])[H]


 36 39  0  0  0  0  0  0  0  0999 V2000
   44.8087   12.0957  -17.5136 C   0  0  0  0  0  0  0  0  0  0  0  0
   43.6893   12.4885  -16.6174 C   0  0  0  0  0  0  0  0  0  0  0  0
   42.3746   12.1268  -16.8135 N   0  0  0  0  0  0  0  0  0  0  0  0
   41.6297   12.6561  -15.8663 C   0  0  0  0  0  0  0  0  0  0  0  0
   42.4564   13.3667  -15.0479 C   0  0  0  0  0  0  0  0  0  0  0  0
   42.0530   14.1431  -13.8326 C   0  0  0  0  0  0  0  0  0  0  0  0
   43.8040   13.2779  -15.5069 C   0  0  0  0  0  0  0  0  0  0  0  0
   42.0849   11.5220  -17.6346 H   0  0  0  0  0  0  0  0  0  0  0  0
   40.2061   12.5273  -15.6646 C   0  0  0  0  0  0  0  0  0  0  0  0
   39.3609   11.9355  -16.4862 C   0  0  0  0  0  0  0  0  0  0  0  0
   39.6778   11.2880  -17.7504 C   0  0  0  0  0  0  0  0  0  0  0  0
   40.8086   11.1404  -18.2963 O   0  0  0  0  0  0  0  0  0  0  0  0
   38.4219   10.8342  -18.2692 N   0  0  0  0  0  0  0  0  0  0  0  0
   37.3595   11.1709  -17.3867 C   0  0  0  0  0  0  0  0  0  0  0  0
   35.9793   10.9572  -17.4337 C   0  0  0  0  0  0  0  0  0  0  0  0
   35.1743   11.4048  -16.4119 C   0  0  0  0  0  0  0  0  0  0  0  0
   35.6904   12.0695  -15.3214 C   0  0  0  0  0  0  0  0  0  0  0  0
   34.8806   12.5084  -14.3137 F   0  0  0  0  0  0  0  0  0  0  0  0
   37.0536   12.2661  -15.3014 C   0  0  0  0  0  0  0  0  0  0  0  0
   37.8970   11.8336  -16.3061 C   0  0  0  0  0  0  0  0  0  0  0  0
   38.3300   10.3294  -19.1715 H   0  0  0  0  0  0  0  0  0  0  0  0
   44.9189   13.8914  -14.8307 C   0  0  0  0  0  0  0  0  0  0  0  0
   45.5417   13.1779  -13.9757 O   0  0  0  0  0  0  0  0  0  0  0  0
   45.3905   15.1838  -15.0162 N   0  0  0  0  0  0  0  0  0  0  0  0
   44.8674   15.7495  -15.7664 H   0  0  0  0  0  0  0  0  0  0  0  0
   46.4866   15.8117  -14.3431 C   0  0  0  0  0  0  0  0  0  0  0  0
   46.3054   17.0349  -13.5674 C   0  0  0  0  0  0  0  0  0  0  0  0
   47.2491   18.0369  -13.6389 O   0  0  0  0  0  0  0  0  0  0  0  0
   47.7543   18.0308  -12.7882 H   0  0  0  0  0  0  0  0  0  0  0  0
   45.6414   17.0126  -12.2443 C   0  0  0  0  0  0  0  0  0  0  0  0
   44.8542   15.8704  -11.8861 N   0  0  0  0  0  0  0  0  0  0  0  0
   45.6468   15.1232  -10.8993 C   0  0  0  0  0  0  0  0  0  0  0  0
   44.9035   13.9661  -10.3343 C   0  0  0  0  0  0  0  0  0  0  0  0
   43.5198   14.0528  -10.5973 O   0  0  0  0  0  0  0  0  0  0  0  0
   43.1667   15.3376  -10.1874 C   0  0  0  0  0  0  0  0  0  0  0  0
   43.6080   16.2950  -11.2903 C   0  0  0  0  0  0  0  0  0  0  0  0
  1  2  1  0  0  0
  2  3  1  0  0  0
  3  4  1  0  0  0
  4  9  1  0  0  0
  9 10  2  0  0  0
 10 11  1  0  0  0
 11 12  2  0  0  0
 11 13  1  0  0  0
 13 14  1  0  0  0
 14 15  2  0  0  0
 15 16  1  0  0  0
 16 17  2  0  0  0
 17 18  1  0  0  0
 17 19  1  0  0  0
 19 20  2  0  0  0
  4  5  2  0  0  0
  5  6  1  0  0  0
  5  7  1  0  0  0
  7 22  1  0  0  0
 22 23  2  0  0  0
 22 24  1  0  0  0
 24 26  1  0  0  0
 26 27  1  0  0  0
 27 28  1  0  0  0
 27 30  1  0  0  0
 30 31  1  0  0  0
 31 32  1  0  0  0
 32 33  1  0  0  0
 33 34  1  0  0  0
 34 35  1  0  0  0
 35 36  1  0  0  0
  7  2  2  0  0  0
 36 31  1  0  0  0
 20 10  1  0  0  0
 20 14  1  0  0  0
  3  8  1  0  0  0
 13 21  1  0  0  0
 24 25  1  0  0  0
 28 29  1  0  0  0
M  END
> <minimizedAffinity>
-8.83807

> <CNNscore>
0.8716324568

> <CNNaffinity>
6.9945268631

> <CNN_VS>
6.0966567993

> <CNNaffinity_variance>
0.1907142997

$$$$
[H]O[C@@]([H])(C([H])([H])N([H])C(=O)c1c(C([H])([H])[H])c(/C([H])=C2\C(=O)N([H])c3c([H])c([H])c(F)c([H])c32)n([H])c1C([H])([H])[H])C([H])([H])N1C([H])([H])C([H])([H])OC([H])([H])C1([H])[H]


 36 39  0  0  0  0  0  0  0  0999 V2000
   44.5745   12.0465  -17.5144 C   0  0  0  0  0  0  0  0  0  0  0  0
   43.4763   12.4582  -16.6009 C   0  0  0  0  0  0  0  0  0  0  0  0
   42.1472   12.1552  -16.7991 N   0  0  0  0  0  0  0  0  0  0  0  0
   41.4288   12.6867  -15.8329 C   0  0  0  0  0  0  0  0  0  0  0  0
   42.2874   13.3401  -14.9997 C   0  0  0  0  0  0  0  0  0  0  0  0
   41.9215   14.0971  -13.7606 C   0  0  0  0  0  0  0  0  0  0  0  0
   43.6280   13.2105  -15.4692 C   0  0  0  0  0  0  0  0  0  0  0  0
   41.8293   11.5860  -17.6352 H   0  0  0  0  0  0  0  0  0  0  0  0
   40.0021   12.6093  -15.6262 C   0  0  0  0  0  0  0  0  0  0  0  0
   39.1445   11.9690  -16.3971 C   0  0  0  0  0  0  0  0  0  0  0  0
   39.4483   11.2077  -17.5997 C   0  0  0  0  0  0  0  0  0  0  0  0
   40.5762   10.9870  -18.1264 O   0  0  0  0  0  0  0  0  0  0  0  0
   38.1828   10.7405  -18.0822 N   0  0  0  0  0  0  0  0  0  0  0  0
   37.1272   11.1769  -17.2361 C   0  0  0  0  0  0  0  0  0  0  0  0
   35.7424   10.9926  -17.2698 C   0  0  0  0  0  0  0  0  0  0  0  0
   34.9464   11.5453  -16.2934 C   0  0  0  0  0  0  0  0  0  0  0  0
   35.4762   12.2892  -15.2622 C   0  0  0  0  0  0  0  0  0  0  0  0
   34.6754   12.8322  -14.2991 F   0  0  0  0  0  0  0  0  0  0  0  0
   36.8437   12.4546  -15.2540 C   0  0  0  0  0  0  0  0  0  0  0  0
   37.6784   11.9174  -16.2144 C   0  0  0  0  0  0  0  0  0  0  0  0
   38.0806   10.1622  -18.9381 H   0  0  0  0  0  0  0  0  0  0  0  0
   44.7700   13.7594  -14.7827 C   0  0  0  0  0  0  0  0  0  0  0  0
   45.0119   14.9994  -14.9608 O   0  0  0  0  0  0  0  0  0  0  0  0
   45.6369   13.0766  -13.9406 N   0  0  0  0  0  0  0  0  0  0  0  0
   45.3885   12.0422  -13.7831 H   0  0  0  0  0  0  0  0  0  0  0  0
   46.7824   13.6037  -13.2631 C   0  0  0  0  0  0  0  0  0  0  0  0
   47.9563   12.7787  -12.9948 C   0  0  0  0  0  0  0  0  0  0  0  0
   48.3740   11.8574  -13.9310 O   0  0  0  0  0  0  0  0  0  0  0  0
   48.1419   10.9588  -13.5881 H   0  0  0  0  0  0  0  0  0  0  0  0
   48.2864   12.3386  -11.6202 C   0  0  0  0  0  0  0  0  0  0  0  0
   47.9429   11.0063  -11.2208 N   0  0  0  0  0  0  0  0  0  0  0  0
   48.9435   10.6109  -10.2193 C   0  0  0  0  0  0  0  0  0  0  0  0
   48.6459    9.2864   -9.6131 C   0  0  0  0  0  0  0  0  0  0  0  0
   47.3183    8.8803   -9.8659 O   0  0  0  0  0  0  0  0  0  0  0  0
   46.5413    9.9756   -9.4914 C   0  0  0  0  0  0  0  0  0  0  0  0
   46.6257   10.9916  -10.6265 C   0  0  0  0  0  0  0  0  0  0  0  0
  1  2  1  0  0  0
  2  3  1  0  0  0
  3  4  1  0  0  0
  4  9  1  0  0  0
  9 10  2  0  0  0
 10 11  1  0  0  0
 11 12  2  0  0  0
 11 13  1  0  0  0
 13 14  1  0  0  0
 14 15  2  0  0  0
 15 16  1  0  0  0
 16 17  2  0  0  0
 17 18  1  0  0  0
 17 19  1  0  0  0
 19 20  2  0  0  0
  4  5  2  0  0  0
  5  6  1  0  0  0
  5  7  1  0  0  0
  7 22  1  0  0  0
 22 23  2  0  0  0
 22 24  1  0  0  0
 24 26  1  0  0  0
 26 27  1  0  0  0
 27 28  1  0  0  0
 27 30  1  0  0  0
 30 31  1  0  0  0
 31 32  1  0  0  0
 32 33  1  0  0  0
 33 34  1  0  0  0
 34 35  1  0  0  0
 35 36  1  0  0  0
  7  2  2  0  0  0
 36 31  1  0  0  0
 20 10  1  0  0  0
 20 14  1  0  0  0
  3  8  1  0  0  0
 13 21  1  0  0  0
 24 25  1  0  0  0
 28 29  1  0  0  0
M  END
> <minimizedAffinity>
-9.34537

> <CNNscore>
0.7883448601

> <CNNaffinity>
6.7768731117

> <CNN_VS>
5.3425130844

> <CNNaffinity_variance>
0.2495191991

$$$$
[H]O[C@@]([H])(C([H])([H])N([H])C(=O)c1c(C([H])([H])[H])c(/C([H])=C2\C(=O)N([H])c3c([H])c([H])c(F)c([H])c32)n([H])c1C([H])([H])[H])C([H])([H])N1C([H])([H])C([H])([H])OC([H])([H])C1([H])[H]


 36 39  0  0  0  0  0  0  0  0999 V2000
   44.4934   12.0599  -17.5274 C   0  0  0  0  0  0  0  0  0  0  0  0
   43.3964   12.4763  -16.6145 C   0  0  0  0  0  0  0  0  0  0  0  0
   42.0670   12.1722  -16.8094 N   0  0  0  0  0  0  0  0  0  0  0  0
   41.3499   12.7086  -15.8449 C   0  0  0  0  0  0  0  0  0  0  0  0
   42.2096   13.3664  -15.0163 C   0  0  0  0  0  0  0  0  0  0  0  0
   41.8454   14.1297  -13.7806 C   0  0  0  0  0  0  0  0  0  0  0  0
   43.5496   13.2343  -15.4870 C   0  0  0  0  0  0  0  0  0  0  0  0
   41.7481   11.5987  -17.6421 H   0  0  0  0  0  0  0  0  0  0  0  0
   39.9235   12.6323  -15.6359 C   0  0  0  0  0  0  0  0  0  0  0  0
   39.0677   11.9701  -16.3900 C   0  0  0  0  0  0  0  0  0  0  0  0
   39.3735   11.1793  -17.5729 C   0  0  0  0  0  0  0  0  0  0  0  0
   40.5019   10.9487  -18.0942 O   0  0  0  0  0  0  0  0  0  0  0  0
   38.1093   10.6963  -18.0431 N   0  0  0  0  0  0  0  0  0  0  0  0
   37.0525   11.1509  -17.2080 C   0  0  0  0  0  0  0  0  0  0  0  0
   35.6683   10.9616  -17.2366 C   0  0  0  0  0  0  0  0  0  0  0  0
   34.8709   11.5366  -16.2743 C   0  0  0  0  0  0  0  0  0  0  0  0
   35.3987   12.3081  -15.2626 C   0  0  0  0  0  0  0  0  0  0  0  0
   34.5964   12.8730  -14.3134 F   0  0  0  0  0  0  0  0  0  0  0  0
   36.7657   12.4777  -15.2590 C   0  0  0  0  0  0  0  0  0  0  0  0
   37.6018   11.9188  -16.2057 C   0  0  0  0  0  0  0  0  0  0  0  0
   38.0085   10.0960  -18.8840 H   0  0  0  0  0  0  0  0  0  0  0  0
   44.6925   13.7868  -14.8049 C   0  0  0  0  0  0  0  0  0  0  0  0
   45.0994   14.9328  -15.1910 O   0  0  0  0  0  0  0  0  0  0  0  0
   45.3986   13.2004  -13.7634 N   0  0  0  0  0  0  0  0  0  0  0  0
   45.0123   12.2512  -13.4373 H   0  0  0  0  0  0  0  0  0  0  0  0
   46.5429   13.7294  -13.0855 C   0  0  0  0  0  0  0  0  0  0  0  0
   46.4075   14.5380  -11.8778 C   0  0  0  0  0  0  0  0  0  0  0  0
   46.4528   13.9330  -10.6403 O   0  0  0  0  0  0  0  0  0  0  0  0
   45.5326   13.9298  -10.2769 H   0  0  0  0  0  0  0  0  0  0  0  0
   45.5532   15.7471  -11.8562 C   0  0  0  0  0  0  0  0  0  0  0  0
   45.9697   16.8999  -12.5978 N   0  0  0  0  0  0  0  0  0  0  0  0
   44.9764   17.9459  -12.3158 C   0  0  0  0  0  0  0  0  0  0  0  0
   45.3427   19.2534  -12.9214 C   0  0  0  0  0  0  0  0  0  0  0  0
   46.6971   19.2875  -13.3160 O   0  0  0  0  0  0  0  0  0  0  0  0
   47.3987   18.8522  -12.1927 C   0  0  0  0  0  0  0  0  0  0  0  0
   47.2739   17.3322  -12.1500 C   0  0  0  0  0  0  0  0  0  0  0  0
  1  2  1  0  0  0
  2  3  1  0  0  0
  3  4  1  0  0  0
  4  9  1  0  0  0
  9 10  2  0  0  0
 10 11  1  0  0  0
 11 12  2  0  0  0
 11 13  1  0  0  0
 13 14  1  0  0  0
 14 15  2  0  0  0
 15 16  1  0  0  0
 16 17  2  0  0  0
 17 18  1  0  0  0
 17 19  1  0  0  0
 19 20  2  0  0  0
  4  5  2  0  0  0
  5  6  1  0  0  0
  5  7  1  0  0  0
  7 22  1  0  0  0
 22 23  2  0  0  0
 22 24  1  0  0  0
 24 26  1  0  0  0
 26 27  1  0  0  0
 27 28  1  0  0  0
 27 30  1  0  0  0
 30 31  1  0  0  0
 31 32  1  0  0  0
 32 33  1  0  0  0
 33 34  1  0  0  0
 34 35  1  0  0  0
 35 36  1  0  0  0
  7  2  2  0  0  0
 36 31  1  0  0  0
 20 10  1  0  0  0
 20 14  1  0  0  0
  3  8  1  0  0  0
 13 21  1  0  0  0
 24 25  1  0  0  0
 28 29  1  0  0  0
M  END
> <minimizedAffinity>
-8.96360

> <CNNscore>
0.7648271918

> <CNNaffinity>
6.8192267418

> <CNN_VS>
5.2155299187

> <CNNaffinity_variance>
0.2761266828

$$$$
[H]O[C@@]([H])(C([H])([H])N([H])C(=O)c1c(C([H])([H])[H])c(/C([H])=C2\C(=O)N([H])c3c([H])c([H])c(F)c([H])c32)n([H])c1C([H])([H])[H])C([H])([H])N1C([H])([H])C([H])([H])OC([H])([H])C1([H])[H]


 36 39  0  0  0  0  0  0  0  0999 V2000
   44.6397   12.3503  -16.9414 C   0  0  0  0  0  0  0  0  0  0  0  0
   43.4507   12.7460  -16.1414 C   0  0  0  0  0  0  0  0  0  0  0  0
   42.1677   12.3105  -16.3905 N   0  0  0  0  0  0  0  0  0  0  0  0
   41.3430   12.8632  -15.5266 C   0  0  0  0  0  0  0  0  0  0  0  0
   42.0854   13.6632  -14.7098 C   0  0  0  0  0  0  0  0  0  0  0  0
   41.5737   14.4956  -13.5750 C   0  0  0  0  0  0  0  0  0  0  0  0
   43.4615   13.6093  -15.0812 C   0  0  0  0  0  0  0  0  0  0  0  0
   41.9563   11.6413  -17.1852 H   0  0  0  0  0  0  0  0  0  0  0  0
   39.9165   12.6801  -15.4014 C   0  0  0  0  0  0  0  0  0  0  0  0
   39.1435   12.0369  -16.2548 C   0  0  0  0  0  0  0  0  0  0  0  0
   39.5571   11.3765  -17.4840 C   0  0  0  0  0  0  0  0  0  0  0  0
   40.7219   11.2642  -17.9624 O   0  0  0  0  0  0  0  0  0  0  0  0
   38.3516   10.8605  -18.0611 N   0  0  0  0  0  0  0  0  0  0  0  0
   37.2284   11.1716  -17.2472 C   0  0  0  0  0  0  0  0  0  0  0  0
   35.8628   10.9002  -17.3659 C   0  0  0  0  0  0  0  0  0  0  0  0
   34.9840   11.3356  -16.4012 C   0  0  0  0  0  0  0  0  0  0  0  0
   35.4106   12.0439  -15.2995 C   0  0  0  0  0  0  0  0  0  0  0  0
   34.5282   12.4701  -14.3489 F   0  0  0  0  0  0  0  0  0  0  0  0
   36.7616   12.2968  -15.2083 C   0  0  0  0  0  0  0  0  0  0  0  0
   37.6771   11.8784  -16.1541 C   0  0  0  0  0  0  0  0  0  0  0  0
   38.3312   10.3334  -18.9552 H   0  0  0  0  0  0  0  0  0  0  0  0
   44.5044   14.3171  -14.3825 C   0  0  0  0  0  0  0  0  0  0  0  0
   44.6319   14.0779  -13.1357 O   0  0  0  0  0  0  0  0  0  0  0  0
   45.3918   15.2344  -14.9285 N   0  0  0  0  0  0  0  0  0  0  0  0
   45.2823   15.3902  -15.9868 H   0  0  0  0  0  0  0  0  0  0  0  0
   46.4229   15.9554  -14.2458 C   0  0  0  0  0  0  0  0  0  0  0  0
   47.8355   15.6791  -14.4887 C   0  0  0  0  0  0  0  0  0  0  0  0
   48.3549   15.8322  -15.7561 O   0  0  0  0  0  0  0  0  0  0  0  0
   48.5117   14.9274  -16.1246 H   0  0  0  0  0  0  0  0  0  0  0  0
   48.5508   14.6234  -13.7364 C   0  0  0  0  0  0  0  0  0  0  0  0
   47.8251   13.8500  -12.7731 N   0  0  0  0  0  0  0  0  0  0  0  0
   47.7577   12.4852  -13.3143 C   0  0  0  0  0  0  0  0  0  0  0  0
   47.1365   11.5277  -12.3616 C   0  0  0  0  0  0  0  0  0  0  0  0
   47.0793   12.0527  -11.0530 O   0  0  0  0  0  0  0  0  0  0  0  0
   48.3751   12.5005  -10.7999 C   0  0  0  0  0  0  0  0  0  0  0  0
   48.5313   13.8405  -11.5123 C   0  0  0  0  0  0  0  0  0  0  0  0
  1  2  1  0  0  0
  2  3  1  0  0  0
  3  4  1  0  0  0
  4  9  1  0  0  0
  9 10  2  0  0  0
 10 11  1  0  0  0
 11 12  2  0  0  0
 11 13  1  0  0  0
 13 14  1  0  0  0
 14 15  2  0  0  0
 15 16  1  0  0  0
 16 17  2  0  0  0
 17 18  1  0  0  0
 17 19  1  0  0  0
 19 20  2  0  0  0
  4  5  2  0  0  0
  5  6  1  0  0  0
  5  7  1  0  0  0
  7 22  1  0  0  0
 22 23  2  0  0  0
 22 24  1  0  0  0
 24 26  1  0  0  0
 26 27  1  0  0  0
 27 28  1  0  0  0
 27 30  1  0  0  0
 30 31  1  0  0  0
 31 32  1  0  0  0
 32 33  1  0  0  0
 33 34  1  0  0  0
 34 35  1  0  0  0
 35 36  1  0  0  0
  7  2  2  0  0  0
 36 31  1  0  0  0
 20 10  1  0  0  0
 20 14  1  0  0  0
  3  8  1  0  0  0
 13 21  1  0  0  0
 24 25  1  0  0  0
 28 29  1  0  0  0
M  END
> <minimizedAffinity>
-8.64456

> <CNNscore>
0.7384432554

> <CNNaffinity>
6.7835335732

> <CNN_VS>
5.0092544556

> <CNNaffinity_variance>
0.3449824154

$$$$
[H]O[C@@]([H])(C([H])([H])N([H])C(=O)c1c(C([H])([H])[H])c(/C([H])=C2\C(=O)N([H])c3c([H])c([H])c(F)c([H])c32)n([H])c1C([H])([H])[H])C([H])([H])N1C([H])([H])C([H])([H])OC([H])([H])C1([H])[H]


 36 39  0  0  0  0  0  0  0  0999 V2000
   43.8482   11.9893  -16.9944 C   0  0  0  0  0  0  0  0  0  0  0  0
   42.7047   12.4935  -16.1891 C   0  0  0  0  0  0  0  0  0  0  0  0
   41.3943   12.1134  -16.3790 N   0  0  0  0  0  0  0  0  0  0  0  0
   40.6244   12.7583  -15.5284 C   0  0  0  0  0  0  0  0  0  0  0  0
   41.4304   13.5634  -14.7797 C   0  0  0  0  0  0  0  0  0  0  0  0
   40.9953   14.4861  -13.6835 C   0  0  0  0  0  0  0  0  0  0  0  0
   42.7906   13.4148  -15.1825 C   0  0  0  0  0  0  0  0  0  0  0  0
   41.1258   11.4116  -17.1269 H   0  0  0  0  0  0  0  0  0  0  0  0
   39.1945   12.6591  -15.3561 C   0  0  0  0  0  0  0  0  0  0  0  0
   38.3712   11.9694  -16.1216 C   0  0  0  0  0  0  0  0  0  0  0  0
   38.7227   11.1657  -17.2829 C   0  0  0  0  0  0  0  0  0  0  0  0
   39.8687   10.9476  -17.7703 O   0  0  0  0  0  0  0  0  0  0  0  0
   37.4805   10.6521  -17.7785 N   0  0  0  0  0  0  0  0  0  0  0  0
   36.3937   11.1004  -16.9792 C   0  0  0  0  0  0  0  0  0  0  0  0
   35.0144   10.8853  -17.0414 C   0  0  0  0  0  0  0  0  0  0  0  0
   34.1813   11.4608  -16.1101 C   0  0  0  0  0  0  0  0  0  0  0  0
   34.6679   12.2578  -15.0975 C   0  0  0  0  0  0  0  0  0  0  0  0
   33.8304   12.8229  -14.1793 F   0  0  0  0  0  0  0  0  0  0  0  0
   36.0310   12.4526  -15.0605 C   0  0  0  0  0  0  0  0  0  0  0  0
   36.9020   11.8941  -15.9754 C   0  0  0  0  0  0  0  0  0  0  0  0
   37.4131   10.0368  -18.6118 H   0  0  0  0  0  0  0  0  0  0  0  0
   43.8884   14.1051  -14.5539 C   0  0  0  0  0  0  0  0  0  0  0  0
   44.6574   14.7831  -15.3135 O   0  0  0  0  0  0  0  0  0  0  0  0
   44.1959   14.1121  -13.2002 N   0  0  0  0  0  0  0  0  0  0  0  0
   43.5113   13.5603  -12.5812 H   0  0  0  0  0  0  0  0  0  0  0  0
   45.2895   14.7807  -12.5629 C   0  0  0  0  0  0  0  0  0  0  0  0
   46.2282   14.0619  -11.7069 C   0  0  0  0  0  0  0  0  0  0  0  0
   47.1033   13.1533  -12.2621 O   0  0  0  0  0  0  0  0  0  0  0  0
   46.7861   12.2482  -12.0191 H   0  0  0  0  0  0  0  0  0  0  0  0
   45.8691   13.6870  -10.3203 C   0  0  0  0  0  0  0  0  0  0  0  0
   44.6243   14.1478   -9.7810 N   0  0  0  0  0  0  0  0  0  0  0  0
   43.9954   12.9778   -9.1517 C   0  0  0  0  0  0  0  0  0  0  0  0
   42.7416   13.3264   -8.4328 C   0  0  0  0  0  0  0  0  0  0  0  0
   42.6293   14.7167   -8.2183 O   0  0  0  0  0  0  0  0  0  0  0  0
   43.8486   15.0813   -7.6492 C   0  0  0  0  0  0  0  0  0  0  0  0
   44.8633   15.1677   -8.7853 C   0  0  0  0  0  0  0  0  0  0  0  0
  1  2  1  0  0  0
  2  3  1  0  0  0
  3  4  1  0  0  0
  4  9  1  0  0  0
  9 10  2  0  0  0
 10 11  1  0  0  0
 11 12  2  0  0  0
 11 13  1  0  0  0
 13 14  1  0  0  0
 14 15  2  0  0  0
 15 16  1  0  0  0
 16 17  2  0  0  0
 17 18  1  0  0  0
 17 19  1  0  0  0
 19 20  2  0  0  0
  4  5  2  0  0  0
  5  6  1  0  0  0
  5  7  1  0  0  0
  7 22  1  0  0  0
 22 23  2  0  0  0
 22 24  1  0  0  0
 24 26  1  0  0  0
 26 27  1  0  0  0
 27 28  1  0  0  0
 27 30  1  0  0  0
 30 31  1  0  0  0
 31 32  1  0  0  0
 32 33  1  0  0  0
 33 34  1  0  0  0
 34 35  1  0  0  0
 35 36  1  0  0  0
  7  2  2  0  0  0
 36 31  1  0  0  0
 20 10  1  0  0  0
 20 14  1  0  0  0
  3  8  1  0  0  0
 13 21  1  0  0  0
 24 25  1  0  0  0
 28 29  1  0  0  0
M  END
> <minimizedAffinity>
-8.30009

> <CNNscore>
0.6787315607

> <CNNaffinity>
6.8077216148

> <CNN_VS>
4.6206154823

> <CNNaffinity_variance>
0.2460395098

$$$$
[H]O[C@@]([H])(C([H])([H])N([H])C(=O)c1c(C([H])([H])[H])c(/C([H])=C2\C(=O)N([H])c3c([H])c([H])c(F)c([H])c32)n([H])c1C([H])([H])[H])C([H])([H])N1C([H])([H])C([H])([H])OC([H])([H])C1([H])[H]


 36 39  0  0  0  0  0  0  0  0999 V2000
   39.1282   16.4028  -10.4926 C   0  0  0  0  0  0  0  0  0  0  0  0
   38.4107   15.3922  -11.3138 C   0  0  0  0  0  0  0  0  0  0  0  0
   38.8863   14.8757  -12.4989 N   0  0  0  0  0  0  0  0  0  0  0  0
   38.0064   14.0302  -12.9918 C   0  0  0  0  0  0  0  0  0  0  0  0
   36.9513   13.9922  -12.1294 C   0  0  0  0  0  0  0  0  0  0  0  0
   35.7097   13.1685  -12.2782 C   0  0  0  0  0  0  0  0  0  0  0  0
   37.1822   14.8657  -11.0256 C   0  0  0  0  0  0  0  0  0  0  0  0
   39.8234   15.1744  -12.8948 H   0  0  0  0  0  0  0  0  0  0  0  0
   38.0931   13.2443  -14.1996 C   0  0  0  0  0  0  0  0  0  0  0  0
   39.1630   13.1136  -14.9598 C   0  0  0  0  0  0  0  0  0  0  0  0
   40.4690   13.7182  -14.7437 C   0  0  0  0  0  0  0  0  0  0  0  0
   40.8452   14.4565  -13.7887 O   0  0  0  0  0  0  0  0  0  0  0  0
   41.2697   13.2984  -15.8551 N   0  0  0  0  0  0  0  0  0  0  0  0
   40.5194   12.4703  -16.7339 C   0  0  0  0  0  0  0  0  0  0  0  0
   40.8343   11.8216  -17.9308 C   0  0  0  0  0  0  0  0  0  0  0  0
   39.8844   11.0676  -18.5803 C   0  0  0  0  0  0  0  0  0  0  0  0
   38.6078   10.9260  -18.0828 C   0  0  0  0  0  0  0  0  0  0  0  0
   37.6743   10.1746  -18.7369 F   0  0  0  0  0  0  0  0  0  0  0  0
   38.3254   11.5762  -16.9017 C   0  0  0  0  0  0  0  0  0  0  0  0
   39.2490   12.3428  -16.2184 C   0  0  0  0  0  0  0  0  0  0  0  0
   42.2622   13.5770  -15.9765 H   0  0  0  0  0  0  0  0  0  0  0  0
   36.2660   15.0176   -9.9236 C   0  0  0  0  0  0  0  0  0  0  0  0
   36.4299   14.2428   -8.9232 O   0  0  0  0  0  0  0  0  0  0  0  0
   35.2203   15.9262   -9.8353 N   0  0  0  0  0  0  0  0  0  0  0  0
   35.1278   16.5879  -10.6779 H   0  0  0  0  0  0  0  0  0  0  0  0
   34.2941   16.0799   -8.7548 C   0  0  0  0  0  0  0  0  0  0  0  0
   34.5097   17.0655   -7.7000 C   0  0  0  0  0  0  0  0  0  0  0  0
   33.5139   17.9672   -7.3918 O   0  0  0  0  0  0  0  0  0  0  0  0
   33.7930   18.8496   -7.7415 H   0  0  0  0  0  0  0  0  0  0  0  0
   35.8519   17.6367   -7.4468 C   0  0  0  0  0  0  0  0  0  0  0  0
   36.0745   19.0250   -7.7220 N   0  0  0  0  0  0  0  0  0  0  0  0
   36.3358   19.6607   -6.4229 C   0  0  0  0  0  0  0  0  0  0  0  0
   36.7112   21.0929   -6.5580 C   0  0  0  0  0  0  0  0  0  0  0  0
   37.0713   21.4179   -7.8832 O   0  0  0  0  0  0  0  0  0  0  0  0
   38.0058   20.4465   -8.2388 C   0  0  0  0  0  0  0  0  0  0  0  0
   37.2255   19.1810   -8.5819 C   0  0  0  0  0  0  0  0  0  0  0  0
  1  2  1  0  0  0
  2  3  1  0  0  0
  3  4  1  0  0  0
  4  9  1  0  0  0
  9 10  2  0  0  0
 10 11  1  0  0  0
 11 12  2  0  0  0
 11 13  1  0  0  0
 13 14  1  0  0  0
 14 15  2  0  0  0
 15 16  1  0  0  0
 16 17  2  0  0  0
 17 18  1  0  0  0
 17 19  1  0  0  0
 19 20  2  0  0  0
  4  5  2  0  0  0
  5  6  1  0  0  0
  5  7  1  0  0  0
  7 22  1  0  0  0
 22 23  2  0  0  0
 22 24  1  0  0  0
 24 26  1  0  0  0
 26 27  1  0  0  0
 27 28  1  0  0  0
 27 30  1  0  0  0
 30 31  1  0  0  0
 31 32  1  0  0  0
 32 33  1  0  0  0
 33 34  1  0  0  0
 34 35  1  0  0  0
 35 36  1  0  0  0
  7  2  2  0  0  0
 36 31  1  0  0  0
 20 10  1  0  0  0
 20 14  1  0  0  0
  3  8  1  0  0  0
 13 21  1  0  0  0
 24 25  1  0  0  0
 28 29  1  0  0  0
M  END
> <minimizedAffinity>
-9.24305

> <CNNscore>
0.5000809431

> <CNNaffinity>
6.2887430191

> <CNN_VS>
3.1448805332

> <CNNaffinity_variance>
0.2544036508

$$$$
[H]O[C@@]([H])(C([H])([H])N([H])C(=O)c1c(C([H])([H])[H])c(/C([H])=C2\C(=O)N([H])c3c([H])c([H])c(F)c([H])c32)n([H])c1C([H])([H])[H])C([H])([H])N1C([H])([H])C([H])([H])OC([H])([H])C1([H])[H]


 36 39  0  0  0  0  0  0  0  0999 V2000
   32.8826   15.4868  -11.8621 C   0  0  0  0  0  0  0  0  0  0  0  0
   34.2784   15.0586  -12.1430 C   0  0  0  0  0  0  0  0  0  0  0  0
   34.7048   14.5441  -13.3477 N   0  0  0  0  0  0  0  0  0  0  0  0
   35.9816   14.2363  -13.2642 C   0  0  0  0  0  0  0  0  0  0  0  0
   36.3938   14.5485  -12.0028 C   0  0  0  0  0  0  0  0  0  0  0  0
   37.7729   14.3694  -11.4475 C   0  0  0  0  0  0  0  0  0  0  0  0
   35.3107   15.0872  -11.2470 C   0  0  0  0  0  0  0  0  0  0  0  0
   34.0406   14.4323  -14.1664 H   0  0  0  0  0  0  0  0  0  0  0  0
   36.8436   13.6902  -14.2854 C   0  0  0  0  0  0  0  0  0  0  0  0
   36.5127   12.7561  -15.1557 C   0  0  0  0  0  0  0  0  0  0  0  0
   35.2243   12.0902  -15.2771 C   0  0  0  0  0  0  0  0  0  0  0  0
   34.1721   12.2853  -14.6039 O   0  0  0  0  0  0  0  0  0  0  0  0
   35.3848   11.1453  -16.3419 N   0  0  0  0  0  0  0  0  0  0  0  0
   36.7018   11.2028  -16.8740 C   0  0  0  0  0  0  0  0  0  0  0  0
   37.3457   10.5037  -17.8984 C   0  0  0  0  0  0  0  0  0  0  0  0
   38.6592   10.7763  -18.2032 C   0  0  0  0  0  0  0  0  0  0  0  0
   39.3774   11.7334  -17.5210 C   0  0  0  0  0  0  0  0  0  0  0  0
   40.6804   11.9947  -17.8335 F   0  0  0  0  0  0  0  0  0  0  0  0
   38.7177   12.4069  -16.5166 C   0  0  0  0  0  0  0  0  0  0  0  0
   37.4008   12.1639  -16.1786 C   0  0  0  0  0  0  0  0  0  0  0  0
   34.6238   10.5158  -16.6612 H   0  0  0  0  0  0  0  0  0  0  0  0
   35.4386   15.5491   -9.8880 C   0  0  0  0  0  0  0  0  0  0  0  0
   35.5687   14.6587   -8.9834 O   0  0  0  0  0  0  0  0  0  0  0  0
   35.4386   16.8692   -9.4585 N   0  0  0  0  0  0  0  0  0  0  0  0
   35.3615   17.5976  -10.2458 H   0  0  0  0  0  0  0  0  0  0  0  0
   35.5506   17.3432   -8.1125 C   0  0  0  0  0  0  0  0  0  0  0  0
   34.4106   17.3274   -7.2011 C   0  0  0  0  0  0  0  0  0  0  0  0
   33.5780   18.4233   -7.1273 O   0  0  0  0  0  0  0  0  0  0  0  0
   33.7647   18.8814   -6.2704 H   0  0  0  0  0  0  0  0  0  0  0  0
   34.4724   16.6088   -5.9081 C   0  0  0  0  0  0  0  0  0  0  0  0
   35.4258   15.5509   -5.7512 N   0  0  0  0  0  0  0  0  0  0  0  0
   36.1762   15.8579   -4.5253 C   0  0  0  0  0  0  0  0  0  0  0  0
   37.1281   14.7766   -4.1577 C   0  0  0  0  0  0  0  0  0  0  0  0
   36.8495   13.5764   -4.8457 O   0  0  0  0  0  0  0  0  0  0  0  0
   35.4870   13.3648   -4.6400 C   0  0  0  0  0  0  0  0  0  0  0  0
   34.7422   14.2865   -5.6009 C   0  0  0  0  0  0  0  0  0  0  0  0
  1  2  1  0  0  0
  2  3  1  0  0  0
  3  4  1  0  0  0
  4  9  1  0  0  0
  9 10  2  0  0  0
 10 11  1  0  0  0
 11 12  2  0  0  0
 11 13  1  0  0  0
 13 14  1  0  0  0
 14 15  2  0  0  0
 15 16  1  0  0  0
 16 17  2  0  0  0
 17 18  1  0  0  0
 17 19  1  0  0  0
 19 20  2  0  0  0
  4  5  2  0  0  0
  5  6  1  0  0  0
  5  7  1  0  0  0
  7 22  1  0  0  0
 22 23  2  0  0  0
 22 24  1  0  0  0
 24 26  1  0  0  0
 26 27  1  0  0  0
 27 28  1  0  0  0
 27 30  1  0  0  0
 30 31  1  0  0  0
 31 32  1  0  0  0
 32 33  1  0  0  0
 33 34  1  0  0  0
 34 35  1  0  0  0
 35 36  1  0  0  0
  7  2  2  0  0  0
 36 31  1  0  0  0
 20 10  1  0  0  0
 20 14  1  0  0  0
  3  8  1  0  0  0
 13 21  1  0  0  0
 24 25  1  0  0  0
 28 29  1  0  0  0
M  END
> <minimizedAffinity>
-8.85512

> <CNNscore>
0.3454539776

> <CNNaffinity>
6.2082910538

> <CNN_VS>
2.1446788311

> <CNNaffinity_variance>
0.1448918283

$$$$
[H]O[C@@]([H])(C([H])([H])N([H])C(=O)c1c(C([H])([H])[H])c(/C([H])=C2\C(=O)N([H])c3c([H])c([H])c(F)c([H])c32)n([H])c1C([H])([H])[H])C([H])([H])N1C([H])([H])C([H])([H])OC([H])([H])C1([H])[H]


 36 39  0  0  0  0  0  0  0  0999 V2000
   39.2158   16.4291  -10.5307 C   0  0  0  0  0  0  0  0  0  0  0  0
   38.4730   15.4282  -11.3411 C   0  0  0  0  0  0  0  0  0  0  0  0
   38.9371   14.8845  -12.5187 N   0  0  0  0  0  0  0  0  0  0  0  0
   38.0356   14.0570  -13.0033 C   0  0  0  0  0  0  0  0  0  0  0  0
   36.9781   14.0582  -12.1431 C   0  0  0  0  0  0  0  0  0  0  0  0
   35.7150   13.2664  -12.2849 C   0  0  0  0  0  0  0  0  0  0  0  0
   37.2301   14.9387  -11.0495 C   0  0  0  0  0  0  0  0  0  0  0  0
   39.8827   15.1529  -12.9159 H   0  0  0  0  0  0  0  0  0  0  0  0
   38.1037   13.2542  -14.2012 C   0  0  0  0  0  0  0  0  0  0  0  0
   39.1566   13.1259  -14.9851 C   0  0  0  0  0  0  0  0  0  0  0  0
   40.4593   13.7506  -14.8097 C   0  0  0  0  0  0  0  0  0  0  0  0
   40.8485   14.5079  -13.8751 O   0  0  0  0  0  0  0  0  0  0  0  0
   41.2384   13.3245  -15.9339 N   0  0  0  0  0  0  0  0  0  0  0  0
   40.4783   12.4736  -16.7819 C   0  0  0  0  0  0  0  0  0  0  0  0
   40.7728   11.8111  -17.9765 C   0  0  0  0  0  0  0  0  0  0  0  0
   39.8177   11.0352  -18.5915 C   0  0  0  0  0  0  0  0  0  0  0  0
   38.5554   10.8846  -18.0611 C   0  0  0  0  0  0  0  0  0  0  0  0
   37.6166   10.1114  -18.6812 F   0  0  0  0  0  0  0  0  0  0  0  0
   38.2930   11.5488  -16.8832 C   0  0  0  0  0  0  0  0  0  0  0  0
   39.2225   12.3374  -16.2339 C   0  0  0  0  0  0  0  0  0  0  0  0
   42.2240   13.6140  -16.0835 H   0  0  0  0  0  0  0  0  0  0  0  0
   36.3161   15.1287   -9.9518 C   0  0  0  0  0  0  0  0  0  0  0  0
   36.2337   14.1854   -9.0966 O   0  0  0  0  0  0  0  0  0  0  0  0
   35.5140   16.2388   -9.7248 N   0  0  0  0  0  0  0  0  0  0  0  0
   35.6296   17.0309  -10.4428 H   0  0  0  0  0  0  0  0  0  0  0  0
   34.5918   16.4366   -8.6480 C   0  0  0  0  0  0  0  0  0  0  0  0
   34.9372   17.2532   -7.4885 C   0  0  0  0  0  0  0  0  0  0  0  0
   34.5522   18.5759   -7.4436 O   0  0  0  0  0  0  0  0  0  0  0  0
   35.3615   19.1263   -7.5886 H   0  0  0  0  0  0  0  0  0  0  0  0
   36.1972   17.0326   -6.7430 C   0  0  0  0  0  0  0  0  0  0  0  0
   36.4344   15.7488   -6.1529 N   0  0  0  0  0  0  0  0  0  0  0  0
   37.8741   15.4928   -6.3004 C   0  0  0  0  0  0  0  0  0  0  0  0
   38.3000   14.2416   -5.6195 C   0  0  0  0  0  0  0  0  0  0  0  0
   37.3246   13.7818   -4.7093 O   0  0  0  0  0  0  0  0  0  0  0  0
   37.0226   14.8970   -3.9290 C   0  0  0  0  0  0  0  0  0  0  0  0
   36.0849   15.7760   -4.7509 C   0  0  0  0  0  0  0  0  0  0  0  0
  1  2  1  0  0  0
  2  3  1  0  0  0
  3  4  1  0  0  0
  4  9  1  0  0  0
  9 10  2  0  0  0
 10 11  1  0  0  0
 11 12  2  0  0  0
 11 13  1  0  0  0
 13 14  1  0  0  0
 14 15  2  0  0  0
 15 16  1  0  0  0
 16 17  2  0  0  0
 17 18  1  0  0  0
 17 19  1  0  0  0
 19 20  2  0  0  0
  4  5  2  0  0  0
  5  6  1  0  0  0
  5  7  1  0  0  0
  7 22  1  0  0  0
 22 23  2  0  0  0
 22 24  1  0  0  0
 24 26  1  0  0  0
 26 27  1  0  0  0
 27 28  1  0  0  0
 27 30  1  0  0  0
 30 31  1  0  0  0
 31 32  1  0  0  0
 32 33  1  0  0  0
 33 34  1  0  0  0
 34 35  1  0  0  0
 35 36  1  0  0  0
  7  2  2  0  0  0
 36 31  1  0  0  0
 20 10  1  0  0  0
 20 14  1  0  0  0
  3  8  1  0  0  0
 13 21  1  0  0  0
 24 25  1  0  0  0
 28 29  1  0  0  0
M  END
> <minimizedAffinity>
-9.27134

> <CNNscore>
0.2896406949

> <CNNaffinity>
5.9078125954

> <CNN_VS>
1.7111428976

> <CNNaffinity_variance>
0.2594555914

$$$$
[H]c1nc(N([H])c2c([H])c([H])c(N3C([H])([H])C([H])([H])N(C([H])([H])[H])C([H])([H])C3([H])[H])c([H])c2OC([H])([H])[H])nc(N([H])c2c([H])c([H])c([H])c([H])c2S(=O)(=O)C([H])(C([H])([H])[H])C([H])([H])[H])c1Cl


 38 41  0  0  0  0  0  0  0  0999 V2000
   42.9570   12.6021  -16.2845 C   0  0  0  0  0  0  0  0  0  0  0  0
   44.0328   12.0096  -16.8022 N   0  0  0  0  0  0  0  0  0  0  0  0
   45.2656   12.0889  -16.3209 C   0  0  0  0  0  0  0  0  0  0  0  0
   45.4788   12.8429  -15.1887 C   0  0  0  0  0  0  0  0  0  0  0  0
   47.0833   12.9911  -14.4996 Cl  0  0  0  0  0  0  0  0  0  0  0  0
   44.3880   13.5083  -14.5722 C   0  0  0  0  0  0  0  0  0  0  0  0
   43.2192   13.3385  -15.1624 N   0  0  0  0  0  0  0  0  0  0  0  0
   41.6328   12.5359  -16.7744 N   0  0  0  0  0  0  0  0  0  0  0  0
   41.5597   12.1410  -17.7781 H   0  0  0  0  0  0  0  0  0  0  0  0
   39.2844   12.1961  -16.3648 C   0  0  0  0  0  0  0  0  0  0  0  0
   38.1197   12.5458  -15.7296 C   0  0  0  0  0  0  0  0  0  0  0  0
   38.0190   13.5764  -14.8404 C   0  0  0  0  0  0  0  0  0  0  0  0
   39.1785   14.2856  -14.5912 C   0  0  0  0  0  0  0  0  0  0  0  0
   40.3749   13.9367  -15.2354 C   0  0  0  0  0  0  0  0  0  0  0  0
   40.4687   12.9141  -16.1156 C   0  0  0  0  0  0  0  0  0  0  0  0
   36.8013   13.8928  -14.1998 N   0  0  0  0  0  0  0  0  0  0  0  0
   35.5030   13.3933  -14.6322 C   0  0  0  0  0  0  0  0  0  0  0  0
   34.6926   12.8914  -13.4536 C   0  0  0  0  0  0  0  0  0  0  0  0
   34.8259   13.6754  -12.2678 N   0  0  0  0  0  0  0  0  0  0  0  0
   34.0543   14.8834  -12.2720 C   0  0  0  0  0  0  0  0  0  0  0  0
   36.2258   13.9040  -11.9067 C   0  0  0  0  0  0  0  0  0  0  0  0
   36.7748   14.7694  -13.0531 C   0  0  0  0  0  0  0  0  0  0  0  0
   38.1147   10.7096  -17.8683 C   0  0  0  0  0  0  0  0  0  0  0  0
   39.3158   11.1307  -17.2622 O   0  0  0  0  0  0  0  0  0  0  0  0
   44.6495   14.2538  -13.3993 N   0  0  0  0  0  0  0  0  0  0  0  0
   44.5952   13.6980  -12.4941 H   0  0  0  0  0  0  0  0  0  0  0  0
   44.9875   15.6154  -13.3739 C   0  0  0  0  0  0  0  0  0  0  0  0
   45.6790   16.2843  -14.3587 C   0  0  0  0  0  0  0  0  0  0  0  0
   46.0475   17.6369  -14.2522 C   0  0  0  0  0  0  0  0  0  0  0  0
   45.6881   18.3003  -13.0977 C   0  0  0  0  0  0  0  0  0  0  0  0
   44.9985   17.6571  -12.1009 C   0  0  0  0  0  0  0  0  0  0  0  0
   44.6376   16.3282  -12.2105 C   0  0  0  0  0  0  0  0  0  0  0  0
   43.7202   15.5253  -10.9704 S   0  0  0  0  0  0  0  0  0  0  0  0
   44.2840   14.1918  -10.5746 O   0  0  0  0  0  0  0  0  0  0  0  0
   43.9026   16.3904   -9.7072 O   0  0  0  0  0  0  0  0  0  0  0  0
   41.9918   15.5117  -11.2695 C   0  0  0  0  0  0  0  0  0  0  0  0
   41.6729   16.3221  -12.5342 C   0  0  0  0  0  0  0  0  0  0  0  0
   41.2254   16.2371  -10.1570 C   0  0  0  0  0  0  0  0  0  0  0  0
 23 24  1  0  0  0
 24 10  1  0  0  0
 10 11  2  0  0  0
 11 12  1  0  0  0
 12 13  2  0  0  0
 13 14  1  0  0  0
 14 15  2  0  0  0
 15  8  1  0  0  0
  8  1  1  0  0  0
  1  2  2  0  0  0
  2  3  1  0  0  0
  3  4  2  0  0  0
  4  5  1  0  0  0
  4  6  1  0  0  0
  6 25  1  0  0  0
 25 27  1  0  0  0
 27 28  2  0  0  0
 28 29  1  0  0  0
 29 30  2  0  0  0
 30 31  1  0  0  0
 31 32  2  0  0  0
 32 33  1  0  0  0
 33 34  2  0  0  0
 33 35  2  0  0  0
 33 36  1  0  0  0
 36 37  1  0  0  0
 36 38  1  0  0  0
  6  7  2  0  0  0
 12 16  1  0  0  0
 16 17  1  0  0  0
 17 18  1  0  0  0
 18 19  1  0  0  0
 19 20  1  0  0  0
 19 21  1  0  0  0
 21 22  1  0  0  0
 15 10  1  0  0  0
  7  1  1  0  0  0
 22 16  1  0  0  0
 32 27  1  0  0  0
  8  9  1  0  0  0
 25 26  1  0  0  0
M  END
> <minimizedAffinity>
-8.06996

> <CNNscore>
0.3908042610

> <CNNaffinity>
7.3668794632

> <CNN_VS>
2.8790078163

> <CNNaffinity_variance>
0.0703974590

$$$$
[H]c1nc(N([H])c2c([H])c([H])c(N3C([H])([H])C([H])([H])N(C([H])([H])[H])C([H])([H])C3([H])[H])c([H])c2OC([H])([H])[H])nc(N([H])c2c([H])c([H])c([H])c([H])c2S(=O)(=O)C([H])(C([H])([H])[H])C([H])([H])[H])c1Cl


 38 41  0  0  0  0  0  0  0  0999 V2000
   44.0187   13.2556  -16.0487 C   0  0  0  0  0  0  0  0  0  0  0  0
   45.2268   12.7467  -16.2889 N   0  0  0  0  0  0  0  0  0  0  0  0
   46.3332   13.0314  -15.6160 C   0  0  0  0  0  0  0  0  0  0  0  0
   46.2528   13.9279  -14.5740 C   0  0  0  0  0  0  0  0  0  0  0  0
   47.6764   14.3498  -13.6430 Cl  0  0  0  0  0  0  0  0  0  0  0  0
   45.0041   14.5180  -14.2496 C   0  0  0  0  0  0  0  0  0  0  0  0
   43.9900   14.1398  -15.0057 N   0  0  0  0  0  0  0  0  0  0  0  0
   42.8234   12.9716  -16.7475 N   0  0  0  0  0  0  0  0  0  0  0  0
   42.9672   12.8074  -17.8064 H   0  0  0  0  0  0  0  0  0  0  0  0
   40.5327   12.2701  -16.9902 C   0  0  0  0  0  0  0  0  0  0  0  0
   39.2550   12.1722  -16.5001 C   0  0  0  0  0  0  0  0  0  0  0  0
   38.8711   12.6462  -15.2792 C   0  0  0  0  0  0  0  0  0  0  0  0
   39.8541   13.2539  -14.5215 C   0  0  0  0  0  0  0  0  0  0  0  0
   41.1637   13.3595  -15.0131 C   0  0  0  0  0  0  0  0  0  0  0  0
   41.5385   12.8876  -16.2239 C   0  0  0  0  0  0  0  0  0  0  0  0
   37.5464   12.5119  -14.8094 N   0  0  0  0  0  0  0  0  0  0  0  0
   37.2009   11.9941  -13.4924 C   0  0  0  0  0  0  0  0  0  0  0  0
   36.1551   12.8634  -12.8228 C   0  0  0  0  0  0  0  0  0  0  0  0
   35.1527   13.3681  -13.7053 N   0  0  0  0  0  0  0  0  0  0  0  0
   34.1338   12.4180  -14.0424 C   0  0  0  0  0  0  0  0  0  0  0  0
   35.7264   14.0189  -14.8843 C   0  0  0  0  0  0  0  0  0  0  0  0
   36.4256   12.8783  -15.6422 C   0  0  0  0  0  0  0  0  0  0  0  0
   39.8409   11.1783  -19.0318 C   0  0  0  0  0  0  0  0  0  0  0  0
   40.8557   11.7632  -18.2473 O   0  0  0  0  0  0  0  0  0  0  0  0
   44.9643   15.4166  -13.1585 N   0  0  0  0  0  0  0  0  0  0  0  0
   45.8477   15.9926  -13.0204 H   0  0  0  0  0  0  0  0  0  0  0  0
   43.8623   15.5973  -12.3089 C   0  0  0  0  0  0  0  0  0  0  0  0
   42.6237   16.0576  -12.6956 C   0  0  0  0  0  0  0  0  0  0  0  0
   41.5723   16.2810  -11.7894 C   0  0  0  0  0  0  0  0  0  0  0  0
   41.8199   16.0198  -10.4580 C   0  0  0  0  0  0  0  0  0  0  0  0
   43.0454   15.5601  -10.0460 C   0  0  0  0  0  0  0  0  0  0  0  0
   44.0752   15.3411  -10.9404 C   0  0  0  0  0  0  0  0  0  0  0  0
   45.6127   14.7111  -10.4270 S   0  0  0  0  0  0  0  0  0  0  0  0
   46.7631   15.6340  -10.7054 O   0  0  0  0  0  0  0  0  0  0  0  0
   45.5399   14.6696   -8.8874 O   0  0  0  0  0  0  0  0  0  0  0  0
   45.8926   13.0500  -10.9162 C   0  0  0  0  0  0  0  0  0  0  0  0
   44.5609   12.2869  -10.9644 C   0  0  0  0  0  0  0  0  0  0  0  0
   46.7212   12.2911   -9.8729 C   0  0  0  0  0  0  0  0  0  0  0  0
 23 24  1  0  0  0
 24 10  1  0  0  0
 10 11  2  0  0  0
 11 12  1  0  0  0
 12 13  2  0  0  0
 13 14  1  0  0  0
 14 15  2  0  0  0
 15  8  1  0  0  0
  8  1  1  0  0  0
  1  2  2  0  0  0
  2  3  1  0  0  0
  3  4  2  0  0  0
  4  5  1  0  0  0
  4  6  1  0  0  0
  6 25  1  0  0  0
 25 27  1  0  0  0
 27 28  2  0  0  0
 28 29  1  0  0  0
 29 30  2  0  0  0
 30 31  1  0  0  0
 31 32  2  0  0  0
 32 33  1  0  0  0
 33 34  2  0  0  0
 33 35  2  0  0  0
 33 36  1  0  0  0
 36 37  1  0  0  0
 36 38  1  0  0  0
  6  7  2  0  0  0
 12 16  1  0  0  0
 16 17  1  0  0  0
 17 18  1  0  0  0
 18 19  1  0  0  0
 19 20  1  0  0  0
 19 21  1  0  0  0
 21 22  1  0  0  0
 15 10  1  0  0  0
  7  1  1  0  0  0
 22 16  1  0  0  0
 32 27  1  0  0  0
  8  9  1  0  0  0
 25 26  1  0  0  0
M  END
> <minimizedAffinity>
-8.08753

> <CNNscore>
0.2805541754

> <CNNaffinity>
7.3075180054

> <CNN_VS>
2.0501546860

> <CNNaffinity_variance>
0.0922369882

$$$$
[H]c1nc(N([H])c2c([H])c([H])c(N3C([H])([H])C([H])([H])N(C([H])([H])[H])C([H])([H])C3([H])[H])c([H])c2OC([H])([H])[H])nc(N([H])c2c([H])c([H])c([H])c([H])c2S(=O)(=O)C([H])(C([H])([H])[H])C([H])([H])[H])c1Cl


 38 41  0  0  0  0  0  0  0  0999 V2000
   44.0161   13.2363  -15.9584 C   0  0  0  0  0  0  0  0  0  0  0  0
   44.9242   12.2809  -15.7614 N   0  0  0  0  0  0  0  0  0  0  0  0
   46.0565   12.4183  -15.0854 C   0  0  0  0  0  0  0  0  0  0  0  0
   46.3416   13.6452  -14.5291 C   0  0  0  0  0  0  0  0  0  0  0  0
   47.8207   13.8965  -13.6234 Cl  0  0  0  0  0  0  0  0  0  0  0  0
   45.4286   14.7190  -14.6905 C   0  0  0  0  0  0  0  0  0  0  0  0
   44.3437   14.4350  -15.3873 N   0  0  0  0  0  0  0  0  0  0  0  0
   42.8022   13.1196  -16.6730 N   0  0  0  0  0  0  0  0  0  0  0  0
   42.9282   13.1177  -17.7468 H   0  0  0  0  0  0  0  0  0  0  0  0
   40.5482   12.2961  -16.8711 C   0  0  0  0  0  0  0  0  0  0  0  0
   39.2738   12.1727  -16.3782 C   0  0  0  0  0  0  0  0  0  0  0  0
   38.8615   12.7121  -15.1942 C   0  0  0  0  0  0  0  0  0  0  0  0
   39.8109   13.4166  -14.4787 C   0  0  0  0  0  0  0  0  0  0  0  0
   41.1168   13.5491  -14.9736 C   0  0  0  0  0  0  0  0  0  0  0  0
   41.5198   13.0121  -16.1476 C   0  0  0  0  0  0  0  0  0  0  0  0
   37.5420   12.5487  -14.7191 N   0  0  0  0  0  0  0  0  0  0  0  0
   37.2132   12.0201  -13.4021 C   0  0  0  0  0  0  0  0  0  0  0  0
   36.1524   12.8655  -12.7254 C   0  0  0  0  0  0  0  0  0  0  0  0
   35.1358   13.3516  -13.6021 N   0  0  0  0  0  0  0  0  0  0  0  0
   34.1355   12.3813  -13.9375 C   0  0  0  0  0  0  0  0  0  0  0  0
   35.6905   14.0176  -14.7817 C   0  0  0  0  0  0  0  0  0  0  0  0
   36.4101   12.8940  -15.5460 C   0  0  0  0  0  0  0  0  0  0  0  0
   39.8881   11.2024  -18.9222 C   0  0  0  0  0  0  0  0  0  0  0  0
   40.9013   11.7185  -18.0889 O   0  0  0  0  0  0  0  0  0  0  0  0
   45.7520   15.9548  -14.0840 N   0  0  0  0  0  0  0  0  0  0  0  0
   46.2531   16.6468  -14.7175 H   0  0  0  0  0  0  0  0  0  0  0  0
   45.4356   16.3064  -12.7630 C   0  0  0  0  0  0  0  0  0  0  0  0
   44.5770   15.6160  -11.9374 C   0  0  0  0  0  0  0  0  0  0  0  0
   44.2459   16.0494  -10.6417 C   0  0  0  0  0  0  0  0  0  0  0  0
   44.8209   17.2235  -10.2024 C   0  0  0  0  0  0  0  0  0  0  0  0
   45.6802   17.9309  -11.0050 C   0  0  0  0  0  0  0  0  0  0  0  0
   46.0034   17.5003  -12.2772 C   0  0  0  0  0  0  0  0  0  0  0  0
   47.1308   18.3687  -13.2768 S   0  0  0  0  0  0  0  0  0  0  0  0
   46.7402   18.4112  -14.7253 O   0  0  0  0  0  0  0  0  0  0  0  0
   47.0241   19.8390  -12.8247 O   0  0  0  0  0  0  0  0  0  0  0  0
   48.8052   17.9256  -12.9994 C   0  0  0  0  0  0  0  0  0  0  0  0
   49.3589   17.1796  -14.2220 C   0  0  0  0  0  0  0  0  0  0  0  0
   48.9344   16.9145  -11.8539 C   0  0  0  0  0  0  0  0  0  0  0  0
 23 24  1  0  0  0
 24 10  1  0  0  0
 10 11  2  0  0  0
 11 12  1  0  0  0
 12 13  2  0  0  0
 13 14  1  0  0  0
 14 15  2  0  0  0
 15  8  1  0  0  0
  8  1  1  0  0  0
  1  2  2  0  0  0
  2  3  1  0  0  0
  3  4  2  0  0  0
  4  5  1  0  0  0
  4  6  1  0  0  0
  6 25  1  0  0  0
 25 27  1  0  0  0
 27 28  2  0  0  0
 28 29  1  0  0  0
 29 30  2  0  0  0
 30 31  1  0  0  0
 31 32  2  0  0  0
 32 33  1  0  0  0
 33 34  2  0  0  0
 33 35  2  0  0  0
 33 36  1  0  0  0
 36 37  1  0  0  0
 36 38  1  0  0  0
  6  7  2  0  0  0
 12 16  1  0  0  0
 16 17  1  0  0  0
 17 18  1  0  0  0
 18 19  1  0  0  0
 19 20  1  0  0  0
 19 21  1  0  0  0
 21 22  1  0  0  0
 15 10  1  0  0  0
  7  1  1  0  0  0
 22 16  1  0  0  0
 32 27  1  0  0  0
  8  9  1  0  0  0
 25 26  1  0  0  0
M  END
> <minimizedAffinity>
-8.15668

> <CNNscore>
0.2238167822

> <CNNaffinity>
6.9580216408

> <CNN_VS>
1.5573220253

> <CNNaffinity_variance>
0.1428154409

$$$$
[H]c1nc(N([H])c2c([H])c([H])c(N3C([H])([H])C([H])([H])N(C([H])([H])[H])C([H])([H])C3([H])[H])c([H])c2OC([H])([H])[H])nc(N([H])c2c([H])c([H])c([H])c([H])c2S(=O)(=O)C([H])(C([H])([H])[H])C([H])([H])[H])c1Cl


 38 41  0  0  0  0  0  0  0  0999 V2000
   43.5167   12.8383  -16.1206 C   0  0  0  0  0  0  0  0  0  0  0  0
   44.7254   12.6040  -16.6308 N   0  0  0  0  0  0  0  0  0  0  0  0
   45.8802   12.8628  -16.0330 C   0  0  0  0  0  0  0  0  0  0  0  0
   45.8548   13.4225  -14.7752 C   0  0  0  0  0  0  0  0  0  0  0  0
   47.3440   13.7909  -13.9280 Cl  0  0  0  0  0  0  0  0  0  0  0  0
   44.6095   13.7052  -14.1571 C   0  0  0  0  0  0  0  0  0  0  0  0
   43.5436   13.3939  -14.8713 N   0  0  0  0  0  0  0  0  0  0  0  0
   42.2707   12.5735  -16.7330 N   0  0  0  0  0  0  0  0  0  0  0  0
   42.3490   12.2888  -17.7730 H   0  0  0  0  0  0  0  0  0  0  0  0
   39.9817   11.8294  -16.6593 C   0  0  0  0  0  0  0  0  0  0  0  0
   38.7281   11.8749  -16.1037 C   0  0  0  0  0  0  0  0  0  0  0  0
   38.3911   12.6789  -15.0535 C   0  0  0  0  0  0  0  0  0  0  0  0
   39.3975   13.4794  -14.5476 C   0  0  0  0  0  0  0  0  0  0  0  0
   40.6828   13.4410  -15.1083 C   0  0  0  0  0  0  0  0  0  0  0  0
   41.0111   12.6419  -16.1490 C   0  0  0  0  0  0  0  0  0  0  0  0
   37.0902   12.6835  -14.5048 N   0  0  0  0  0  0  0  0  0  0  0  0
   36.7540   12.1100  -13.2087 C   0  0  0  0  0  0  0  0  0  0  0  0
   35.8787   13.0526  -12.4067 C   0  0  0  0  0  0  0  0  0  0  0  0
   34.9057   13.7566  -13.1788 N   0  0  0  0  0  0  0  0  0  0  0  0
   33.7477   12.9810  -13.5137 C   0  0  0  0  0  0  0  0  0  0  0  0
   35.4938   14.4200  -14.3436 C   0  0  0  0  0  0  0  0  0  0  0  0
   35.9839   13.2626  -15.2294 C   0  0  0  0  0  0  0  0  0  0  0  0
   39.9407   11.4082  -19.0383 C   0  0  0  0  0  0  0  0  0  0  0  0
   40.2568   10.9835  -17.7317 O   0  0  0  0  0  0  0  0  0  0  0  0
   44.6310   14.2598  -12.8565 N   0  0  0  0  0  0  0  0  0  0  0  0
   44.5014   15.3148  -12.8175 H   0  0  0  0  0  0  0  0  0  0  0  0
   44.7793   13.5214  -11.6726 C   0  0  0  0  0  0  0  0  0  0  0  0
   45.4018   12.2979  -11.5682 C   0  0  0  0  0  0  0  0  0  0  0  0
   45.4657   11.5709  -10.3665 C   0  0  0  0  0  0  0  0  0  0  0  0
   44.8688   12.1316   -9.2568 C   0  0  0  0  0  0  0  0  0  0  0  0
   44.2420   13.3499   -9.3336 C   0  0  0  0  0  0  0  0  0  0  0  0
   44.1827   14.0610  -10.5164 C   0  0  0  0  0  0  0  0  0  0  0  0
   43.4327   15.6275  -10.6041 S   0  0  0  0  0  0  0  0  0  0  0  0
   43.3236   16.3163   -9.2751 O   0  0  0  0  0  0  0  0  0  0  0  0
   44.4231   16.5073  -11.3932 O   0  0  0  0  0  0  0  0  0  0  0  0
   41.9526   15.6486  -11.5452 C   0  0  0  0  0  0  0  0  0  0  0  0
   42.1021   16.6080  -12.7348 C   0  0  0  0  0  0  0  0  0  0  0  0
   40.7851   16.2307  -10.7395 C   0  0  0  0  0  0  0  0  0  0  0  0
 23 24  1  0  0  0
 24 10  1  0  0  0
 10 11  2  0  0  0
 11 12  1  0  0  0
 12 13  2  0  0  0
 13 14  1  0  0  0
 14 15  2  0  0  0
 15  8  1  0  0  0
  8  1  1  0  0  0
  1  2  2  0  0  0
  2  3  1  0  0  0
  3  4  2  0  0  0
  4  5  1  0  0  0
  4  6  1  0  0  0
  6 25  1  0  0  0
 25 27  1  0  0  0
 27 28  2  0  0  0
 28 29  1  0  0  0
 29 30  2  0  0  0
 30 31  1  0  0  0
 31 32  2  0  0  0
 32 33  1  0  0  0
 33 34  2  0  0  0
 33 35  2  0  0  0
 33 36  1  0  0  0
 36 37  1  0  0  0
 36 38  1  0  0  0
  6  7  2  0  0  0
 12 16  1  0  0  0
 16 17  1  0  0  0
 17 18  1  0  0  0
 18 19  1  0  0  0
 19 20  1  0  0  0
 19 21  1  0  0  0
 21 22  1  0  0  0
 15 10  1  0  0  0
  7  1  1  0  0  0
 22 16  1  0  0  0
 32 27  1  0  0  0
  8  9  1  0  0  0
 25 26  1  0  0  0
M  END
> <minimizedAffinity>
-7.66951

> <CNNscore>
0.1692913175

> <CNNaffinity>
7.0672645569

> <CNN_VS>
1.1964265108

> <CNNaffinity_variance>
0.1400325298

$$$$
[H]c1nc(N([H])c2c([H])c([H])c(N3C([H])([H])C([H])([H])N(C([H])([H])[H])C([H])([H])C3([H])[H])c([H])c2OC([H])([H])[H])nc(N([H])c2c([H])c([H])c([H])c([H])c2S(=O)(=O)C([H])(C([H])([H])[H])C([H])([H])[H])c1Cl


 38 41  0  0  0  0  0  0  0  0999 V2000
   43.8747   13.1587  -15.8559 C   0  0  0  0  0  0  0  0  0  0  0  0
   45.0973   12.8326  -16.2746 N   0  0  0  0  0  0  0  0  0  0  0  0
   46.2119   12.9413  -15.5648 C   0  0  0  0  0  0  0  0  0  0  0  0
   46.1248   13.4311  -14.2809 C   0  0  0  0  0  0  0  0  0  0  0  0
   47.5586   13.6013  -13.2876 Cl  0  0  0  0  0  0  0  0  0  0  0  0
   44.8607   13.8029  -13.7550 C   0  0  0  0  0  0  0  0  0  0  0  0
   43.8399   13.6396  -14.5762 N   0  0  0  0  0  0  0  0  0  0  0  0
   42.6704   13.0541  -16.5883 N   0  0  0  0  0  0  0  0  0  0  0  0
   42.8128   13.0405  -17.6599 H   0  0  0  0  0  0  0  0  0  0  0  0
   40.4316   12.1853  -16.7650 C   0  0  0  0  0  0  0  0  0  0  0  0
   39.1486   12.0837  -16.2896 C   0  0  0  0  0  0  0  0  0  0  0  0
   38.7045   12.7105  -15.1614 C   0  0  0  0  0  0  0  0  0  0  0  0
   39.6295   13.4835  -14.4860 C   0  0  0  0  0  0  0  0  0  0  0  0
   40.9439   13.5945  -14.9634 C   0  0  0  0  0  0  0  0  0  0  0  0
   41.3785   12.9708  -16.0820 C   0  0  0  0  0  0  0  0  0  0  0  0
   37.3773   12.5670  -14.7015 N   0  0  0  0  0  0  0  0  0  0  0  0
   37.0254   12.0394  -13.3901 C   0  0  0  0  0  0  0  0  0  0  0  0
   35.9710   12.8996  -12.7222 C   0  0  0  0  0  0  0  0  0  0  0  0
   34.9722   13.4051  -13.6084 N   0  0  0  0  0  0  0  0  0  0  0  0
   33.9601   12.4523  -13.9582 C   0  0  0  0  0  0  0  0  0  0  0  0
   35.5507   14.0659  -14.7794 C   0  0  0  0  0  0  0  0  0  0  0  0
   36.2604   12.9333  -15.5396 C   0  0  0  0  0  0  0  0  0  0  0  0
   39.8405   11.1962  -18.8889 C   0  0  0  0  0  0  0  0  0  0  0  0
   40.8179   11.5169  -17.9249 O   0  0  0  0  0  0  0  0  0  0  0  0
   44.8159   14.2806  -12.4248 N   0  0  0  0  0  0  0  0  0  0  0  0
   45.7276   14.1883  -11.8849 H   0  0  0  0  0  0  0  0  0  0  0  0
   43.6929   14.8665  -11.8212 C   0  0  0  0  0  0  0  0  0  0  0  0
   42.7664   15.6596  -12.4600 C   0  0  0  0  0  0  0  0  0  0  0  0
   41.6934   16.2746  -11.7914 C   0  0  0  0  0  0  0  0  0  0  0  0
   41.5878   16.0577  -10.4334 C   0  0  0  0  0  0  0  0  0  0  0  0
   42.4977   15.2714   -9.7725 C   0  0  0  0  0  0  0  0  0  0  0  0
   43.5498   14.6682  -10.4340 C   0  0  0  0  0  0  0  0  0  0  0  0
   44.6745   13.6310   -9.6074 S   0  0  0  0  0  0  0  0  0  0  0  0
   44.9027   12.3193  -10.3003 O   0  0  0  0  0  0  0  0  0  0  0  0
   46.0373   14.3443   -9.7143 O   0  0  0  0  0  0  0  0  0  0  0  0
   44.3673   13.4878   -7.8864 C   0  0  0  0  0  0  0  0  0  0  0  0
   45.3954   14.3144   -7.1004 C   0  0  0  0  0  0  0  0  0  0  0  0
   44.5879   12.0519   -7.3958 C   0  0  0  0  0  0  0  0  0  0  0  0
 23 24  1  0  0  0
 24 10  1  0  0  0
 10 11  2  0  0  0
 11 12  1  0  0  0
 12 13  2  0  0  0
 13 14  1  0  0  0
 14 15  2  0  0  0
 15  8  1  0  0  0
  8  1  1  0  0  0
  1  2  2  0  0  0
  2  3  1  0  0  0
  3  4  2  0  0  0
  4  5  1  0  0  0
  4  6  1  0  0  0
  6 25  1  0  0  0
 25 27  1  0  0  0
 27 28  2  0  0  0
 28 29  1  0  0  0
 29 30  2  0  0  0
 30 31  1  0  0  0
 31 32  2  0  0  0
 32 33  1  0  0  0
 33 34  2  0  0  0
 33 35  2  0  0  0
 33 36  1  0  0  0
 36 37  1  0  0  0
 36 38  1  0  0  0
  6  7  2  0  0  0
 12 16  1  0  0  0
 16 17  1  0  0  0
 17 18  1  0  0  0
 18 19  1  0  0  0
 19 20  1  0  0  0
 19 21  1  0  0  0
 21 22  1  0  0  0
 15 10  1  0  0  0
  7  1  1  0  0  0
 22 16  1  0  0  0
 32 27  1  0  0  0
  8  9  1  0  0  0
 25 26  1  0  0  0
M  END
> <minimizedAffinity>
-7.93476

> <CNNscore>
0.1631556749

> <CNNaffinity>
7.0565290451

> <CNN_VS>
1.1513127089

> <CNNaffinity_variance>
0.0930159539

$$$$
[H]c1nc(N([H])c2c([H])c([H])c(N3C([H])([H])C([H])([H])N(C([H])([H])[H])C([H])([H])C3([H])[H])c([H])c2OC([H])([H])[H])nc(N([H])c2c([H])c([H])c([H])c([H])c2S(=O)(=O)C([H])(C([H])([H])[H])C([H])([H])[H])c1Cl


 38 41  0  0  0  0  0  0  0  0999 V2000
   43.8198   13.5588  -15.0852 C   0  0  0  0  0  0  0  0  0  0  0  0
   44.5538   14.6539  -15.2808 N   0  0  0  0  0  0  0  0  0  0  0  0
   45.5649   15.0525  -14.5214 C   0  0  0  0  0  0  0  0  0  0  0  0
   45.9054   14.2855  -13.4298 C   0  0  0  0  0  0  0  0  0  0  0  0
   47.2308   14.7543  -12.3835 Cl  0  0  0  0  0  0  0  0  0  0  0  0
   45.1756   13.1020  -13.1476 C   0  0  0  0  0  0  0  0  0  0  0  0
   44.1961   12.8309  -13.9902 N   0  0  0  0  0  0  0  0  0  0  0  0
   42.7382   13.1091  -15.8762 N   0  0  0  0  0  0  0  0  0  0  0  0
   43.0396   12.6818  -16.8224 H   0  0  0  0  0  0  0  0  0  0  0  0
   40.4651   12.5357  -16.4259 C   0  0  0  0  0  0  0  0  0  0  0  0
   39.1226   12.5715  -16.1450 C   0  0  0  0  0  0  0  0  0  0  0  0
   38.5914   13.1927  -15.0519 C   0  0  0  0  0  0  0  0  0  0  0  0
   39.4890   13.8104  -14.2021 C   0  0  0  0  0  0  0  0  0  0  0  0
   40.8637   13.7800  -14.4800 C   0  0  0  0  0  0  0  0  0  0  0  0
   41.3846   13.1626  -15.5648 C   0  0  0  0  0  0  0  0  0  0  0  0
   37.2030   13.1933  -14.7954 N   0  0  0  0  0  0  0  0  0  0  0  0
   36.2030   12.7125  -15.7393 C   0  0  0  0  0  0  0  0  0  0  0  0
   35.1896   11.8196  -15.0511 C   0  0  0  0  0  0  0  0  0  0  0  0
   34.8235   12.2437  -13.7379 N   0  0  0  0  0  0  0  0  0  0  0  0
   33.8790   13.3216  -13.7102 C   0  0  0  0  0  0  0  0  0  0  0  0
   35.9895   12.4964  -12.8898 C   0  0  0  0  0  0  0  0  0  0  0  0
   36.6814   13.7011  -13.5487 C   0  0  0  0  0  0  0  0  0  0  0  0
   40.0257   11.5023  -18.5655 C   0  0  0  0  0  0  0  0  0  0  0  0
   40.9394   11.8821  -17.5614 O   0  0  0  0  0  0  0  0  0  0  0  0
   45.5739   12.3340  -12.0290 N   0  0  0  0  0  0  0  0  0  0  0  0
   46.3389   11.6215  -12.2246 H   0  0  0  0  0  0  0  0  0  0  0  0
   45.0559   12.4775  -10.7329 C   0  0  0  0  0  0  0  0  0  0  0  0
   43.9867   13.2718  -10.3844 C   0  0  0  0  0  0  0  0  0  0  0  0
   43.5491   13.4284   -9.0576 C   0  0  0  0  0  0  0  0  0  0  0  0
   44.2405   12.7445   -8.0797 C   0  0  0  0  0  0  0  0  0  0  0  0
   45.3096   11.9461   -8.4000 C   0  0  0  0  0  0  0  0  0  0  0  0
   45.7352   11.7944   -9.7054 C   0  0  0  0  0  0  0  0  0  0  0  0
   47.0580   10.7439  -10.1189 S   0  0  0  0  0  0  0  0  0  0  0  0
   46.7419    9.7909  -11.2344 O   0  0  0  0  0  0  0  0  0  0  0  0
   48.1364   11.6677  -10.7199 O   0  0  0  0  0  0  0  0  0  0  0  0
   47.8221    9.9927   -8.7301 C   0  0  0  0  0  0  0  0  0  0  0  0
   48.8285   10.9643   -8.0969 C   0  0  0  0  0  0  0  0  0  0  0  0
   48.6750    8.7876   -9.1440 C   0  0  0  0  0  0  0  0  0  0  0  0
 23 24  1  0  0  0
 24 10  1  0  0  0
 10 11  2  0  0  0
 11 12  1  0  0  0
 12 13  2  0  0  0
 13 14  1  0  0  0
 14 15  2  0  0  0
 15  8  1  0  0  0
  8  1  1  0  0  0
  1  2  2  0  0  0
  2  3  1  0  0  0
  3  4  2  0  0  0
  4  5  1  0  0  0
  4  6  1  0  0  0
  6 25  1  0  0  0
 25 27  1  0  0  0
 27 28  2  0  0  0
 28 29  1  0  0  0
 29 30  2  0  0  0
 30 31  1  0  0  0
 31 32  2  0  0  0
 32 33  1  0  0  0
 33 34  2  0  0  0
 33 35  2  0  0  0
 33 36  1  0  0  0
 36 37  1  0  0  0
 36 38  1  0  0  0
  6  7  2  0  0  0
 12 16  1  0  0  0
 16 17  1  0  0  0
 17 18  1  0  0  0
 18 19  1  0  0  0
 19 20  1  0  0  0
 19 21  1  0  0  0
 21 22  1  0  0  0
 15 10  1  0  0  0
  7  1  1  0  0  0
 22 16  1  0  0  0
 32 27  1  0  0  0
  8  9  1  0  0  0
 25 26  1  0  0  0
M  END
> <minimizedAffinity>
-7.51622

> <CNNscore>
0.0545873195

> <CNNaffinity>
6.6654481888

> <CNN_VS>
0.3638489544

> <CNNaffinity_variance>
0.0610242672

$$$$
[H]c1nc(N([H])c2c([H])c([H])c(N3C([H])([H])C([H])([H])N(C([H])([H])[H])C([H])([H])C3([H])[H])c([H])c2OC([H])([H])[H])nc(N([H])c2c([H])c([H])c([H])c([H])c2S(=O)(=O)C([H])(C([H])([H])[H])C([H])([H])[H])c1Cl


 38 41  0  0  0  0  0  0  0  0999 V2000
   39.6482   13.2253  -15.0622 C   0  0  0  0  0  0  0  0  0  0  0  0
   39.9925   12.5790  -16.1758 N   0  0  0  0  0  0  0  0  0  0  0  0
   41.2316   12.3889  -16.6074 C   0  0  0  0  0  0  0  0  0  0  0  0
   42.2703   12.8935  -15.8575 C   0  0  0  0  0  0  0  0  0  0  0  0
   43.9324   12.6789  -16.3699 Cl  0  0  0  0  0  0  0  0  0  0  0  0
   41.9932   13.5959  -14.6564 C   0  0  0  0  0  0  0  0  0  0  0  0
   40.7132   13.7073  -14.3525 N   0  0  0  0  0  0  0  0  0  0  0  0
   38.3386   13.4433  -14.5773 N   0  0  0  0  0  0  0  0  0  0  0  0
   37.5635   13.1109  -15.2538 H   0  0  0  0  0  0  0  0  0  0  0  0
   36.9380   13.4248  -12.6187 C   0  0  0  0  0  0  0  0  0  0  0  0
   36.5532   13.9703  -11.4201 C   0  0  0  0  0  0  0  0  0  0  0  0
   37.1182   15.0882  -10.8777 C   0  0  0  0  0  0  0  0  0  0  0  0
   38.1333   15.6768  -11.6074 C   0  0  0  0  0  0  0  0  0  0  0  0
   38.5345   15.1275  -12.8342 C   0  0  0  0  0  0  0  0  0  0  0  0
   37.9711   14.0192  -13.3668 C   0  0  0  0  0  0  0  0  0  0  0  0
   36.6987   15.6076   -9.6336 N   0  0  0  0  0  0  0  0  0  0  0  0
   37.3661   16.7043   -8.9453 C   0  0  0  0  0  0  0  0  0  0  0  0
   36.3617   17.7184   -8.4349 C   0  0  0  0  0  0  0  0  0  0  0  0
   35.1551   17.1504   -7.9250 N   0  0  0  0  0  0  0  0  0  0  0  0
   35.2718   16.6134   -6.6012 C   0  0  0  0  0  0  0  0  0  0  0  0
   34.5453   16.2062   -8.8627 C   0  0  0  0  0  0  0  0  0  0  0  0
   35.5570   15.0514   -8.9470 C   0  0  0  0  0  0  0  0  0  0  0  0
   34.9618   12.3460  -13.4958 C   0  0  0  0  0  0  0  0  0  0  0  0
   36.3172   12.2799  -13.1138 O   0  0  0  0  0  0  0  0  0  0  0  0
   43.0915   14.0779  -13.9074 N   0  0  0  0  0  0  0  0  0  0  0  0
   44.0440   13.9067  -14.3486 H   0  0  0  0  0  0  0  0  0  0  0  0
   42.9906   14.7614  -12.6862 C   0  0  0  0  0  0  0  0  0  0  0  0
   41.8724   15.4248  -12.2332 C   0  0  0  0  0  0  0  0  0  0  0  0
   41.8467   16.1487  -11.0283 C   0  0  0  0  0  0  0  0  0  0  0  0
   43.0085   16.1801  -10.2856 C   0  0  0  0  0  0  0  0  0  0  0  0
   44.1368   15.5273  -10.7141 C   0  0  0  0  0  0  0  0  0  0  0  0
   44.1569   14.8163  -11.8984 C   0  0  0  0  0  0  0  0  0  0  0  0
   45.5704   13.9470  -12.4183 S   0  0  0  0  0  0  0  0  0  0  0  0
   46.5961   13.7671  -11.3374 O   0  0  0  0  0  0  0  0  0  0  0  0
   45.0820   12.5125  -12.7030 O   0  0  0  0  0  0  0  0  0  0  0  0
   46.2277   14.5168  -13.9415 C   0  0  0  0  0  0  0  0  0  0  0  0
   47.0767   13.4142  -14.5905 C   0  0  0  0  0  0  0  0  0  0  0  0
   47.2135   15.6718  -13.7288 C   0  0  0  0  0  0  0  0  0  0  0  0
 23 24  1  0  0  0
 24 10  1  0  0  0
 10 11  2  0  0  0
 11 12  1  0  0  0
 12 13  2  0  0  0
 13 14  1  0  0  0
 14 15  2  0  0  0
 15  8  1  0  0  0
  8  1  1  0  0  0
  1  2  2  0  0  0
  2  3  1  0  0  0
  3  4  2  0  0  0
  4  5  1  0  0  0
  4  6  1  0  0  0
  6 25  1  0  0  0
 25 27  1  0  0  0
 27 28  2  0  0  0
 28 29  1  0  0  0
 29 30  2  0  0  0
 30 31  1  0  0  0
 31 32  2  0  0  0
 32 33  1  0  0  0
 33 34  2  0  0  0
 33 35  2  0  0  0
 33 36  1  0  0  0
 36 37  1  0  0  0
 36 38  1  0  0  0
  6  7  2  0  0  0
 12 16  1  0  0  0
 16 17  1  0  0  0
 17 18  1  0  0  0
 18 19  1  0  0  0
 19 20  1  0  0  0
 19 21  1  0  0  0
 21 22  1  0  0  0
 15 10  1  0  0  0
  7  1  1  0  0  0
 22 16  1  0  0  0
 32 27  1  0  0  0
  8  9  1  0  0  0
 25 26  1  0  0  0
M  END
> <minimizedAffinity>
-6.97841

> <CNNscore>
0.0374544337

> <CNNaffinity>
6.4498763084

> <CNN_VS>
0.2415764630

> <CNNaffinity_variance>
0.1905019134

$$$$
[H]c1nc(N([H])c2c([H])c([H])c(N3C([H])([H])C([H])([H])N(C([H])([H])[H])C([H])([H])C3([H])[H])c([H])c2OC([H])([H])[H])nc(N([H])c2c([H])c([H])c([H])c([H])c2S(=O)(=O)C([H])(C([H])([H])[H])C([H])([H])[H])c1Cl


 38 41  0  0  0  0  0  0  0  0999 V2000
   37.0476   13.5998  -14.3707 C   0  0  0  0  0  0  0  0  0  0  0  0
   35.7319   13.3876  -14.3838 N   0  0  0  0  0  0  0  0  0  0  0  0
   34.8526   13.9338  -13.5553 C   0  0  0  0  0  0  0  0  0  0  0  0
   35.3142   14.7987  -12.5886 C   0  0  0  0  0  0  0  0  0  0  0  0
   34.2069   15.5555  -11.4605 Cl  0  0  0  0  0  0  0  0  0  0  0  0
   36.7019   15.0812  -12.5033 C   0  0  0  0  0  0  0  0  0  0  0  0
   37.4570   14.4650  -13.3940 N   0  0  0  0  0  0  0  0  0  0  0  0
   38.0078   13.0330  -15.2394 N   0  0  0  0  0  0  0  0  0  0  0  0
   37.5774   12.4588  -16.0480 H   0  0  0  0  0  0  0  0  0  0  0  0
   40.1778   12.6056  -16.1915 C   0  0  0  0  0  0  0  0  0  0  0  0
   41.5456   12.6961  -16.1358 C   0  0  0  0  0  0  0  0  0  0  0  0
   42.2269   13.2883  -15.1121 C   0  0  0  0  0  0  0  0  0  0  0  0
   41.4602   13.8155  -14.0904 C   0  0  0  0  0  0  0  0  0  0  0  0
   40.0609   13.7282  -14.1371 C   0  0  0  0  0  0  0  0  0  0  0  0
   39.3911   13.1403  -15.1545 C   0  0  0  0  0  0  0  0  0  0  0  0
   43.6364   13.3703  -15.1027 N   0  0  0  0  0  0  0  0  0  0  0  0
   44.4324   13.5236  -13.8924 C   0  0  0  0  0  0  0  0  0  0  0  0
   45.6110   12.5703  -13.8915 C   0  0  0  0  0  0  0  0  0  0  0  0
   46.2296   12.3940  -15.1662 N   0  0  0  0  0  0  0  0  0  0  0  0
   47.1059   13.4624  -15.5472 C   0  0  0  0  0  0  0  0  0  0  0  0
   45.2619   12.0605  -16.2126 C   0  0  0  0  0  0  0  0  0  0  0  0
   44.3884   13.3202  -16.3340 C   0  0  0  0  0  0  0  0  0  0  0  0
   40.3261   11.5401  -18.3551 C   0  0  0  0  0  0  0  0  0  0  0  0
   39.5468   11.9866  -17.2686 O   0  0  0  0  0  0  0  0  0  0  0  0
   37.1285   15.9917  -11.5090 N   0  0  0  0  0  0  0  0  0  0  0  0
   36.3910   16.6917  -11.1969 H   0  0  0  0  0  0  0  0  0  0  0  0
   38.4034   15.9992  -10.9231 C   0  0  0  0  0  0  0  0  0  0  0  0
   39.5887   16.1992  -11.5942 C   0  0  0  0  0  0  0  0  0  0  0  0
   40.8451   16.1326  -10.9668 C   0  0  0  0  0  0  0  0  0  0  0  0
   40.8625   15.8517   -9.6166 C   0  0  0  0  0  0  0  0  0  0  0  0
   39.6956   15.6485   -8.9239 C   0  0  0  0  0  0  0  0  0  0  0  0
   38.4633   15.7160   -9.5446 C   0  0  0  0  0  0  0  0  0  0  0  0
   36.9813   15.5084   -8.6586 S   0  0  0  0  0  0  0  0  0  0  0  0
   35.9707   16.5874   -8.9175 O   0  0  0  0  0  0  0  0  0  0  0  0
   36.3283   14.2440   -9.2521 O   0  0  0  0  0  0  0  0  0  0  0  0
   37.2211   15.1445   -6.9595 C   0  0  0  0  0  0  0  0  0  0  0  0
   37.3482   13.6270   -6.7619 C   0  0  0  0  0  0  0  0  0  0  0  0
   35.9929   15.5288   -6.1259 C   0  0  0  0  0  0  0  0  0  0  0  0
 23 24  1  0  0  0
 24 10  1  0  0  0
 10 11  2  0  0  0
 11 12  1  0  0  0
 12 13  2  0  0  0
 13 14  1  0  0  0
 14 15  2  0  0  0
 15  8  1  0  0  0
  8  1  1  0  0  0
  1  2  2  0  0  0
  2  3  1  0  0  0
  3  4  2  0  0  0
  4  5  1  0  0  0
  4  6  1  0  0  0
  6 25  1  0  0  0
 25 27  1  0  0  0
 27 28  2  0  0  0
 28 29  1  0  0  0
 29 30  2  0  0  0
 30 31  1  0  0  0
 31 32  2  0  0  0
 32 33  1  0  0  0
 33 34  2  0  0  0
 33 35  2  0  0  0
 33 36  1  0  0  0
 36 37  1  0  0  0
 36 38  1  0  0  0
  6  7  2  0  0  0
 12 16  1  0  0  0
 16 17  1  0  0  0
 17 18  1  0  0  0
 18 19  1  0  0  0
 19 20  1  0  0  0
 19 21  1  0  0  0
 21 22  1  0  0  0
 15 10  1  0  0  0
  7  1  1  0  0  0
 22 16  1  0  0  0
 32 27  1  0  0  0
  8  9  1  0  0  0
 25 26  1  0  0  0
M  END
> <minimizedAffinity>
-8.35213

> <CNNscore>
0.0318777114

> <CNNaffinity>
6.1570158005

> <CNN_VS>
0.1962715685

> <CNNaffinity_variance>
0.7402557731

$$$$
[H]c1nc(N([H])c2c([H])c([H])c(N3C([H])([H])C([H])([H])N(C([H])([H])[H])C([H])([H])C3([H])[H])c([H])c2OC([H])([H])[H])nc(N([H])c2c([H])c([H])c([H])c([H])c2S(=O)(=O)C([H])(C([H])([H])[H])C([H])([H])[H])c1Cl


 38 41  0  0  0  0  0  0  0  0999 V2000
   43.9263   13.8455  -14.9309 C   0  0  0  0  0  0  0  0  0  0  0  0
   44.8401   14.7567  -15.2639 N   0  0  0  0  0  0  0  0  0  0  0  0
   45.8104   15.2017  -14.4775 C   0  0  0  0  0  0  0  0  0  0  0  0
   45.9028   14.6936  -13.2011 C   0  0  0  0  0  0  0  0  0  0  0  0
   47.1606   15.2379  -12.1088 Cl  0  0  0  0  0  0  0  0  0  0  0  0
   44.9697   13.7185  -12.7637 C   0  0  0  0  0  0  0  0  0  0  0  0
   44.0596   13.3714  -13.6550 N   0  0  0  0  0  0  0  0  0  0  0  0
   42.8824   13.3524  -15.7462 N   0  0  0  0  0  0  0  0  0  0  0  0
   43.2048   13.0594  -16.7357 H   0  0  0  0  0  0  0  0  0  0  0  0
   40.6956   12.4918  -16.2712 C   0  0  0  0  0  0  0  0  0  0  0  0
   39.3668   12.3396  -15.9658 C   0  0  0  0  0  0  0  0  0  0  0  0
   38.7802   12.8564  -14.8469 C   0  0  0  0  0  0  0  0  0  0  0  0
   39.6046   13.5684  -13.9966 C   0  0  0  0  0  0  0  0  0  0  0  0
   40.9648   13.7303  -14.2994 C   0  0  0  0  0  0  0  0  0  0  0  0
   41.5407   13.2155  -15.4097 C   0  0  0  0  0  0  0  0  0  0  0  0
   37.4101   12.6637  -14.5660 N   0  0  0  0  0  0  0  0  0  0  0  0
   36.9092   12.0855  -13.3263 C   0  0  0  0  0  0  0  0  0  0  0  0
   35.7528   12.8961  -12.7756 C   0  0  0  0  0  0  0  0  0  0  0  0
   34.8608   13.4034  -13.7683 N   0  0  0  0  0  0  0  0  0  0  0  0
   33.9308   12.4362  -14.2724 C   0  0  0  0  0  0  0  0  0  0  0  0
   35.5643   14.1162  -14.8359 C   0  0  0  0  0  0  0  0  0  0  0  0
   36.3991   13.0274  -15.5302 C   0  0  0  0  0  0  0  0  0  0  0  0
   40.3662   11.2968  -18.3454 C   0  0  0  0  0  0  0  0  0  0  0  0
   41.2292   11.9362  -17.4322 O   0  0  0  0  0  0  0  0  0  0  0  0
   45.1157   13.2090  -11.4527 N   0  0  0  0  0  0  0  0  0  0  0  0
   44.6678   13.8000  -10.6903 H   0  0  0  0  0  0  0  0  0  0  0  0
   45.7651   12.0086  -11.1271 C   0  0  0  0  0  0  0  0  0  0  0  0
   46.4066   11.1807  -12.0208 C   0  0  0  0  0  0  0  0  0  0  0  0
   46.9865    9.9551  -11.6492 C   0  0  0  0  0  0  0  0  0  0  0  0
   46.8939    9.5890  -10.3228 C   0  0  0  0  0  0  0  0  0  0  0  0
   46.2603   10.3959   -9.4115 C   0  0  0  0  0  0  0  0  0  0  0  0
   45.6928   11.5999   -9.7812 C   0  0  0  0  0  0  0  0  0  0  0  0
   44.9335   12.6471   -8.6189 S   0  0  0  0  0  0  0  0  0  0  0  0
   45.5525   14.0125   -8.5462 O   0  0  0  0  0  0  0  0  0  0  0  0
   43.5207   12.9140   -9.1760 O   0  0  0  0  0  0  0  0  0  0  0  0
   44.6738   11.8945   -7.0559 C   0  0  0  0  0  0  0  0  0  0  0  0
   43.2646   12.2251   -6.5432 C   0  0  0  0  0  0  0  0  0  0  0  0
   45.6070   12.4811   -5.9900 C   0  0  0  0  0  0  0  0  0  0  0  0
 23 24  1  0  0  0
 24 10  1  0  0  0
 10 11  2  0  0  0
 11 12  1  0  0  0
 12 13  2  0  0  0
 13 14  1  0  0  0
 14 15  2  0  0  0
 15  8  1  0  0  0
  8  1  1  0  0  0
  1  2  2  0  0  0
  2  3  1  0  0  0
  3  4  2  0  0  0
  4  5  1  0  0  0
  4  6  1  0  0  0
  6 25  1  0  0  0
 25 27  1  0  0  0
 27 28  2  0  0  0
 28 29  1  0  0  0
 29 30  2  0  0  0
 30 31  1  0  0  0
 31 32  2  0  0  0
 32 33  1  0  0  0
 33 34  2  0  0  0
 33 35  2  0  0  0
 33 36  1  0  0  0
 36 37  1  0  0  0
 36 38  1  0  0  0
  6  7  2  0  0  0
 12 16  1  0  0  0
 16 17  1  0  0  0
 17 18  1  0  0  0
 18 19  1  0  0  0
 19 20  1  0  0  0
 19 21  1  0  0  0
 21 22  1  0  0  0
 15 10  1  0  0  0
  7  1  1  0  0  0
 22 16  1  0  0  0
 32 27  1  0  0  0
  8  9  1  0  0  0
 25 26  1  0  0  0
M  END
> <minimizedAffinity>
-7.61339

> <CNNscore>
0.0297846496

> <CNNaffinity>
6.5274162292

> <CNN_VS>
0.1944168061

> <CNNaffinity_variance>
0.0936978906

$$$$
[H]O[C@]1([H])C([H])([H])C([H])([H])[C@@]([H])(N([H])C(=O)c2c(C([H])([H])[H])c(/C([H])=C3\C(=O)N([H])c4c([H])c([H])c(F)c([H])c43)n([H])c2C([H])([H])[H])C([H])([H])C1([H])[H]


 33 36  0  0  0  0  0  0  0  0999 V2000
   44.8723   12.3067  -17.1957 C   0  0  0  0  0  0  0  0  0  0  0  0
   43.7351   12.7081  -16.3199 C   0  0  0  0  0  0  0  0  0  0  0  0
   42.4353   12.3455  -16.5166 N   0  0  0  0  0  0  0  0  0  0  0  0
   41.6565   12.8613  -15.5525 C   0  0  0  0  0  0  0  0  0  0  0  0
   42.5017   13.5707  -14.7289 C   0  0  0  0  0  0  0  0  0  0  0  0
   42.1095   14.3774  -13.5209 C   0  0  0  0  0  0  0  0  0  0  0  0
   43.8101   13.4896  -15.1878 C   0  0  0  0  0  0  0  0  0  0  0  0
   42.1048   11.7473  -17.3116 H   0  0  0  0  0  0  0  0  0  0  0  0
   40.2074   12.7351  -15.4585 C   0  0  0  0  0  0  0  0  0  0  0  0
   39.4583   12.1246  -16.3448 C   0  0  0  0  0  0  0  0  0  0  0  0
   39.9130   11.4824  -17.5596 C   0  0  0  0  0  0  0  0  0  0  0  0
   41.0738   11.4036  -18.0117 O   0  0  0  0  0  0  0  0  0  0  0  0
   38.7558   10.9332  -18.1814 N   0  0  0  0  0  0  0  0  0  0  0  0
   37.6047   11.2253  -17.3767 C   0  0  0  0  0  0  0  0  0  0  0  0
   36.2521   10.9309  -17.5175 C   0  0  0  0  0  0  0  0  0  0  0  0
   35.3357   11.3395  -16.5815 C   0  0  0  0  0  0  0  0  0  0  0  0
   35.7133   12.0580  -15.4630 C   0  0  0  0  0  0  0  0  0  0  0  0
   34.7832   12.4609  -14.5351 F   0  0  0  0  0  0  0  0  0  0  0  0
   37.0510   12.3474  -15.3271 C   0  0  0  0  0  0  0  0  0  0  0  0
   37.9860   11.9415  -16.2628 C   0  0  0  0  0  0  0  0  0  0  0  0
   38.6818   10.3954  -19.0723 H   0  0  0  0  0  0  0  0  0  0  0  0
   44.9461   14.1372  -14.5567 C   0  0  0  0  0  0  0  0  0  0  0  0
   45.4096   13.6041  -13.4780 O   0  0  0  0  0  0  0  0  0  0  0  0
   45.5986   15.2784  -14.9846 N   0  0  0  0  0  0  0  0  0  0  0  0
   45.3370   15.8132  -15.8159 H   0  0  0  0  0  0  0  0  0  0  0  0
   46.7464   15.8155  -14.2369 C   0  0  0  0  0  0  0  0  0  0  0  0
   47.9680   15.2782  -14.9190 C   0  0  0  0  0  0  0  0  0  0  0  0
   49.2655   15.7494  -14.3498 C   0  0  0  0  0  0  0  0  0  0  0  0
   49.0840   17.0426  -13.6031 C   0  0  0  0  0  0  0  0  0  0  0  0
   48.6321   16.7856  -12.3129 O   0  0  0  0  0  0  0  0  0  0  0  0
   48.0579   17.9120  -14.2927 C   0  0  0  0  0  0  0  0  0  0  0  0
   46.6839   17.3328  -14.3065 C   0  0  0  0  0  0  0  0  0  0  0  0
   48.6768   17.5882  -11.7294 H   0  0  0  0  0  0  0  0  0  0  0  0
  1  2  1  0  0  0
  2  3  1  0  0  0
  3  4  1  0  0  0
  4  9  1  0  0  0
  9 10  2  0  0  0
 10 11  1  0  0  0
 11 12  2  0  0  0
 11 13  1  0  0  0
 13 14  1  0  0  0
 14 15  2  0  0  0
 15 16  1  0  0  0
 16 17  2  0  0  0
 17 18  1  0  0  0
 17 19  1  0  0  0
 19 20  2  0  0  0
  4  5  2  0  0  0
  5  6  1  0  0  0
  5  7  1  0  0  0
  7 22  1  0  0  0
 22 23  2  0  0  0
 22 24  1  0  0  0
 24 26  1  0  0  0
 26 27  1  0  0  0
 27 28  1  0  0  0
 28 29  1  0  0  0
 29 30  1  0  0  0
 29 31  1  0  0  0
 31 32  1  0  0  0
  7  2  2  0  0  0
 32 26  1  0  0  0
 20 10  1  0  0  0
 20 14  1  0  0  0
  3  8  1  0  0  0
 13 21  1  0  0  0
 24 25  1  0  0  0
 30 33  1  0  0  0
M  END
> <minimizedAffinity>
-9.49094

> <CNNscore>
0.8008188605

> <CNNaffinity>
6.7386121750

> <CNN_VS>
5.3964076042

> <CNNaffinity_variance>
0.3191578984

$$$$
[H]O[C@]1([H])C([H])([H])C([H])([H])[C@@]([H])(N([H])C(=O)c2c(C([H])([H])[H])c(/C([H])=C3\C(=O)N([H])c4c([H])c([H])c(F)c([H])c43)n([H])c2C([H])([H])[H])C([H])([H])C1([H])[H]


 33 36  0  0  0  0  0  0  0  0999 V2000
   39.4214   16.2658  -10.0227 C   0  0  0  0  0  0  0  0  0  0  0  0
   39.4153   15.3124   -8.8771 C   0  0  0  0  0  0  0  0  0  0  0  0
   40.3958   14.4009   -8.6176 N   0  0  0  0  0  0  0  0  0  0  0  0
   40.0988   13.6985   -7.5128 C   0  0  0  0  0  0  0  0  0  0  0  0
   38.8905   14.1895   -7.0715 C   0  0  0  0  0  0  0  0  0  0  0  0
   38.1019   13.7007   -5.8869 C   0  0  0  0  0  0  0  0  0  0  0  0
   38.4414   15.2023   -7.9089 C   0  0  0  0  0  0  0  0  0  0  0  0
   41.2553   14.2774   -9.2051 H   0  0  0  0  0  0  0  0  0  0  0  0
   40.8807   12.6020   -6.9552 C   0  0  0  0  0  0  0  0  0  0  0  0
   41.8913   12.7559   -6.1340 C   0  0  0  0  0  0  0  0  0  0  0  0
   42.4167   14.0116   -5.6422 C   0  0  0  0  0  0  0  0  0  0  0  0
   42.0429   15.1716   -5.9121 O   0  0  0  0  0  0  0  0  0  0  0  0
   43.4844   13.6826   -4.7596 N   0  0  0  0  0  0  0  0  0  0  0  0
   43.6252   12.2562   -4.7011 C   0  0  0  0  0  0  0  0  0  0  0  0
   44.4943   11.4185   -4.0090 C   0  0  0  0  0  0  0  0  0  0  0  0
   44.4156   10.0544   -4.1344 C   0  0  0  0  0  0  0  0  0  0  0  0
   43.4744    9.4547   -4.9495 C   0  0  0  0  0  0  0  0  0  0  0  0
   43.4089    8.0869   -5.0652 F   0  0  0  0  0  0  0  0  0  0  0  0
   42.6169   10.2856   -5.6321 C   0  0  0  0  0  0  0  0  0  0  0  0
   42.6848   11.6626   -5.5150 C   0  0  0  0  0  0  0  0  0  0  0  0
   44.1035   14.3192   -4.2120 H   0  0  0  0  0  0  0  0  0  0  0  0
   37.1924   15.9222   -7.7348 C   0  0  0  0  0  0  0  0  0  0  0  0
   36.1701   15.5077   -8.4022 O   0  0  0  0  0  0  0  0  0  0  0  0
   36.9688   17.0192   -6.9237 N   0  0  0  0  0  0  0  0  0  0  0  0
   37.6859   17.4628   -6.3453 H   0  0  0  0  0  0  0  0  0  0  0  0
   35.6375   17.6412   -6.8475 C   0  0  0  0  0  0  0  0  0  0  0  0
   35.3095   17.7307   -5.3878 C   0  0  0  0  0  0  0  0  0  0  0  0
   34.0076   18.3913   -5.0745 C   0  0  0  0  0  0  0  0  0  0  0  0
   33.5774   19.2882   -6.2029 C   0  0  0  0  0  0  0  0  0  0  0  0
   32.9400   18.5396   -7.1868 O   0  0  0  0  0  0  0  0  0  0  0  0
   34.7767   19.9601   -6.8311 C   0  0  0  0  0  0  0  0  0  0  0  0
   35.7240   19.0159   -7.4906 C   0  0  0  0  0  0  0  0  0  0  0  0
   32.4781   19.1096   -7.8563 H   0  0  0  0  0  0  0  0  0  0  0  0
  1  2  1  0  0  0
  2  3  1  0  0  0
  3  4  1  0  0  0
  4  9  1  0  0  0
  9 10  2  0  0  0
 10 11  1  0  0  0
 11 12  2  0  0  0
 11 13  1  0  0  0
 13 14  1  0  0  0
 14 15  2  0  0  0
 15 16  1  0  0  0
 16 17  2  0  0  0
 17 18  1  0  0  0
 17 19  1  0  0  0
 19 20  2  0  0  0
  4  5  2  0  0  0
  5  6  1  0  0  0
  5  7  1  0  0  0
  7 22  1  0  0  0
 22 23  2  0  0  0
 22 24  1  0  0  0
 24 26  1  0  0  0
 26 27  1  0  0  0
 27 28  1  0  0  0
 28 29  1  0  0  0
 29 30  1  0  0  0
 29 31  1  0  0  0
 31 32  1  0  0  0
  7  2  2  0  0  0
 32 26  1  0  0  0
 20 10  1  0  0  0
 20 14  1  0  0  0
  3  8  1  0  0  0
 13 21  1  0  0  0
 24 25  1  0  0  0
 30 33  1  0  0  0
M  END
> <minimizedAffinity>
-6.21635

> <CNNscore>
0.4194650650

> <CNNaffinity>
4.9738245010

> <CNN_VS>
2.0863456726

> <CNNaffinity_variance>
0.7986685038

$$$$
[H]O[C@]1([H])C([H])([H])C([H])([H])[C@@]([H])(N([H])C(=O)c2c(C([H])([H])[H])c(/C([H])=C3\C(=O)N([H])c4c([H])c([H])c(F)c([H])c43)n([H])c2C([H])([H])[H])C([H])([H])C1([H])[H]


 33 36  0  0  0  0  0  0  0  0999 V2000
   36.7492   14.3553  -10.3512 C   0  0  0  0  0  0  0  0  0  0  0  0
   36.0103   14.9083   -9.1808 C   0  0  0  0  0  0  0  0  0  0  0  0
   34.9191   15.7219   -9.2628 N   0  0  0  0  0  0  0  0  0  0  0  0
   34.4821   16.0408   -8.0342 C   0  0  0  0  0  0  0  0  0  0  0  0
   35.3328   15.4046   -7.1582 C   0  0  0  0  0  0  0  0  0  0  0  0
   35.2965   15.4823   -5.6560 C   0  0  0  0  0  0  0  0  0  0  0  0
   36.2989   14.6875   -7.8519 C   0  0  0  0  0  0  0  0  0  0  0  0
   34.4913   16.0441  -10.1641 H   0  0  0  0  0  0  0  0  0  0  0  0
   33.3727   16.9329   -7.7211 C   0  0  0  0  0  0  0  0  0  0  0  0
   32.2177   16.5383   -7.2419 C   0  0  0  0  0  0  0  0  0  0  0  0
   31.8289   15.1757   -6.9468 C   0  0  0  0  0  0  0  0  0  0  0  0
   32.4849   14.1261   -7.1083 O   0  0  0  0  0  0  0  0  0  0  0  0
   30.5079   15.2397   -6.4196 N   0  0  0  0  0  0  0  0  0  0  0  0
   30.0793   16.6084   -6.3865 C   0  0  0  0  0  0  0  0  0  0  0  0
   28.8999   17.2211   -5.9747 C   0  0  0  0  0  0  0  0  0  0  0  0
   28.7426   18.5820   -6.0522 C   0  0  0  0  0  0  0  0  0  0  0  0
   29.7434   19.4006   -6.5403 C   0  0  0  0  0  0  0  0  0  0  0  0
   29.5701   20.7619   -6.6125 F   0  0  0  0  0  0  0  0  0  0  0  0
   30.9078   18.7916   -6.9465 C   0  0  0  0  0  0  0  0  0  0  0  0
   31.0802   17.4207   -6.8737 C   0  0  0  0  0  0  0  0  0  0  0  0
   29.8938   14.4631   -6.0909 H   0  0  0  0  0  0  0  0  0  0  0  0
   37.3580   13.9150   -7.2277 C   0  0  0  0  0  0  0  0  0  0  0  0
   37.0467   12.7589   -6.7490 O   0  0  0  0  0  0  0  0  0  0  0  0
   38.6833   14.2815   -7.0837 N   0  0  0  0  0  0  0  0  0  0  0  0
   39.0722   15.1710   -7.4048 H   0  0  0  0  0  0  0  0  0  0  0  0
   39.6468   13.3830   -6.4287 C   0  0  0  0  0  0  0  0  0  0  0  0
   40.5324   12.8646   -7.5212 C   0  0  0  0  0  0  0  0  0  0  0  0
   41.6335   11.9650   -7.0654 C   0  0  0  0  0  0  0  0  0  0  0  0
   41.9519   12.2016   -5.6144 C   0  0  0  0  0  0  0  0  0  0  0  0
   41.0644   11.4918   -4.8124 O   0  0  0  0  0  0  0  0  0  0  0  0
   41.8165   13.6684   -5.2757 C   0  0  0  0  0  0  0  0  0  0  0  0
   40.4279   14.1953   -5.4084 C   0  0  0  0  0  0  0  0  0  0  0  0
   41.3494   11.4685   -3.8612 H   0  0  0  0  0  0  0  0  0  0  0  0
  1  2  1  0  0  0
  2  3  1  0  0  0
  3  4  1  0  0  0
  4  9  1  0  0  0
  9 10  2  0  0  0
 10 11  1  0  0  0
 11 12  2  0  0  0
 11 13  1  0  0  0
 13 14  1  0  0  0
 14 15  2  0  0  0
 15 16  1  0  0  0
 16 17  2  0  0  0
 17 18  1  0  0  0
 17 19  1  0  0  0
 19 20  2  0  0  0
  4  5  2  0  0  0
  5  6  1  0  0  0
  5  7  1  0  0  0
  7 22  1  0  0  0
 22 23  2  0  0  0
 22 24  1  0  0  0
 24 26  1  0  0  0
 26 27  1  0  0  0
 27 28  1  0  0  0
 28 29  1  0  0  0
 29 30  1  0  0  0
 29 31  1  0  0  0
 31 32  1  0  0  0
  7  2  2  0  0  0
 32 26  1  0  0  0
 20 10  1  0  0  0
 20 14  1  0  0  0
  3  8  1  0  0  0
 13 21  1  0  0  0
 24 25  1  0  0  0
 30 33  1  0  0  0
M  END
> <minimizedAffinity>
-7.01157

> <CNNscore>
0.3591102660

> <CNNaffinity>
5.1552557945

> <CNN_VS>
1.8513052464

> <CNNaffinity_variance>
0.1784069389

$$$$
[H]O[C@]1([H])C([H])([H])C([H])([H])[C@@]([H])(N([H])C(=O)c2c(C([H])([H])[H])c(/C([H])=C3\C(=O)N([H])c4c([H])c([H])c(F)c([H])c43)n([H])c2C([H])([H])[H])C([H])([H])C1([H])[H]


 33 36  0  0  0  0  0  0  0  0999 V2000
   35.6391   11.5059  -15.9477 C   0  0  0  0  0  0  0  0  0  0  0  0
   36.7130   12.3384  -15.3351 C   0  0  0  0  0  0  0  0  0  0  0  0
   38.0502   12.1133  -15.4792 N   0  0  0  0  0  0  0  0  0  0  0  0
   38.7537   13.0415  -14.8116 C   0  0  0  0  0  0  0  0  0  0  0  0
   37.8209   13.8714  -14.2310 C   0  0  0  0  0  0  0  0  0  0  0  0
   38.1002   15.0472  -13.3348 C   0  0  0  0  0  0  0  0  0  0  0  0
   36.5344   13.4525  -14.5446 C   0  0  0  0  0  0  0  0  0  0  0  0
   38.4577   11.3241  -16.0361 H   0  0  0  0  0  0  0  0  0  0  0  0
   40.2051   13.0967  -14.6892 C   0  0  0  0  0  0  0  0  0  0  0  0
   41.0418   12.7612  -15.6415 C   0  0  0  0  0  0  0  0  0  0  0  0
   40.6948   12.2764  -16.9603 C   0  0  0  0  0  0  0  0  0  0  0  0
   39.5618   12.0599  -17.4375 O   0  0  0  0  0  0  0  0  0  0  0  0
   41.9235   12.0762  -17.6513 N   0  0  0  0  0  0  0  0  0  0  0  0
   43.0132   12.4256  -16.7862 C   0  0  0  0  0  0  0  0  0  0  0  0
   44.3946   12.4160  -16.9529 C   0  0  0  0  0  0  0  0  0  0  0  0
   45.2343   12.8068  -15.9405 C   0  0  0  0  0  0  0  0  0  0  0  0
   44.7480   13.2252  -14.7164 C   0  0  0  0  0  0  0  0  0  0  0  0
   45.6022   13.6126  -13.7120 F   0  0  0  0  0  0  0  0  0  0  0  0
   43.3822   13.2334  -14.5550 C   0  0  0  0  0  0  0  0  0  0  0  0
   42.5237   12.8422  -15.5672 C   0  0  0  0  0  0  0  0  0  0  0  0
   42.0815   11.7360  -18.6247 H   0  0  0  0  0  0  0  0  0  0  0  0
   35.3208   14.0999  -14.0794 C   0  0  0  0  0  0  0  0  0  0  0  0
   34.5526   14.6305  -14.9687 O   0  0  0  0  0  0  0  0  0  0  0  0
   34.8868   14.2163  -12.7720 N   0  0  0  0  0  0  0  0  0  0  0  0
   35.3956   13.8539  -11.9625 H   0  0  0  0  0  0  0  0  0  0  0  0
   33.6233   14.9007  -12.4555 C   0  0  0  0  0  0  0  0  0  0  0  0
   32.5782   13.8278  -12.4004 C   0  0  0  0  0  0  0  0  0  0  0  0
   31.2101   14.2999  -12.0332 C   0  0  0  0  0  0  0  0  0  0  0  0
   31.2767   15.6024  -11.2838 C   0  0  0  0  0  0  0  0  0  0  0  0
   31.3815   16.6606  -12.1805 O   0  0  0  0  0  0  0  0  0  0  0  0
   32.4895   15.6325  -10.3824 C   0  0  0  0  0  0  0  0  0  0  0  0
   33.7888   15.5951  -11.1133 C   0  0  0  0  0  0  0  0  0  0  0  0
   31.2411   17.5418  -11.7442 H   0  0  0  0  0  0  0  0  0  0  0  0
  1  2  1  0  0  0
  2  3  1  0  0  0
  3  4  1  0  0  0
  4  9  1  0  0  0
  9 10  2  0  0  0
 10 11  1  0  0  0
 11 12  2  0  0  0
 11 13  1  0  0  0
 13 14  1  0  0  0
 14 15  2  0  0  0
 15 16  1  0  0  0
 16 17  2  0  0  0
 17 18  1  0  0  0
 17 19  1  0  0  0
 19 20  2  0  0  0
  4  5  2  0  0  0
  5  6  1  0  0  0
  5  7  1  0  0  0
  7 22  1  0  0  0
 22 23  2  0  0  0
 22 24  1  0  0  0
 24 26  1  0  0  0
 26 27  1  0  0  0
 27 28  1  0  0  0
 28 29  1  0  0  0
 29 30  1  0  0  0
 29 31  1  0  0  0
 31 32  1  0  0  0
  7  2  2  0  0  0
 32 26  1  0  0  0
 20 10  1  0  0  0
 20 14  1  0  0  0
  3  8  1  0  0  0
 13 21  1  0  0  0
 24 25  1  0  0  0
 30 33  1  0  0  0
M  END
> <minimizedAffinity>
-7.60380

> <CNNscore>
0.3271355331

> <CNNaffinity>
6.4313378334

> <CNN_VS>
2.1039190292

> <CNNaffinity_variance>
0.2116914243

$$$$
[H]O[C@]1([H])C([H])([H])C([H])([H])[C@@]([H])(N([H])C(=O)c2c(C([H])([H])[H])c(/C([H])=C3\C(=O)N([H])c4c([H])c([H])c(F)c([H])c43)n([H])c2C([H])([H])[H])C([H])([H])C1([H])[H]


 33 36  0  0  0  0  0  0  0  0999 V2000
   40.2164   11.2924  -18.2852 C   0  0  0  0  0  0  0  0  0  0  0  0
   40.6141   12.1369  -17.1232 C   0  0  0  0  0  0  0  0  0  0  0  0
   41.8203   12.7589  -16.9896 N   0  0  0  0  0  0  0  0  0  0  0  0
   41.8648   13.4469  -15.8377 C   0  0  0  0  0  0  0  0  0  0  0  0
   40.6443   13.2437  -15.2336 C   0  0  0  0  0  0  0  0  0  0  0  0
   40.2089   13.7667  -13.8917 C   0  0  0  0  0  0  0  0  0  0  0  0
   39.8420   12.4267  -16.0197 C   0  0  0  0  0  0  0  0  0  0  0  0
   42.5940   12.7008  -17.6946 H   0  0  0  0  0  0  0  0  0  0  0  0
   43.0075   14.1929  -15.3256 C   0  0  0  0  0  0  0  0  0  0  0  0
   44.2472   13.7674  -15.3644 C   0  0  0  0  0  0  0  0  0  0  0  0
   44.7070   12.5046  -15.9017 C   0  0  0  0  0  0  0  0  0  0  0  0
   44.0340   11.5784  -16.3993 O   0  0  0  0  0  0  0  0  0  0  0  0
   46.1233   12.4973  -15.7559 N   0  0  0  0  0  0  0  0  0  0  0  0
   46.5402   13.7247  -15.1412 C   0  0  0  0  0  0  0  0  0  0  0  0
   47.7862   14.2245  -14.7755 C   0  0  0  0  0  0  0  0  0  0  0  0
   47.9113   15.4577  -14.1869 C   0  0  0  0  0  0  0  0  0  0  0  0
   46.8109   16.2543  -13.9325 C   0  0  0  0  0  0  0  0  0  0  0  0
   46.9526   17.4867  -13.3415 F   0  0  0  0  0  0  0  0  0  0  0  0
   45.5809   15.7571  -14.2953 C   0  0  0  0  0  0  0  0  0  0  0  0
   45.4401   14.5156  -14.8897 C   0  0  0  0  0  0  0  0  0  0  0  0
   46.8077   11.7587  -16.0284 H   0  0  0  0  0  0  0  0  0  0  0  0
   38.4983   12.0053  -15.6659 C   0  0  0  0  0  0  0  0  0  0  0  0
   38.3360   11.4409  -14.5179 O   0  0  0  0  0  0  0  0  0  0  0  0
   37.3541   12.1402  -16.4299 N   0  0  0  0  0  0  0  0  0  0  0  0
   37.3313   12.5581  -17.3628 H   0  0  0  0  0  0  0  0  0  0  0  0
   36.0540   11.6659  -15.9302 C   0  0  0  0  0  0  0  0  0  0  0  0
   35.3161   12.8903  -15.4800 C   0  0  0  0  0  0  0  0  0  0  0  0
   33.9308   12.6426  -14.9810 C   0  0  0  0  0  0  0  0  0  0  0  0
   33.3868   11.3524  -15.5308 C   0  0  0  0  0  0  0  0  0  0  0  0
   33.8352   10.2832  -14.7624 O   0  0  0  0  0  0  0  0  0  0  0  0
   33.8624   11.1397  -16.9495 C   0  0  0  0  0  0  0  0  0  0  0  0
   35.3382   10.9659  -17.0742 C   0  0  0  0  0  0  0  0  0  0  0  0
   33.3560    9.4389  -14.9724 H   0  0  0  0  0  0  0  0  0  0  0  0
  1  2  1  0  0  0
  2  3  1  0  0  0
  3  4  1  0  0  0
  4  9  1  0  0  0
  9 10  2  0  0  0
 10 11  1  0  0  0
 11 12  2  0  0  0
 11 13  1  0  0  0
 13 14  1  0  0  0
 14 15  2  0  0  0
 15 16  1  0  0  0
 16 17  2  0  0  0
 17 18  1  0  0  0
 17 19  1  0  0  0
 19 20  2  0  0  0
  4  5  2  0  0  0
  5  6  1  0  0  0
  5  7  1  0  0  0
  7 22  1  0  0  0
 22 23  2  0  0  0
 22 24  1  0  0  0
 24 26  1  0  0  0
 26 27  1  0  0  0
 27 28  1  0  0  0
 28 29  1  0  0  0
 29 30  1  0  0  0
 29 31  1  0  0  0
 31 32  1  0  0  0
  7  2  2  0  0  0
 32 26  1  0  0  0
 20 10  1  0  0  0
 20 14  1  0  0  0
  3  8  1  0  0  0
 13 21  1  0  0  0
 24 25  1  0  0  0
 30 33  1  0  0  0
M  END
> <minimizedAffinity>
-7.59827

> <CNNscore>
0.2264409810

> <CNNaffinity>
6.2805371284

> <CNN_VS>
1.4221709967

> <CNNaffinity_variance>
0.1187270135

$$$$
[H]O[C@]1([H])C([H])([H])C([H])([H])[C@@]([H])(N([H])C(=O)c2c(C([H])([H])[H])c(/C([H])=C3\C(=O)N([H])c4c([H])c([H])c(F)c([H])c43)n([H])c2C([H])([H])[H])C([H])([H])C1([H])[H]


 33 36  0  0  0  0  0  0  0  0999 V2000
   42.4447   15.1085  -12.5507 C   0  0  0  0  0  0  0  0  0  0  0  0
   41.7797   14.2867  -13.6013 C   0  0  0  0  0  0  0  0  0  0  0  0
   40.4465   14.0031  -13.6400 N   0  0  0  0  0  0  0  0  0  0  0  0
   40.1613   13.2487  -14.7132 C   0  0  0  0  0  0  0  0  0  0  0  0
   41.3597   13.0553  -15.3631 C   0  0  0  0  0  0  0  0  0  0  0  0
   41.5856   12.2341  -16.6034 C   0  0  0  0  0  0  0  0  0  0  0  0
   42.3894   13.6965  -14.6866 C   0  0  0  0  0  0  0  0  0  0  0  0
   39.7531   14.3346  -12.9269 H   0  0  0  0  0  0  0  0  0  0  0  0
   38.8538   12.7051  -15.0589 C   0  0  0  0  0  0  0  0  0  0  0  0
   37.7117   13.2227  -14.6757 C   0  0  0  0  0  0  0  0  0  0  0  0
   37.5338   14.3984  -13.8504 C   0  0  0  0  0  0  0  0  0  0  0  0
   38.4059   15.1229  -13.3283 O   0  0  0  0  0  0  0  0  0  0  0  0
   36.1289   14.5943  -13.7272 N   0  0  0  0  0  0  0  0  0  0  0  0
   35.4438   13.5661  -14.4562 C   0  0  0  0  0  0  0  0  0  0  0  0
   34.0957   13.2896  -14.6618 C   0  0  0  0  0  0  0  0  0  0  0  0
   33.6988   12.2155  -15.4179 C   0  0  0  0  0  0  0  0  0  0  0  0
   34.6156   11.3649  -16.0060 C   0  0  0  0  0  0  0  0  0  0  0  0
   34.2022   10.2928  -16.7597 F   0  0  0  0  0  0  0  0  0  0  0  0
   35.9472   11.6411  -15.8006 C   0  0  0  0  0  0  0  0  0  0  0  0
   36.3617   12.7206  -15.0408 C   0  0  0  0  0  0  0  0  0  0  0  0
   35.6126   15.3392  -13.2106 H   0  0  0  0  0  0  0  0  0  0  0  0
   43.7818   13.6788  -15.0981 C   0  0  0  0  0  0  0  0  0  0  0  0
   44.0463   14.0202  -16.3130 O   0  0  0  0  0  0  0  0  0  0  0  0
   44.8748   13.3319  -14.3259 N   0  0  0  0  0  0  0  0  0  0  0  0
   44.8177   13.0315  -13.3502 H   0  0  0  0  0  0  0  0  0  0  0  0
   46.2351   13.3687  -14.8855 C   0  0  0  0  0  0  0  0  0  0  0  0
   46.7710   14.7327  -14.5717 C   0  0  0  0  0  0  0  0  0  0  0  0
   48.1796   14.9710  -15.0060 C   0  0  0  0  0  0  0  0  0  0  0  0
   48.9194   13.6702  -15.1596 C   0  0  0  0  0  0  0  0  0  0  0  0
   48.6482   13.1148  -16.4057 O   0  0  0  0  0  0  0  0  0  0  0  0
   48.4792   12.6835  -14.1028 C   0  0  0  0  0  0  0  0  0  0  0  0
   47.0493   12.2752  -14.2130 C   0  0  0  0  0  0  0  0  0  0  0  0
   49.2545   12.3587  -16.6231 H   0  0  0  0  0  0  0  0  0  0  0  0
  1  2  1  0  0  0
  2  3  1  0  0  0
  3  4  1  0  0  0
  4  9  1  0  0  0
  9 10  2  0  0  0
 10 11  1  0  0  0
 11 12  2  0  0  0
 11 13  1  0  0  0
 13 14  1  0  0  0
 14 15  2  0  0  0
 15 16  1  0  0  0
 16 17  2  0  0  0
 17 18  1  0  0  0
 17 19  1  0  0  0
 19 20  2  0  0  0
  4  5  2  0  0  0
  5  6  1  0  0  0
  5  7  1  0  0  0
  7 22  1  0  0  0
 22 23  2  0  0  0
 22 24  1  0  0  0
 24 26  1  0  0  0
 26 27  1  0  0  0
 27 28  1  0  0  0
 28 29  1  0  0  0
 29 30  1  0  0  0
 29 31  1  0  0  0
 31 32  1  0  0  0
  7  2  2  0  0  0
 32 26  1  0  0  0
 20 10  1  0  0  0
 20 14  1  0  0  0
  3  8  1  0  0  0
 13 21  1  0  0  0
 24 25  1  0  0  0
 30 33  1  0  0  0
M  END
> <minimizedAffinity>
-8.95563

> <CNNscore>
0.2215349227

> <CNNaffinity>
6.3169121742

> <CNN_VS>
1.3994166851

> <CNNaffinity_variance>
0.2433001548

$$$$
[H]O[C@]1([H])C([H])([H])C([H])([H])[C@@]([H])(N([H])C(=O)c2c(C([H])([H])[H])c(/C([H])=C3\C(=O)N([H])c4c([H])c([H])c(F)c([H])c43)n([H])c2C([H])([H])[H])C([H])([H])C1([H])[H]


 33 36  0  0  0  0  0  0  0  0999 V2000
   41.0825   16.3959  -11.2241 C   0  0  0  0  0  0  0  0  0  0  0  0
   39.7592   15.8131  -11.5858 C   0  0  0  0  0  0  0  0  0  0  0  0
   39.5313   15.0080  -12.6625 N   0  0  0  0  0  0  0  0  0  0  0  0
   38.2398   14.6443  -12.7075 C   0  0  0  0  0  0  0  0  0  0  0  0
   37.6441   15.2460  -11.6217 C   0  0  0  0  0  0  0  0  0  0  0  0
   36.1873   15.1871  -11.2502 C   0  0  0  0  0  0  0  0  0  0  0  0
   38.5754   15.9837  -10.9022 C   0  0  0  0  0  0  0  0  0  0  0  0
   40.2693   14.7205  -13.3494 H   0  0  0  0  0  0  0  0  0  0  0  0
   37.6109   13.8323  -13.7417 C   0  0  0  0  0  0  0  0  0  0  0  0
   38.2654   13.1892  -14.6785 C   0  0  0  0  0  0  0  0  0  0  0  0
   39.7004   13.1688  -14.8661 C   0  0  0  0  0  0  0  0  0  0  0  0
   40.5804   13.7630  -14.2098 O   0  0  0  0  0  0  0  0  0  0  0  0
   39.9481   12.3184  -15.9808 N   0  0  0  0  0  0  0  0  0  0  0  0
   38.6991   11.8196  -16.4800 C   0  0  0  0  0  0  0  0  0  0  0  0
   38.3718   10.9704  -17.5325 C   0  0  0  0  0  0  0  0  0  0  0  0
   37.0662   10.6471  -17.8038 C   0  0  0  0  0  0  0  0  0  0  0  0
   36.0234   11.1478  -17.0477 C   0  0  0  0  0  0  0  0  0  0  0  0
   34.7209   10.8153  -17.3327 F   0  0  0  0  0  0  0  0  0  0  0  0
   36.3505   11.9869  -16.0081 C   0  0  0  0  0  0  0  0  0  0  0  0
   37.6625   12.3213  -15.7231 C   0  0  0  0  0  0  0  0  0  0  0  0
   40.8588   12.0555  -16.4166 H   0  0  0  0  0  0  0  0  0  0  0  0
   38.2724   16.7531   -9.7087 C   0  0  0  0  0  0  0  0  0  0  0  0
   38.6128   16.2461   -8.5731 O   0  0  0  0  0  0  0  0  0  0  0  0
   37.6502   17.9861   -9.6475 N   0  0  0  0  0  0  0  0  0  0  0  0
   37.3168   18.5034  -10.4641 H   0  0  0  0  0  0  0  0  0  0  0  0
   37.4154   18.6485   -8.3548 C   0  0  0  0  0  0  0  0  0  0  0  0
   37.6073   20.1139   -8.6039 C   0  0  0  0  0  0  0  0  0  0  0  0
   37.3588   20.9913   -7.4216 C   0  0  0  0  0  0  0  0  0  0  0  0
   36.4668   20.3047   -6.4237 C   0  0  0  0  0  0  0  0  0  0  0  0
   37.2211   19.4603   -5.6158 O   0  0  0  0  0  0  0  0  0  0  0  0
   35.4271   19.4672   -7.1322 C   0  0  0  0  0  0  0  0  0  0  0  0
   35.9944   18.3330   -7.9167 C   0  0  0  0  0  0  0  0  0  0  0  0
   36.7099   19.1321   -4.8299 H   0  0  0  0  0  0  0  0  0  0  0  0
  1  2  1  0  0  0
  2  3  1  0  0  0
  3  4  1  0  0  0
  4  9  1  0  0  0
  9 10  2  0  0  0
 10 11  1  0  0  0
 11 12  2  0  0  0
 11 13  1  0  0  0
 13 14  1  0  0  0
 14 15  2  0  0  0
 15 16  1  0  0  0
 16 17  2  0  0  0
 17 18  1  0  0  0
 17 19  1  0  0  0
 19 20  2  0  0  0
  4  5  2  0  0  0
  5  6  1  0  0  0
  5  7  1  0  0  0
  7 22  1  0  0  0
 22 23  2  0  0  0
 22 24  1  0  0  0
 24 26  1  0  0  0
 26 27  1  0  0  0
 27 28  1  0  0  0
 28 29  1  0  0  0
 29 30  1  0  0  0
 29 31  1  0  0  0
 31 32  1  0  0  0
  7  2  2  0  0  0
 32 26  1  0  0  0
 20 10  1  0  0  0
 20 14  1  0  0  0
  3  8  1  0  0  0
 13 21  1  0  0  0
 24 25  1  0  0  0
 30 33  1  0  0  0
M  END
> <minimizedAffinity>
-9.45991

> <CNNscore>
0.2165741771

> <CNNaffinity>
5.9491968155

> <CNN_VS>
1.2884423733

> <CNNaffinity_variance>
0.1833271980

$$$$
[H]O[C@]1([H])C([H])([H])C([H])([H])[C@@]([H])(N([H])C(=O)c2c(C([H])([H])[H])c(/C([H])=C3\C(=O)N([H])c4c([H])c([H])c(F)c([H])c43)n([H])c2C([H])([H])[H])C([H])([H])C1([H])[H]


 33 36  0  0  0  0  0  0  0  0999 V2000
   35.1035   16.4488   -9.3878 C   0  0  0  0  0  0  0  0  0  0  0  0
   34.1854   15.7210  -10.3092 C   0  0  0  0  0  0  0  0  0  0  0  0
   34.5877   14.9292  -11.3440 N   0  0  0  0  0  0  0  0  0  0  0  0
   33.5225   14.4124  -11.9768 C   0  0  0  0  0  0  0  0  0  0  0  0
   32.4198   14.9017  -11.3131 C   0  0  0  0  0  0  0  0  0  0  0  0
   30.9779   14.6536  -11.6641 C   0  0  0  0  0  0  0  0  0  0  0  0
   32.8085   15.7238  -10.2634 C   0  0  0  0  0  0  0  0  0  0  0  0
   35.5900   14.7561  -11.5977 H   0  0  0  0  0  0  0  0  0  0  0  0
   33.5547   13.5635  -13.1613 C   0  0  0  0  0  0  0  0  0  0  0  0
   34.6168   13.3712  -13.9058 C   0  0  0  0  0  0  0  0  0  0  0  0
   35.9256   13.9558  -13.7050 C   0  0  0  0  0  0  0  0  0  0  0  0
   36.2929   14.7595  -12.8234 O   0  0  0  0  0  0  0  0  0  0  0  0
   36.7603   13.4360  -14.7347 N   0  0  0  0  0  0  0  0  0  0  0  0
   35.9931   12.5488  -15.5607 C   0  0  0  0  0  0  0  0  0  0  0  0
   36.3095   11.7902  -16.6835 C   0  0  0  0  0  0  0  0  0  0  0  0
   35.3657   11.0083  -17.3006 C   0  0  0  0  0  0  0  0  0  0  0  0
   34.0656   10.9399  -16.8370 C   0  0  0  0  0  0  0  0  0  0  0  0
   33.1317   10.1528  -17.4668 F   0  0  0  0  0  0  0  0  0  0  0  0
   33.7564   11.6910  -15.7272 C   0  0  0  0  0  0  0  0  0  0  0  0
   34.6979   12.4835  -15.0947 C   0  0  0  0  0  0  0  0  0  0  0  0
   37.7700   13.6233  -14.9187 H   0  0  0  0  0  0  0  0  0  0  0  0
   31.8912   16.4117   -9.3725 C   0  0  0  0  0  0  0  0  0  0  0  0
   31.0580   17.2406   -9.9027 O   0  0  0  0  0  0  0  0  0  0  0  0
   31.8066   16.2795   -7.9989 N   0  0  0  0  0  0  0  0  0  0  0  0
   32.4078   15.6682   -7.4418 H   0  0  0  0  0  0  0  0  0  0  0  0
   30.8145   17.0449   -7.2278 C   0  0  0  0  0  0  0  0  0  0  0  0
   29.8444   16.0360   -6.6917 C   0  0  0  0  0  0  0  0  0  0  0  0
   28.7696   16.5971   -5.8203 C   0  0  0  0  0  0  0  0  0  0  0  0
   29.1906   17.9170   -5.2342 C   0  0  0  0  0  0  0  0  0  0  0  0
   28.9568   18.9382   -6.1492 O   0  0  0  0  0  0  0  0  0  0  0  0
   30.6675   17.9063   -4.9137 C   0  0  0  0  0  0  0  0  0  0  0  0
   31.5464   17.7712   -6.1108 C   0  0  0  0  0  0  0  0  0  0  0  0
   29.0436   19.8395   -5.7409 H   0  0  0  0  0  0  0  0  0  0  0  0
  1  2  1  0  0  0
  2  3  1  0  0  0
  3  4  1  0  0  0
  4  9  1  0  0  0
  9 10  2  0  0  0
 10 11  1  0  0  0
 11 12  2  0  0  0
 11 13  1  0  0  0
 13 14  1  0  0  0
 14 15  2  0  0  0
 15 16  1  0  0  0
 16 17  2  0  0  0
 17 18  1  0  0  0
 17 19  1  0  0  0
 19 20  2  0  0  0
  4  5  2  0  0  0
  5  6  1  0  0  0
  5  7  1  0  0  0
  7 22  1  0  0  0
 22 23  2  0  0  0
 22 24  1  0  0  0
 24 26  1  0  0  0
 26 27  1  0  0  0
 27 28  1  0  0  0
 28 29  1  0  0  0
 29 30  1  0  0  0
 29 31  1  0  0  0
 31 32  1  0  0  0
  7  2  2  0  0  0
 32 26  1  0  0  0
 20 10  1  0  0  0
 20 14  1  0  0  0
  3  8  1  0  0  0
 13 21  1  0  0  0
 24 25  1  0  0  0
 30 33  1  0  0  0
M  END
> <minimizedAffinity>
-8.23724

> <CNNscore>
0.1977784038

> <CNNaffinity>
5.8101410866

> <CNN_VS>
1.1491204500

> <CNNaffinity_variance>
0.2194243222

$$$$
[H]O[C@]1([H])C([H])([H])C([H])([H])[C@@]([H])(N([H])C(=O)c2c(C([H])([H])[H])c(/C([H])=C3\C(=O)N([H])c4c([H])c([H])c(F)c([H])c43)n([H])c2C([H])([H])[H])C([H])([H])C1([H])[H]


 33 36  0  0  0  0  0  0  0  0999 V2000
   32.9068   15.5309  -11.6609 C   0  0  0  0  0  0  0  0  0  0  0  0
   34.3746   15.2802  -11.7236 C   0  0  0  0  0  0  0  0  0  0  0  0
   35.0470   14.8663  -12.8353 N   0  0  0  0  0  0  0  0  0  0  0  0
   36.3564   14.7395  -12.5680 C   0  0  0  0  0  0  0  0  0  0  0  0
   36.5025   15.0850  -11.2432 C   0  0  0  0  0  0  0  0  0  0  0  0
   37.7778   15.0623  -10.4451 C   0  0  0  0  0  0  0  0  0  0  0  0
   35.2751   15.4287  -10.6915 C   0  0  0  0  0  0  0  0  0  0  0  0
   34.5936   14.6785  -13.7617 H   0  0  0  0  0  0  0  0  0  0  0  0
   37.3806   14.2676  -13.4915 C   0  0  0  0  0  0  0  0  0  0  0  0
   37.2131   13.2856  -14.3441 C   0  0  0  0  0  0  0  0  0  0  0  0
   36.0131   12.4962  -14.5224 C   0  0  0  0  0  0  0  0  0  0  0  0
   34.9331   12.5694  -13.9009 O   0  0  0  0  0  0  0  0  0  0  0  0
   36.2890   11.5771  -15.5742 N   0  0  0  0  0  0  0  0  0  0  0  0
   37.6291   11.7847  -16.0422 C   0  0  0  0  0  0  0  0  0  0  0  0
   38.3916   11.1718  -17.0317 C   0  0  0  0  0  0  0  0  0  0  0  0
   39.6807   11.5696  -17.2827 C   0  0  0  0  0  0  0  0  0  0  0  0
   40.2761   12.5913  -16.5675 C   0  0  0  0  0  0  0  0  0  0  0  0
   41.5685   12.9774  -16.8302 F   0  0  0  0  0  0  0  0  0  0  0  0
   39.5196   13.1948  -15.5902 C   0  0  0  0  0  0  0  0  0  0  0  0
   38.2186   12.8042  -15.3266 C   0  0  0  0  0  0  0  0  0  0  0  0
   35.6688   10.8476  -15.9882 H   0  0  0  0  0  0  0  0  0  0  0  0
   35.0758   15.8283   -9.3098 C   0  0  0  0  0  0  0  0  0  0  0  0
   35.1003   14.9012   -8.4142 O   0  0  0  0  0  0  0  0  0  0  0  0
   34.8583   17.1085   -8.8355 N   0  0  0  0  0  0  0  0  0  0  0  0
   34.8037   17.9401   -9.4281 H   0  0  0  0  0  0  0  0  0  0  0  0
   34.6782   17.3587   -7.3968 C   0  0  0  0  0  0  0  0  0  0  0  0
   35.2224   18.7329   -7.1481 C   0  0  0  0  0  0  0  0  0  0  0  0
   35.0877   19.2186   -5.7426 C   0  0  0  0  0  0  0  0  0  0  0  0
   33.9832   18.4890   -5.0280 C   0  0  0  0  0  0  0  0  0  0  0  0
   34.4540   17.2731   -4.5436 O   0  0  0  0  0  0  0  0  0  0  0  0
   32.8396   18.2033   -5.9739 C   0  0  0  0  0  0  0  0  0  0  0  0
   33.1918   17.2773   -7.0884 C   0  0  0  0  0  0  0  0  0  0  0  0
   33.8187   16.8464   -3.9104 H   0  0  0  0  0  0  0  0  0  0  0  0
  1  2  1  0  0  0
  2  3  1  0  0  0
  3  4  1  0  0  0
  4  9  1  0  0  0
  9 10  2  0  0  0
 10 11  1  0  0  0
 11 12  2  0  0  0
 11 13  1  0  0  0
 13 14  1  0  0  0
 14 15  2  0  0  0
 15 16  1  0  0  0
 16 17  2  0  0  0
 17 18  1  0  0  0
 17 19  1  0  0  0
 19 20  2  0  0  0
  4  5  2  0  0  0
  5  6  1  0  0  0
  5  7  1  0  0  0
  7 22  1  0  0  0
 22 23  2  0  0  0
 22 24  1  0  0  0
 24 26  1  0  0  0
 26 27  1  0  0  0
 27 28  1  0  0  0
 28 29  1  0  0  0
 29 30  1  0  0  0
 29 31  1  0  0  0
 31 32  1  0  0  0
  7  2  2  0  0  0
 32 26  1  0  0  0
 20 10  1  0  0  0
 20 14  1  0  0  0
  3  8  1  0  0  0
 13 21  1  0  0  0
 24 25  1  0  0  0
 30 33  1  0  0  0
M  END
> <minimizedAffinity>
-8.68141

> <CNNscore>
0.1959623843

> <CNNaffinity>
5.6736631393

> <CNN_VS>
1.1118245125

> <CNNaffinity_variance>
0.3227046430

$$$$
[H]O[C@]([H])(C([H])([H])N([H])C(=O)c1c(C([H])([H])[H])c(/C([H])=C2\C(=O)N([H])c3c([H])c([H])c(F)c([H])c32)n([H])c1C([H])([H])[H])C([H])([H])N1C([H])([H])C([H])([H])OC([H])([H])C1([H])[H]


 36 39  0  0  0  0  0  0  0  0999 V2000
   44.7399   12.1564  -17.3512 C   0  0  0  0  0  0  0  0  0  0  0  0
   43.5422   12.5245  -16.5361 C   0  0  0  0  0  0  0  0  0  0  0  0
   42.2760   12.1843  -16.7523 N   0  0  0  0  0  0  0  0  0  0  0  0
   41.4900   12.7019  -15.8211 C   0  0  0  0  0  0  0  0  0  0  0  0
   42.3088   13.4352  -14.9325 C   0  0  0  0  0  0  0  0  0  0  0  0
   41.8065   14.1528  -13.7288 C   0  0  0  0  0  0  0  0  0  0  0  0
   43.5732   13.3256  -15.3736 C   0  0  0  0  0  0  0  0  0  0  0  0
   41.9829   11.5864  -17.5872 H   0  0  0  0  0  0  0  0  0  0  0  0
   40.0584   12.6013  -15.6086 C   0  0  0  0  0  0  0  0  0  0  0  0
   39.2079   11.9764  -16.3937 C   0  0  0  0  0  0  0  0  0  0  0  0
   39.4996   11.2557  -17.6188 C   0  0  0  0  0  0  0  0  0  0  0  0
   40.6419   11.0776  -18.1504 O   0  0  0  0  0  0  0  0  0  0  0  0
   38.2496   10.7808  -18.1104 N   0  0  0  0  0  0  0  0  0  0  0  0
   37.1750   11.1743  -17.2392 C   0  0  0  0  0  0  0  0  0  0  0  0
   35.8116   10.9648  -17.2759 C   0  0  0  0  0  0  0  0  0  0  0  0
   34.9989   11.4633  -16.2921 C   0  0  0  0  0  0  0  0  0  0  0  0
   35.5489   12.1844  -15.2501 C   0  0  0  0  0  0  0  0  0  0  0  0
   34.7320   12.6783  -14.2729 F   0  0  0  0  0  0  0  0  0  0  0  0
   36.9118   12.3846  -15.2279 C   0  0  0  0  0  0  0  0  0  0  0  0
   37.7424   11.8910  -16.2079 C   0  0  0  0  0  0  0  0  0  0  0  0
   38.1325   10.2325  -18.9697 H   0  0  0  0  0  0  0  0  0  0  0  0
   44.8096   13.8603  -14.7968 C   0  0  0  0  0  0  0  0  0  0  0  0
   45.5182   13.0156  -14.1424 O   0  0  0  0  0  0  0  0  0  0  0  0
   45.2726   15.1652  -14.8972 N   0  0  0  0  0  0  0  0  0  0  0  0
   44.6591   15.8455  -15.4738 H   0  0  0  0  0  0  0  0  0  0  0  0
   46.4668   15.7542  -14.3710 C   0  0  0  0  0  0  0  0  0  0  0  0
   46.3897   17.2174  -14.1294 C   0  0  0  0  0  0  0  0  0  0  0  0
   46.7809   18.0003  -15.1910 O   0  0  0  0  0  0  0  0  0  0  0  0
   47.6220   18.4946  -15.0554 H   0  0  0  0  0  0  0  0  0  0  0  0
   44.9529   17.5441  -13.7191 C   0  0  0  0  0  0  0  0  0  0  0  0
   44.7627   17.5108  -12.3152 N   0  0  0  0  0  0  0  0  0  0  0  0
   43.8706   16.5500  -11.8288 C   0  0  0  0  0  0  0  0  0  0  0  0
   44.1087   16.0230  -10.4588 C   0  0  0  0  0  0  0  0  0  0  0  0
   44.9402   16.7800   -9.6752 O   0  0  0  0  0  0  0  0  0  0  0  0
   46.1512   16.9020  -10.3961 C   0  0  0  0  0  0  0  0  0  0  0  0
   45.8499   17.8919  -11.4996 C   0  0  0  0  0  0  0  0  0  0  0  0
  1  2  1  0  0  0
  2  3  1  0  0  0
  3  4  1  0  0  0
  4  9  1  0  0  0
  9 10  2  0  0  0
 10 11  1  0  0  0
 11 12  2  0  0  0
 11 13  1  0  0  0
 13 14  1  0  0  0
 14 15  2  0  0  0
 15 16  1  0  0  0
 16 17  2  0  0  0
 17 18  1  0  0  0
 17 19  1  0  0  0
 19 20  2  0  0  0
  4  5  2  0  0  0
  5  6  1  0  0  0
  5  7  1  0  0  0
  7 22  1  0  0  0
 22 23  2  0  0  0
 22 24  1  0  0  0
 24 26  1  0  0  0
 26 27  1  0  0  0
 27 28  1  0  0  0
 27 30  1  0  0  0
 30 31  1  0  0  0
 31 32  1  0  0  0
 32 33  1  0  0  0
 33 34  1  0  0  0
 34 35  1  0  0  0
 35 36  1  0  0  0
  7  2  2  0  0  0
 36 31  1  0  0  0
 20 10  1  0  0  0
 20 14  1  0  0  0
  3  8  1  0  0  0
 13 21  1  0  0  0
 24 25  1  0  0  0
 28 29  1  0  0  0
M  END
> <minimizedAffinity>
-9.51289

> <CNNscore>
0.8156023026

> <CNNaffinity>
6.8906264305

> <CNN_VS>
5.6200108528

> <CNNaffinity_variance>
0.2308812141

$$$$
[H]O[C@]([H])(C([H])([H])N([H])C(=O)c1c(C([H])([H])[H])c(/C([H])=C2\C(=O)N([H])c3c([H])c([H])c(F)c([H])c32)n([H])c1C([H])([H])[H])C([H])([H])N1C([H])([H])C([H])([H])OC([H])([H])C1([H])[H]


 36 39  0  0  0  0  0  0  0  0999 V2000
   38.8483   16.4003  -10.3714 C   0  0  0  0  0  0  0  0  0  0  0  0
   38.2529   15.3934  -11.3021 C   0  0  0  0  0  0  0  0  0  0  0  0
   38.7663   14.9330  -12.4380 N   0  0  0  0  0  0  0  0  0  0  0  0
   37.9485   14.0533  -12.9949 C   0  0  0  0  0  0  0  0  0  0  0  0
   36.8168   13.9341  -12.1565 C   0  0  0  0  0  0  0  0  0  0  0  0
   35.6708   13.0212  -12.4202 C   0  0  0  0  0  0  0  0  0  0  0  0
   37.0049   14.7601  -11.1137 C   0  0  0  0  0  0  0  0  0  0  0  0
   39.7068   15.2708  -12.8146 H   0  0  0  0  0  0  0  0  0  0  0  0
   38.0666   13.2668  -14.2083 C   0  0  0  0  0  0  0  0  0  0  0  0
   39.1554   13.1346  -14.9343 C   0  0  0  0  0  0  0  0  0  0  0  0
   40.4584   13.7248  -14.6911 C   0  0  0  0  0  0  0  0  0  0  0  0
   40.7940   14.4663  -13.7130 O   0  0  0  0  0  0  0  0  0  0  0  0
   41.2940   13.3056  -15.7662 N   0  0  0  0  0  0  0  0  0  0  0  0
   40.5667   12.4691  -16.6827 C   0  0  0  0  0  0  0  0  0  0  0  0
   40.9207   11.8275  -17.8519 C   0  0  0  0  0  0  0  0  0  0  0  0
   40.0078   11.0751  -18.5428 C   0  0  0  0  0  0  0  0  0  0  0  0
   38.7173   10.9559  -18.0651 C   0  0  0  0  0  0  0  0  0  0  0  0
   37.8127   10.2040  -18.7596 F   0  0  0  0  0  0  0  0  0  0  0  0
   38.3797   11.6025  -16.8962 C   0  0  0  0  0  0  0  0  0  0  0  0
   39.2841   12.3622  -16.1899 C   0  0  0  0  0  0  0  0  0  0  0  0
   42.2809   13.5656  -15.8718 H   0  0  0  0  0  0  0  0  0  0  0  0
   36.1555   14.9872   -9.9414 C   0  0  0  0  0  0  0  0  0  0  0  0
   36.3890   14.2214   -8.9399 O   0  0  0  0  0  0  0  0  0  0  0  0
   35.1496   15.9362   -9.8198 N   0  0  0  0  0  0  0  0  0  0  0  0
   34.9941   16.5783  -10.6772 H   0  0  0  0  0  0  0  0  0  0  0  0
   34.2902   16.2200   -8.7105 C   0  0  0  0  0  0  0  0  0  0  0  0
   34.8170   17.2231   -7.7505 C   0  0  0  0  0  0  0  0  0  0  0  0
   35.4800   18.2823   -8.3264 O   0  0  0  0  0  0  0  0  0  0  0  0
   36.4509   18.3041   -8.1620 H   0  0  0  0  0  0  0  0  0  0  0  0
   33.6418   17.7178   -6.9058 C   0  0  0  0  0  0  0  0  0  0  0  0
   34.0541   18.4949   -5.7948 N   0  0  0  0  0  0  0  0  0  0  0  0
   33.5450   19.7952   -5.7193 C   0  0  0  0  0  0  0  0  0  0  0  0
   33.3773   20.3894   -4.3664 C   0  0  0  0  0  0  0  0  0  0  0  0
   34.0693   19.7652   -3.3615 O   0  0  0  0  0  0  0  0  0  0  0  0
   33.6538   18.4132   -3.3835 C   0  0  0  0  0  0  0  0  0  0  0  0
   34.3396   17.8143   -4.5916 C   0  0  0  0  0  0  0  0  0  0  0  0
  1  2  1  0  0  0
  2  3  1  0  0  0
  3  4  1  0  0  0
  4  9  1  0  0  0
  9 10  2  0  0  0
 10 11  1  0  0  0
 11 12  2  0  0  0
 11 13  1  0  0  0
 13 14  1  0  0  0
 14 15  2  0  0  0
 15 16  1  0  0  0
 16 17  2  0  0  0
 17 18  1  0  0  0
 17 19  1  0  0  0
 19 20  2  0  0  0
  4  5  2  0  0  0
  5  6  1  0  0  0
  5  7  1  0  0  0
  7 22  1  0  0  0
 22 23  2  0  0  0
 22 24  1  0  0  0
 24 26  1  0  0  0
 26 27  1  0  0  0
 27 28  1  0  0  0
 27 30  1  0  0  0
 30 31  1  0  0  0
 31 32  1  0  0  0
 32 33  1  0  0  0
 33 34  1  0  0  0
 34 35  1  0  0  0
 35 36  1  0  0  0
  7  2  2  0  0  0
 36 31  1  0  0  0
 20 10  1  0  0  0
 20 14  1  0  0  0
  3  8  1  0  0  0
 13 21  1  0  0  0
 24 25  1  0  0  0
 28 29  1  0  0  0
M  END
> <minimizedAffinity>
-8.97284

> <CNNscore>
0.5844092965

> <CNNaffinity>
6.2504396439

> <CNN_VS>
3.6528151035

> <CNNaffinity_variance>
0.2937110364

$$$$
[H]O[C@]([H])(C([H])([H])N([H])C(=O)c1c(C([H])([H])[H])c(/C([H])=C2\C(=O)N([H])c3c([H])c([H])c(F)c([H])c32)n([H])c1C([H])([H])[H])C([H])([H])N1C([H])([H])C([H])([H])OC([H])([H])C1([H])[H]


 36 39  0  0  0  0  0  0  0  0999 V2000
   38.9221   16.3427  -10.3611 C   0  0  0  0  0  0  0  0  0  0  0  0
   38.2975   15.3596  -11.2980 C   0  0  0  0  0  0  0  0  0  0  0  0
   38.8068   14.8744  -12.4254 N   0  0  0  0  0  0  0  0  0  0  0  0
   37.9601   14.0290  -12.9920 C   0  0  0  0  0  0  0  0  0  0  0  0
   36.8125   13.9607  -12.1697 C   0  0  0  0  0  0  0  0  0  0  0  0
   35.6324   13.0968  -12.4477 C   0  0  0  0  0  0  0  0  0  0  0  0
   37.0209   14.7808  -11.1261 C   0  0  0  0  0  0  0  0  0  0  0  0
   39.7661   15.1707  -12.7892 H   0  0  0  0  0  0  0  0  0  0  0  0
   38.0616   13.2347  -14.2018 C   0  0  0  0  0  0  0  0  0  0  0  0
   39.1277   13.1323  -14.9655 C   0  0  0  0  0  0  0  0  0  0  0  0
   40.4174   13.7689  -14.7748 C   0  0  0  0  0  0  0  0  0  0  0  0
   40.7622   14.5313  -13.8161 O   0  0  0  0  0  0  0  0  0  0  0  0
   41.2280   13.3676  -15.8756 N   0  0  0  0  0  0  0  0  0  0  0  0
   40.4975   12.4976  -16.7577 C   0  0  0  0  0  0  0  0  0  0  0  0
   40.8313   11.8566  -17.9332 C   0  0  0  0  0  0  0  0  0  0  0  0
   39.9206   11.0666  -18.5840 C   0  0  0  0  0  0  0  0  0  0  0  0
   38.6529   10.9085  -18.0589 C   0  0  0  0  0  0  0  0  0  0  0  0
   37.7504   10.1191  -18.7136 F   0  0  0  0  0  0  0  0  0  0  0  0
   38.3353   11.5549  -16.8844 C   0  0  0  0  0  0  0  0  0  0  0  0
   39.2378   12.3521  -16.2180 C   0  0  0  0  0  0  0  0  0  0  0  0
   42.2009   13.6600  -16.0191 H   0  0  0  0  0  0  0  0  0  0  0  0
   36.1655   15.0473   -9.9666 C   0  0  0  0  0  0  0  0  0  0  0  0
   36.2690   14.2054   -9.0051 O   0  0  0  0  0  0  0  0  0  0  0  0
   35.2791   16.1054   -9.8181 N   0  0  0  0  0  0  0  0  0  0  0  0
   35.2329   16.8073  -10.6408 H   0  0  0  0  0  0  0  0  0  0  0  0
   34.4228   16.4328   -8.7184 C   0  0  0  0  0  0  0  0  0  0  0  0
   33.2899   15.4964   -8.5062 C   0  0  0  0  0  0  0  0  0  0  0  0
   33.4955   14.5523   -7.5268 O   0  0  0  0  0  0  0  0  0  0  0  0
   33.5884   13.6277   -7.8534 H   0  0  0  0  0  0  0  0  0  0  0  0
   32.0485   16.3341   -8.1954 C   0  0  0  0  0  0  0  0  0  0  0  0
   30.9710   16.0648   -9.0757 N   0  0  0  0  0  0  0  0  0  0  0  0
   31.3092   15.6920  -10.3804 C   0  0  0  0  0  0  0  0  0  0  0  0
   30.3655   14.8009  -11.1062 C   0  0  0  0  0  0  0  0  0  0  0  0
   29.1021   14.7307  -10.5797 O   0  0  0  0  0  0  0  0  0  0  0  0
   29.2623   14.3223   -9.2349 C   0  0  0  0  0  0  0  0  0  0  0  0
   29.7837   15.5466   -8.5153 C   0  0  0  0  0  0  0  0  0  0  0  0
  1  2  1  0  0  0
  2  3  1  0  0  0
  3  4  1  0  0  0
  4  9  1  0  0  0
  9 10  2  0  0  0
 10 11  1  0  0  0
 11 12  2  0  0  0
 11 13  1  0  0  0
 13 14  1  0  0  0
 14 15  2  0  0  0
 15 16  1  0  0  0
 16 17  2  0  0  0
 17 18  1  0  0  0
 17 19  1  0  0  0
 19 20  2  0  0  0
  4  5  2  0  0  0
  5  6  1  0  0  0
  5  7  1  0  0  0
  7 22  1  0  0  0
 22 23  2  0  0  0
 22 24  1  0  0  0
 24 26  1  0  0  0
 26 27  1  0  0  0
 27 28  1  0  0  0
 27 30  1  0  0  0
 30 31  1  0  0  0
 31 32  1  0  0  0
 32 33  1  0  0  0
 33 34  1  0  0  0
 34 35  1  0  0  0
 35 36  1  0  0  0
  7  2  2  0  0  0
 36 31  1  0  0  0
 20 10  1  0  0  0
 20 14  1  0  0  0
  3  8  1  0  0  0
 13 21  1  0  0  0
 24 25  1  0  0  0
 28 29  1  0  0  0
M  END
> <minimizedAffinity>
-9.93998

> <CNNscore>
0.5774780512

> <CNNaffinity>
6.3897118568

> <CNN_VS>
3.6899182796

> <CNNaffinity_variance>
0.2517550588

$$$$
[H]O[C@]([H])(C([H])([H])N([H])C(=O)c1c(C([H])([H])[H])c(/C([H])=C2\C(=O)N([H])c3c([H])c([H])c(F)c([H])c32)n([H])c1C([H])([H])[H])C([H])([H])N1C([H])([H])C([H])([H])OC([H])([H])C1([H])[H]


 36 39  0  0  0  0  0  0  0  0999 V2000
   44.7076   13.9014  -14.0413 C   0  0  0  0  0  0  0  0  0  0  0  0
   43.2226   14.0342  -13.9348 C   0  0  0  0  0  0  0  0  0  0  0  0
   42.2952   13.2897  -14.5277 N   0  0  0  0  0  0  0  0  0  0  0  0
   41.0829   13.7096  -14.2010 C   0  0  0  0  0  0  0  0  0  0  0  0
   41.2349   14.8121  -13.3296 C   0  0  0  0  0  0  0  0  0  0  0  0
   40.1019   15.5569  -12.7149 C   0  0  0  0  0  0  0  0  0  0  0  0
   42.5534   15.0117  -13.1661 C   0  0  0  0  0  0  0  0  0  0  0  0
   42.5463   12.4840  -15.1822 H   0  0  0  0  0  0  0  0  0  0  0  0
   39.7667   13.2195  -14.5645 C   0  0  0  0  0  0  0  0  0  0  0  0
   39.4732   12.5444  -15.6547 C   0  0  0  0  0  0  0  0  0  0  0  0
   40.3771   12.1385  -16.7145 C   0  0  0  0  0  0  0  0  0  0  0  0
   41.6313   12.3447  -16.7739 O   0  0  0  0  0  0  0  0  0  0  0  0
   39.5809   11.4566  -17.6795 N   0  0  0  0  0  0  0  0  0  0  0  0
   38.2034   11.4149  -17.2681 C   0  0  0  0  0  0  0  0  0  0  0  0
   37.0678   10.8803  -17.8415 C   0  0  0  0  0  0  0  0  0  0  0  0
   35.8521   10.9852  -17.2186 C   0  0  0  0  0  0  0  0  0  0  0  0
   35.7599   11.6331  -16.0022 C   0  0  0  0  0  0  0  0  0  0  0  0
   34.5441   11.7336  -15.3873 F   0  0  0  0  0  0  0  0  0  0  0  0
   36.9029   12.1611  -15.4428 C   0  0  0  0  0  0  0  0  0  0  0  0
   38.1317   12.0648  -16.0549 C   0  0  0  0  0  0  0  0  0  0  0  0
   39.9420   11.0506  -18.5498 H   0  0  0  0  0  0  0  0  0  0  0  0
   43.2493   15.9970  -12.3341 C   0  0  0  0  0  0  0  0  0  0  0  0
   43.4894   17.1210  -12.9024 O   0  0  0  0  0  0  0  0  0  0  0  0
   43.6570   15.8282  -11.0179 N   0  0  0  0  0  0  0  0  0  0  0  0
   43.4196   14.8746  -10.5641 H   0  0  0  0  0  0  0  0  0  0  0  0
   44.3294   16.7424  -10.1450 C   0  0  0  0  0  0  0  0  0  0  0  0
   43.7474   16.8512   -8.7831 C   0  0  0  0  0  0  0  0  0  0  0  0
   42.4360   16.4476   -8.6806 O   0  0  0  0  0  0  0  0  0  0  0  0
   41.7907   17.1711   -8.5066 H   0  0  0  0  0  0  0  0  0  0  0  0
   44.6354   16.0449   -7.8341 C   0  0  0  0  0  0  0  0  0  0  0  0
   44.9294   16.7405   -6.6349 N   0  0  0  0  0  0  0  0  0  0  0  0
   45.4051   18.0483   -6.7725 C   0  0  0  0  0  0  0  0  0  0  0  0
   45.1080   19.0061   -5.6743 C   0  0  0  0  0  0  0  0  0  0  0  0
   44.7274   18.4375   -4.4868 O   0  0  0  0  0  0  0  0  0  0  0  0
   43.6034   17.6314   -4.7830 C   0  0  0  0  0  0  0  0  0  0  0  0
   44.1685   16.4194   -5.4902 C   0  0  0  0  0  0  0  0  0  0  0  0
  1  2  1  0  0  0
  2  3  1  0  0  0
  3  4  1  0  0  0
  4  9  1  0  0  0
  9 10  2  0  0  0
 10 11  1  0  0  0
 11 12  2  0  0  0
 11 13  1  0  0  0
 13 14  1  0  0  0
 14 15  2  0  0  0
 15 16  1  0  0  0
 16 17  2  0  0  0
 17 18  1  0  0  0
 17 19  1  0  0  0
 19 20  2  0  0  0
  4  5  2  0  0  0
  5  6  1  0  0  0
  5  7  1  0  0  0
  7 22  1  0  0  0
 22 23  2  0  0  0
 22 24  1  0  0  0
 24 26  1  0  0  0
 26 27  1  0  0  0
 27 28  1  0  0  0
 27 30  1  0  0  0
 30 31  1  0  0  0
 31 32  1  0  0  0
 32 33  1  0  0  0
 33 34  1  0  0  0
 34 35  1  0  0  0
 35 36  1  0  0  0
  7  2  2  0  0  0
 36 31  1  0  0  0
 20 10  1  0  0  0
 20 14  1  0  0  0
  3  8  1  0  0  0
 13 21  1  0  0  0
 24 25  1  0  0  0
 28 29  1  0  0  0
M  END
> <minimizedAffinity>
-7.57539

> <CNNscore>
0.4181519151

> <CNNaffinity>
6.0463833809

> <CNN_VS>
2.5283067226

> <CNNaffinity_variance>
1.1098916531

$$$$
[H]O[C@]([H])(C([H])([H])N([H])C(=O)c1c(C([H])([H])[H])c(/C([H])=C2\C(=O)N([H])c3c([H])c([H])c(F)c([H])c32)n([H])c1C([H])([H])[H])C([H])([H])N1C([H])([H])C([H])([H])OC([H])([H])C1([H])[H]


 36 39  0  0  0  0  0  0  0  0999 V2000
   32.4213   15.3472  -12.0311 C   0  0  0  0  0  0  0  0  0  0  0  0
   33.8299   14.9492  -12.3340 C   0  0  0  0  0  0  0  0  0  0  0  0
   34.2961   14.3937  -13.4476 N   0  0  0  0  0  0  0  0  0  0  0  0
   35.5985   14.1770  -13.3491 C   0  0  0  0  0  0  0  0  0  0  0  0
   36.0092   14.6255  -12.0731 C   0  0  0  0  0  0  0  0  0  0  0  0
   37.4132   14.5791  -11.5804 C   0  0  0  0  0  0  0  0  0  0  0  0
   34.9191   15.1011  -11.4482 C   0  0  0  0  0  0  0  0  0  0  0  0
   33.6619   14.1595  -14.2743 H   0  0  0  0  0  0  0  0  0  0  0  0
   36.5533   13.6223  -14.2900 C   0  0  0  0  0  0  0  0  0  0  0  0
   36.2930   12.7067  -15.1978 C   0  0  0  0  0  0  0  0  0  0  0  0
   35.0210   12.0619  -15.4650 C   0  0  0  0  0  0  0  0  0  0  0  0
   33.9124   12.2805  -14.8800 O   0  0  0  0  0  0  0  0  0  0  0  0
   35.2574   11.1332  -16.5194 N   0  0  0  0  0  0  0  0  0  0  0  0
   36.6350   11.1673  -16.9311 C   0  0  0  0  0  0  0  0  0  0  0  0
   37.3457   10.4761  -17.8909 C   0  0  0  0  0  0  0  0  0  0  0  0
   38.6823   10.7110  -18.0784 C   0  0  0  0  0  0  0  0  0  0  0  0
   39.3281   11.6505  -17.2984 C   0  0  0  0  0  0  0  0  0  0  0  0
   40.6610   11.8791  -17.4913 F   0  0  0  0  0  0  0  0  0  0  0  0
   38.6044   12.3323  -16.3446 C   0  0  0  0  0  0  0  0  0  0  0  0
   37.2615   12.1086  -16.1432 C   0  0  0  0  0  0  0  0  0  0  0  0
   34.5414   10.5231  -16.9290 H   0  0  0  0  0  0  0  0  0  0  0  0
   34.8003   15.7182  -10.1244 C   0  0  0  0  0  0  0  0  0  0  0  0
   35.5307   16.7551   -9.9365 O   0  0  0  0  0  0  0  0  0  0  0  0
   33.9850   15.2940   -9.0839 N   0  0  0  0  0  0  0  0  0  0  0  0
   33.3675   14.4280   -9.2851 H   0  0  0  0  0  0  0  0  0  0  0  0
   33.8112   15.8475   -7.7751 C   0  0  0  0  0  0  0  0  0  0  0  0
   32.5749   16.6498   -7.5933 C   0  0  0  0  0  0  0  0  0  0  0  0
   31.8014   16.7845   -8.7233 O   0  0  0  0  0  0  0  0  0  0  0  0
   31.7757   17.6926   -9.1038 H   0  0  0  0  0  0  0  0  0  0  0  0
   31.7693   16.0096   -6.4618 C   0  0  0  0  0  0  0  0  0  0  0  0
   31.7608   16.7953   -5.2824 N   0  0  0  0  0  0  0  0  0  0  0  0
   32.6380   16.4045   -4.2658 C   0  0  0  0  0  0  0  0  0  0  0  0
   33.1564   17.4647   -3.3610 C   0  0  0  0  0  0  0  0  0  0  0  0
   32.4536   18.6412   -3.3725 O   0  0  0  0  0  0  0  0  0  0  0  0
   32.4423   19.0755   -4.7187 C   0  0  0  0  0  0  0  0  0  0  0  0
   31.4524   18.1665   -5.4132 C   0  0  0  0  0  0  0  0  0  0  0  0
  1  2  1  0  0  0
  2  3  1  0  0  0
  3  4  1  0  0  0
  4  9  1  0  0  0
  9 10  2  0  0  0
 10 11  1  0  0  0
 11 12  2  0  0  0
 11 13  1  0  0  0
 13 14  1  0  0  0
 14 15  2  0  0  0
 15 16  1  0  0  0
 16 17  2  0  0  0
 17 18  1  0  0  0
 17 19  1  0  0  0
 19 20  2  0  0  0
  4  5  2  0  0  0
  5  6  1  0  0  0
  5  7  1  0  0  0
  7 22  1  0  0  0
 22 23  2  0  0  0
 22 24  1  0  0  0
 24 26  1  0  0  0
 26 27  1  0  0  0
 27 28  1  0  0  0
 27 30  1  0  0  0
 30 31  1  0  0  0
 31 32  1  0  0  0
 32 33  1  0  0  0
 33 34  1  0  0  0
 34 35  1  0  0  0
 35 36  1  0  0  0
  7  2  2  0  0  0
 36 31  1  0  0  0
 20 10  1  0  0  0
 20 14  1  0  0  0
  3  8  1  0  0  0
 13 21  1  0  0  0
 24 25  1  0  0  0
 28 29  1  0  0  0
M  END
> <minimizedAffinity>
-9.12219

> <CNNscore>
0.3620726466

> <CNNaffinity>
6.0694112778

> <CNN_VS>
2.1975677013

> <CNNaffinity_variance>
0.2101828158

$$$$
[H]O[C@]([H])(C([H])([H])N([H])C(=O)c1c(C([H])([H])[H])c(/C([H])=C2\C(=O)N([H])c3c([H])c([H])c(F)c([H])c32)n([H])c1C([H])([H])[H])C([H])([H])N1C([H])([H])C([H])([H])OC([H])([H])C1([H])[H]


 36 39  0  0  0  0  0  0  0  0999 V2000
   35.8127   14.5578  -10.2401 C   0  0  0  0  0  0  0  0  0  0  0  0
   35.6801   14.1300  -11.6663 C   0  0  0  0  0  0  0  0  0  0  0  0
   36.5890   13.5202  -12.4199 N   0  0  0  0  0  0  0  0  0  0  0  0
   36.1146   13.3041  -13.6369 C   0  0  0  0  0  0  0  0  0  0  0  0
   34.7968   13.8135  -13.6767 C   0  0  0  0  0  0  0  0  0  0  0  0
   33.9068   13.7434  -14.8680 C   0  0  0  0  0  0  0  0  0  0  0  0
   34.5297   14.3224  -12.4623 C   0  0  0  0  0  0  0  0  0  0  0  0
   37.5605   13.2742  -12.0510 H   0  0  0  0  0  0  0  0  0  0  0  0
   36.7029   12.6602  -14.7963 C   0  0  0  0  0  0  0  0  0  0  0  0
   37.9502   12.7871  -15.1943 C   0  0  0  0  0  0  0  0  0  0  0  0
   39.0004   13.5750  -14.5768 C   0  0  0  0  0  0  0  0  0  0  0  0
   38.9120   14.2757  -13.5183 O   0  0  0  0  0  0  0  0  0  0  0  0
   40.1577   13.4063  -15.3905 N   0  0  0  0  0  0  0  0  0  0  0  0
   39.8784   12.5377  -16.5024 C   0  0  0  0  0  0  0  0  0  0  0  0
   40.6494   12.0739  -17.5485 C   0  0  0  0  0  0  0  0  0  0  0  0
   40.1184   11.2351  -18.4927 C   0  0  0  0  0  0  0  0  0  0  0  0
   38.7959   10.8479  -18.3981 C   0  0  0  0  0  0  0  0  0  0  0  0
   38.2737   10.0114  -19.3434 F   0  0  0  0  0  0  0  0  0  0  0  0
   38.0395   11.3196  -17.3475 C   0  0  0  0  0  0  0  0  0  0  0  0
   38.5570   12.1626  -16.3907 C   0  0  0  0  0  0  0  0  0  0  0  0
   41.0669   13.8452  -15.2076 H   0  0  0  0  0  0  0  0  0  0  0  0
   33.2961   14.9335  -11.9602 C   0  0  0  0  0  0  0  0  0  0  0  0
   33.3984   16.1616  -11.6064 O   0  0  0  0  0  0  0  0  0  0  0  0
   32.0571   14.3186  -11.8410 N   0  0  0  0  0  0  0  0  0  0  0  0
   32.0032   13.2882  -12.1681 H   0  0  0  0  0  0  0  0  0  0  0  0
   30.8142   14.8509  -11.3705 C   0  0  0  0  0  0  0  0  0  0  0  0
   30.5971   14.7344   -9.9060 C   0  0  0  0  0  0  0  0  0  0  0  0
   31.0083   13.5434   -9.3533 O   0  0  0  0  0  0  0  0  0  0  0  0
   30.2815   12.9595   -9.0355 H   0  0  0  0  0  0  0  0  0  0  0  0
   31.3070   15.9126   -9.2373 C   0  0  0  0  0  0  0  0  0  0  0  0
   30.5460   16.4877   -8.1892 N   0  0  0  0  0  0  0  0  0  0  0  0
   29.2804   15.9379   -7.9624 C   0  0  0  0  0  0  0  0  0  0  0  0
   28.7435   15.9988   -6.5769 C   0  0  0  0  0  0  0  0  0  0  0  0
   29.3611   16.8981   -5.7474 O   0  0  0  0  0  0  0  0  0  0  0  0
   30.7332   16.5539   -5.7516 C   0  0  0  0  0  0  0  0  0  0  0  0
   31.2499   17.0285   -7.0918 C   0  0  0  0  0  0  0  0  0  0  0  0
  1  2  1  0  0  0
  2  3  1  0  0  0
  3  4  1  0  0  0
  4  9  1  0  0  0
  9 10  2  0  0  0
 10 11  1  0  0  0
 11 12  2  0  0  0
 11 13  1  0  0  0
 13 14  1  0  0  0
 14 15  2  0  0  0
 15 16  1  0  0  0
 16 17  2  0  0  0
 17 18  1  0  0  0
 17 19  1  0  0  0
 19 20  2  0  0  0
  4  5  2  0  0  0
  5  6  1  0  0  0
  5  7  1  0  0  0
  7 22  1  0  0  0
 22 23  2  0  0  0
 22 24  1  0  0  0
 24 26  1  0  0  0
 26 27  1  0  0  0
 27 28  1  0  0  0
 27 30  1  0  0  0
 30 31  1  0  0  0
 31 32  1  0  0  0
 32 33  1  0  0  0
 33 34  1  0  0  0
 34 35  1  0  0  0
 35 36  1  0  0  0
  7  2  2  0  0  0
 36 31  1  0  0  0
 20 10  1  0  0  0
 20 14  1  0  0  0
  3  8  1  0  0  0
 13 21  1  0  0  0
 24 25  1  0  0  0
 28 29  1  0  0  0
M  END
> <minimizedAffinity>
-8.96452

> <CNNscore>
0.3087418973

> <CNNaffinity>
6.3145551682

> <CNN_VS>
1.9495677948

> <CNNaffinity_variance>
0.3163895011

$$$$
[H]O[C@]([H])(C([H])([H])N([H])C(=O)c1c(C([H])([H])[H])c(/C([H])=C2\C(=O)N([H])c3c([H])c([H])c(F)c([H])c32)n([H])c1C([H])([H])[H])C([H])([H])N1C([H])([H])C([H])([H])OC([H])([H])C1([H])[H]


 36 39  0  0  0  0  0  0  0  0999 V2000
   39.1487   16.3672  -10.1343 C   0  0  0  0  0  0  0  0  0  0  0  0
   38.4137   15.4773  -11.0841 C   0  0  0  0  0  0  0  0  0  0  0  0
   38.9000   14.8435  -12.1460 N   0  0  0  0  0  0  0  0  0  0  0  0
   37.9474   14.1512  -12.7510 C   0  0  0  0  0  0  0  0  0  0  0  0
   36.7503   14.3516  -12.0267 C   0  0  0  0  0  0  0  0  0  0  0  0
   35.4464   13.7216  -12.3718 C   0  0  0  0  0  0  0  0  0  0  0  0
   37.0382   15.1689  -10.9998 C   0  0  0  0  0  0  0  0  0  0  0  0
   39.9239   14.9271  -12.4381 H   0  0  0  0  0  0  0  0  0  0  0  0
   37.9801   13.2900  -13.9181 C   0  0  0  0  0  0  0  0  0  0  0  0
   38.8966   13.3103  -14.8614 C   0  0  0  0  0  0  0  0  0  0  0  0
   40.0606   14.1724  -14.9462 C   0  0  0  0  0  0  0  0  0  0  0  0
   40.4215   15.0584  -14.1072 O   0  0  0  0  0  0  0  0  0  0  0  0
   40.7259   13.8277  -16.1579 N   0  0  0  0  0  0  0  0  0  0  0  0
   40.0250   12.7760  -16.8445 C   0  0  0  0  0  0  0  0  0  0  0  0
   40.2602   12.1081  -18.0288 C   0  0  0  0  0  0  0  0  0  0  0  0
   39.4107   11.1229  -18.4587 C   0  0  0  0  0  0  0  0  0  0  0  0
   38.3053   10.7927  -17.6991 C   0  0  0  0  0  0  0  0  0  0  0  0
   37.4629    9.8093  -18.1344 F   0  0  0  0  0  0  0  0  0  0  0  0
   38.0846   11.4688  -16.5190 C   0  0  0  0  0  0  0  0  0  0  0  0
   38.9276   12.4608  -16.0727 C   0  0  0  0  0  0  0  0  0  0  0  0
   41.5882   14.2701  -16.4947 H   0  0  0  0  0  0  0  0  0  0  0  0
   36.1676   15.6577   -9.9273 C   0  0  0  0  0  0  0  0  0  0  0  0
   36.0818   16.9334   -9.8308 O   0  0  0  0  0  0  0  0  0  0  0  0
   35.4424   14.8829   -9.0324 N   0  0  0  0  0  0  0  0  0  0  0  0
   35.5229   13.8106   -9.1564 H   0  0  0  0  0  0  0  0  0  0  0  0
   34.5703   15.2872   -7.9714 C   0  0  0  0  0  0  0  0  0  0  0  0
   33.2555   15.8204   -8.4099 C   0  0  0  0  0  0  0  0  0  0  0  0
   32.8257   15.3641   -9.6347 O   0  0  0  0  0  0  0  0  0  0  0  0
   32.8132   16.0415  -10.3498 H   0  0  0  0  0  0  0  0  0  0  0  0
   32.2339   15.4867   -7.3216 C   0  0  0  0  0  0  0  0  0  0  0  0
   31.6560   16.6423   -6.7395 N   0  0  0  0  0  0  0  0  0  0  0  0
   32.5432   17.6284   -6.2966 C   0  0  0  0  0  0  0  0  0  0  0  0
   32.0665   19.0369   -6.3096 C   0  0  0  0  0  0  0  0  0  0  0  0
   30.7082   19.1959   -6.3989 O   0  0  0  0  0  0  0  0  0  0  0  0
   30.3114   18.5088   -7.5700 C   0  0  0  0  0  0  0  0  0  0  0  0
   30.3851   17.0424   -7.2054 C   0  0  0  0  0  0  0  0  0  0  0  0
  1  2  1  0  0  0
  2  3  1  0  0  0
  3  4  1  0  0  0
  4  9  1  0  0  0
  9 10  2  0  0  0
 10 11  1  0  0  0
 11 12  2  0  0  0
 11 13  1  0  0  0
 13 14  1  0  0  0
 14 15  2  0  0  0
 15 16  1  0  0  0
 16 17  2  0  0  0
 17 18  1  0  0  0
 17 19  1  0  0  0
 19 20  2  0  0  0
  4  5  2  0  0  0
  5  6  1  0  0  0
  5  7  1  0  0  0
  7 22  1  0  0  0
 22 23  2  0  0  0
 22 24  1  0  0  0
 24 26  1  0  0  0
 26 27  1  0  0  0
 27 28  1  0  0  0
 27 30  1  0  0  0
 30 31  1  0  0  0
 31 32  1  0  0  0
 32 33  1  0  0  0
 33 34  1  0  0  0
 34 35  1  0  0  0
 35 36  1  0  0  0
  7  2  2  0  0  0
 36 31  1  0  0  0
 20 10  1  0  0  0
 20 14  1  0  0  0
  3  8  1  0  0  0
 13 21  1  0  0  0
 24 25  1  0  0  0
 28 29  1  0  0  0
M  END
> <minimizedAffinity>
-9.05897

> <CNNscore>
0.2910304070

> <CNNaffinity>
5.9420719147

> <CNN_VS>
1.7293236256

> <CNNaffinity_variance>
0.1749778092

$$$$
[H]O[C@]([H])(C([H])([H])N([H])C(=O)c1c(C([H])([H])[H])c(/C([H])=C2\C(=O)N([H])c3c([H])c([H])c(F)c([H])c32)n([H])c1C([H])([H])[H])C([H])([H])N1C([H])([H])C([H])([H])OC([H])([H])C1([H])[H]


 36 39  0  0  0  0  0  0  0  0999 V2000
   41.7382   16.4637  -11.8938 C   0  0  0  0  0  0  0  0  0  0  0  0
   40.4590   15.7762  -12.2479 C   0  0  0  0  0  0  0  0  0  0  0  0
   40.2217   14.9877  -13.2909 N   0  0  0  0  0  0  0  0  0  0  0  0
   38.9671   14.5651  -13.2783 C   0  0  0  0  0  0  0  0  0  0  0  0
   38.3416   15.1228  -12.1400 C   0  0  0  0  0  0  0  0  0  0  0  0
   36.9268   14.8691  -11.7524 C   0  0  0  0  0  0  0  0  0  0  0  0
   39.2614   15.8690  -11.5056 C   0  0  0  0  0  0  0  0  0  0  0  0
   40.9707   14.7691  -14.0201 H   0  0  0  0  0  0  0  0  0  0  0  0
   38.2427   13.6811  -14.1719 C   0  0  0  0  0  0  0  0  0  0  0  0
   38.7648   13.0046  -15.1719 C   0  0  0  0  0  0  0  0  0  0  0  0
   40.1521   12.9819  -15.5964 C   0  0  0  0  0  0  0  0  0  0  0  0
   41.1277   13.6002  -15.0627 O   0  0  0  0  0  0  0  0  0  0  0  0
   40.2085   12.1236  -16.7322 N   0  0  0  0  0  0  0  0  0  0  0  0
   38.9053   11.6001  -17.0425 C   0  0  0  0  0  0  0  0  0  0  0  0
   38.4456   10.7460  -18.0239 C   0  0  0  0  0  0  0  0  0  0  0  0
   37.1207   10.4036  -18.0911 C   0  0  0  0  0  0  0  0  0  0  0  0
   36.2331   10.9184  -17.1664 C   0  0  0  0  0  0  0  0  0  0  0  0
   34.9136   10.5724  -17.2400 F   0  0  0  0  0  0  0  0  0  0  0  0
   36.7079   11.7697  -16.1927 C   0  0  0  0  0  0  0  0  0  0  0  0
   38.0352   12.1239  -16.1109 C   0  0  0  0  0  0  0  0  0  0  0  0
   41.0634   11.9085  -17.2573 H   0  0  0  0  0  0  0  0  0  0  0  0
   39.1447   16.6265  -10.2567 C   0  0  0  0  0  0  0  0  0  0  0  0
   38.8042   17.8552  -10.3917 O   0  0  0  0  0  0  0  0  0  0  0  0
   39.3597   16.1436   -8.9730 N   0  0  0  0  0  0  0  0  0  0  0  0
   39.6257   15.0973   -8.8958 H   0  0  0  0  0  0  0  0  0  0  0  0
   39.2571   16.8175   -7.7140 C   0  0  0  0  0  0  0  0  0  0  0  0
   38.0283   16.5119   -6.9382 C   0  0  0  0  0  0  0  0  0  0  0  0
   38.1919   16.5116   -5.5721 O   0  0  0  0  0  0  0  0  0  0  0  0
   38.1193   15.6272   -5.1447 H   0  0  0  0  0  0  0  0  0  0  0  0
   36.9559   17.5206   -7.3525 C   0  0  0  0  0  0  0  0  0  0  0  0
   37.2345   18.8341   -6.8992 N   0  0  0  0  0  0  0  0  0  0  0  0
   37.4660   19.7986   -7.8849 C   0  0  0  0  0  0  0  0  0  0  0  0
   37.1107   21.2067   -7.5646 C   0  0  0  0  0  0  0  0  0  0  0  0
   36.9416   21.4807   -6.2325 O   0  0  0  0  0  0  0  0  0  0  0  0
   35.9492   20.5836   -5.7728 C   0  0  0  0  0  0  0  0  0  0  0  0
   36.6462   19.2439   -5.6833 C   0  0  0  0  0  0  0  0  0  0  0  0
  1  2  1  0  0  0
  2  3  1  0  0  0
  3  4  1  0  0  0
  4  9  1  0  0  0
  9 10  2  0  0  0
 10 11  1  0  0  0
 11 12  2  0  0  0
 11 13  1  0  0  0
 13 14  1  0  0  0
 14 15  2  0  0  0
 15 16  1  0  0  0
 16 17  2  0  0  0
 17 18  1  0  0  0
 17 19  1  0  0  0
 19 20  2  0  0  0
  4  5  2  0  0  0
  5  6  1  0  0  0
  5  7  1  0  0  0
  7 22  1  0  0  0
 22 23  2  0  0  0
 22 24  1  0  0  0
 24 26  1  0  0  0
 26 27  1  0  0  0
 27 28  1  0  0  0
 27 30  1  0  0  0
 30 31  1  0  0  0
 31 32  1  0  0  0
 32 33  1  0  0  0
 33 34  1  0  0  0
 34 35  1  0  0  0
 35 36  1  0  0  0
  7  2  2  0  0  0
 36 31  1  0  0  0
 20 10  1  0  0  0
 20 14  1  0  0  0
  3  8  1  0  0  0
 13 21  1  0  0  0
 24 25  1  0  0  0
 28 29  1  0  0  0
M  END
> <minimizedAffinity>
-8.44883

> <CNNscore>
0.2788831890

> <CNNaffinity>
6.1159939766

> <CNN_VS>
1.7056479454

> <CNNaffinity_variance>
0.4176424146

$$$$
[H]O[C@]([H])(C([H])([H])N([H])C(=O)c1c(C([H])([H])[H])c(/C([H])=C2\C(=O)N([H])c3c([H])c([H])c(F)c([H])c32)n([H])c1C([H])([H])[H])C([H])([H])N1C([H])([H])C([H])([H])OC([H])([H])C1([H])[H]


 36 39  0  0  0  0  0  0  0  0999 V2000
   39.0254   16.3071  -10.3875 C   0  0  0  0  0  0  0  0  0  0  0  0
   38.3848   15.3214  -11.3109 C   0  0  0  0  0  0  0  0  0  0  0  0
   38.8748   14.8330  -12.4454 N   0  0  0  0  0  0  0  0  0  0  0  0
   38.0184   13.9861  -12.9952 C   0  0  0  0  0  0  0  0  0  0  0  0
   36.8850   13.9203  -12.1533 C   0  0  0  0  0  0  0  0  0  0  0  0
   35.7002   13.0559  -12.4088 C   0  0  0  0  0  0  0  0  0  0  0  0
   37.1113   14.7434  -11.1158 C   0  0  0  0  0  0  0  0  0  0  0  0
   39.8278   15.1280  -12.8264 H   0  0  0  0  0  0  0  0  0  0  0  0
   38.0993   13.1883  -14.2043 C   0  0  0  0  0  0  0  0  0  0  0  0
   39.1431   13.1049  -15.0004 C   0  0  0  0  0  0  0  0  0  0  0  0
   40.4243   13.7696  -14.8524 C   0  0  0  0  0  0  0  0  0  0  0  0
   40.7823   14.5437  -13.9081 O   0  0  0  0  0  0  0  0  0  0  0  0
   41.2087   13.3802  -15.9763 N   0  0  0  0  0  0  0  0  0  0  0  0
   40.4699   12.4908  -16.8317 C   0  0  0  0  0  0  0  0  0  0  0  0
   40.7807   11.8514  -18.0144 C   0  0  0  0  0  0  0  0  0  0  0  0
   39.8673   11.0392  -18.6333 C   0  0  0  0  0  0  0  0  0  0  0  0
   38.6201   10.8568  -18.0683 C   0  0  0  0  0  0  0  0  0  0  0  0
   37.7148   10.0454  -18.6914 F   0  0  0  0  0  0  0  0  0  0  0  0
   38.3254   11.5020  -16.8871 C   0  0  0  0  0  0  0  0  0  0  0  0
   39.2310   12.3212  -16.2525 C   0  0  0  0  0  0  0  0  0  0  0  0
   42.1703   13.6925  -16.1512 H   0  0  0  0  0  0  0  0  0  0  0  0
   36.2756   15.0133   -9.9426 C   0  0  0  0  0  0  0  0  0  0  0  0
   35.3664   15.9014  -10.1111 O   0  0  0  0  0  0  0  0  0  0  0  0
   36.3749   14.4053   -8.6985 N   0  0  0  0  0  0  0  0  0  0  0  0
   37.1402   13.6463   -8.5988 H   0  0  0  0  0  0  0  0  0  0  0  0
   35.5937   14.6100   -7.5164 C   0  0  0  0  0  0  0  0  0  0  0  0
   36.0414   13.8395   -6.3284 C   0  0  0  0  0  0  0  0  0  0  0  0
   36.8936   12.7951   -6.6040 O   0  0  0  0  0  0  0  0  0  0  0  0
   36.5125   11.8983   -6.4603 H   0  0  0  0  0  0  0  0  0  0  0  0
   36.6923   14.8242   -5.3558 C   0  0  0  0  0  0  0  0  0  0  0  0
   35.7684   15.3749   -4.4331 N   0  0  0  0  0  0  0  0  0  0  0  0
   35.6389   16.7673   -4.4352 C   0  0  0  0  0  0  0  0  0  0  0  0
   34.3235   17.3352   -4.0368 C   0  0  0  0  0  0  0  0  0  0  0  0
   33.4945   16.4777   -3.3616 O   0  0  0  0  0  0  0  0  0  0  0  0
   33.3339   15.3497   -4.1999 C   0  0  0  0  0  0  0  0  0  0  0  0
   34.6413   14.5960   -4.0937 C   0  0  0  0  0  0  0  0  0  0  0  0
  1  2  1  0  0  0
  2  3  1  0  0  0
  3  4  1  0  0  0
  4  9  1  0  0  0
  9 10  2  0  0  0
 10 11  1  0  0  0
 11 12  2  0  0  0
 11 13  1  0  0  0
 13 14  1  0  0  0
 14 15  2  0  0  0
 15 16  1  0  0  0
 16 17  2  0  0  0
 17 18  1  0  0  0
 17 19  1  0  0  0
 19 20  2  0  0  0
  4  5  2  0  0  0
  5  6  1  0  0  0
  5  7  1  0  0  0
  7 22  1  0  0  0
 22 23  2  0  0  0
 22 24  1  0  0  0
 24 26  1  0  0  0
 26 27  1  0  0  0
 27 28  1  0  0  0
 27 30  1  0  0  0
 30 31  1  0  0  0
 31 32  1  0  0  0
 32 33  1  0  0  0
 33 34  1  0  0  0
 34 35  1  0  0  0
 35 36  1  0  0  0
  7  2  2  0  0  0
 36 31  1  0  0  0
 20 10  1  0  0  0
 20 14  1  0  0  0
  3  8  1  0  0  0
 13 21  1  0  0  0
 24 25  1  0  0  0
 28 29  1  0  0  0
M  END
> <minimizedAffinity>
-9.21202

> <CNNscore>
0.2451955527

> <CNNaffinity>
5.8983888626

> <CNN_VS>
1.4462586641

> <CNNaffinity_variance>
0.2954288423

$$$$
[H]O[C@]1([H])C([H])([H])C([H])([H])[C@@]([H])(C([H])([H])N([H])C(=O)c2c(C([H])([H])[H])c(/C([H])=C3\C(=O)N([H])c4c([H])c([H])c(F)c([H])c43)n([H])c2C([H])([H])[H])C([H])([H])C1([H])[H]


 34 37  0  0  0  0  0  0  0  0999 V2000
   44.6225   11.9457  -17.5835 C   0  0  0  0  0  0  0  0  0  0  0  0
   43.5529   12.4174  -16.6360 C   0  0  0  0  0  0  0  0  0  0  0  0
   42.2351   12.1392  -16.7998 N   0  0  0  0  0  0  0  0  0  0  0  0
   41.4772   12.6654  -15.8457 C   0  0  0  0  0  0  0  0  0  0  0  0
   42.3707   13.3248  -15.0171 C   0  0  0  0  0  0  0  0  0  0  0  0
   41.9570   14.0790  -13.7854 C   0  0  0  0  0  0  0  0  0  0  0  0
   43.6722   13.1725  -15.5064 C   0  0  0  0  0  0  0  0  0  0  0  0
   41.8781   11.5841  -17.6046 H   0  0  0  0  0  0  0  0  0  0  0  0
   40.0501   12.6030  -15.6171 C   0  0  0  0  0  0  0  0  0  0  0  0
   39.1857   11.9721  -16.3853 C   0  0  0  0  0  0  0  0  0  0  0  0
   39.4706   11.2148  -17.5946 C   0  0  0  0  0  0  0  0  0  0  0  0
   40.5932   11.0085  -18.1059 O   0  0  0  0  0  0  0  0  0  0  0  0
   38.1968   10.7504  -18.0776 N   0  0  0  0  0  0  0  0  0  0  0  0
   37.1660   11.2007  -17.2026 C   0  0  0  0  0  0  0  0  0  0  0  0
   35.7849   11.0208  -17.2287 C   0  0  0  0  0  0  0  0  0  0  0  0
   34.9862   11.5630  -16.2541 C   0  0  0  0  0  0  0  0  0  0  0  0
   35.5301   12.2991  -15.2250 C   0  0  0  0  0  0  0  0  0  0  0  0
   34.7836   12.8472  -14.2506 F   0  0  0  0  0  0  0  0  0  0  0  0
   36.9193   12.4663  -15.2196 C   0  0  0  0  0  0  0  0  0  0  0  0
   37.7161   11.9310  -16.1832 C   0  0  0  0  0  0  0  0  0  0  0  0
   38.0727   10.1796  -18.9300 H   0  0  0  0  0  0  0  0  0  0  0  0
   44.8665   13.7028  -14.9006 C   0  0  0  0  0  0  0  0  0  0  0  0
   45.5519   12.8266  -14.2325 O   0  0  0  0  0  0  0  0  0  0  0  0
   45.3682   15.0081  -14.9418 N   0  0  0  0  0  0  0  0  0  0  0  0
   44.9196   15.7758  -15.4409 H   0  0  0  0  0  0  0  0  0  0  0  0
   46.6054   15.2976  -14.2416 C   0  0  0  0  0  0  0  0  0  0  0  0
   46.3218   16.1026  -12.9666 C   0  0  0  0  0  0  0  0  0  0  0  0
   47.3487   17.1680  -12.8942 C   0  0  0  0  0  0  0  0  0  0  0  0
   46.8819   18.4899  -12.3857 C   0  0  0  0  0  0  0  0  0  0  0  0
   45.6668   18.8591  -13.2516 C   0  0  0  0  0  0  0  0  0  0  0  0
   45.3291   20.1658  -13.0172 O   0  0  0  0  0  0  0  0  0  0  0  0
   44.5831   17.9225  -12.7691 C   0  0  0  0  0  0  0  0  0  0  0  0
   44.9123   16.4873  -12.8917 C   0  0  0  0  0  0  0  0  0  0  0  0
   44.9569   20.5361  -13.8758 H   0  0  0  0  0  0  0  0  0  0  0  0
  1  2  1  0  0  0
  2  3  1  0  0  0
  3  4  1  0  0  0
  4  9  1  0  0  0
  9 10  2  0  0  0
 10 11  1  0  0  0
 11 12  2  0  0  0
 11 13  1  0  0  0
 13 14  1  0  0  0
 14 15  2  0  0  0
 15 16  1  0  0  0
 16 17  2  0  0  0
 17 18  1  0  0  0
 17 19  1  0  0  0
 19 20  2  0  0  0
  4  5  2  0  0  0
  5  6  1  0  0  0
  5  7  1  0  0  0
  7 22  1  0  0  0
 22 23  2  0  0  0
 22 24  1  0  0  0
 24 26  1  0  0  0
 26 27  1  0  0  0
 27 28  1  0  0  0
 28 29  1  0  0  0
 29 30  1  0  0  0
 30 31  1  0  0  0
 30 32  1  0  0  0
 32 33  1  0  0  0
  7  2  2  0  0  0
 33 27  1  0  0  0
 20 10  1  0  0  0
 20 14  1  0  0  0
  3  8  1  0  0  0
 13 21  1  0  0  0
 24 25  1  0  0  0
 31 34  1  0  0  0
M  END
> <minimizedAffinity>
-10.42867

> <CNNscore>
0.8779505491

> <CNNaffinity>
7.0475296974

> <CNN_VS>
6.1873826981

> <CNNaffinity_variance>
0.1598028690

$$$$
[H]O[C@]1([H])C([H])([H])C([H])([H])[C@@]([H])(C([H])([H])N([H])C(=O)c2c(C([H])([H])[H])c(/C([H])=C3\C(=O)N([H])c4c([H])c([H])c(F)c([H])c43)n([H])c2C([H])([H])[H])C([H])([H])C1([H])[H]


 34 37  0  0  0  0  0  0  0  0999 V2000
   44.6634   11.9904  -17.5731 C   0  0  0  0  0  0  0  0  0  0  0  0
   43.5827   12.4409  -16.6278 C   0  0  0  0  0  0  0  0  0  0  0  0
   42.2692   12.1503  -16.8027 N   0  0  0  0  0  0  0  0  0  0  0  0
   41.4996   12.6585  -15.8484 C   0  0  0  0  0  0  0  0  0  0  0  0
   42.3806   13.3192  -15.0075 C   0  0  0  0  0  0  0  0  0  0  0  0
   41.9510   14.0565  -13.7711 C   0  0  0  0  0  0  0  0  0  0  0  0
   43.6867   13.1860  -15.4900 C   0  0  0  0  0  0  0  0  0  0  0  0
   41.9232   11.5994  -17.6153 H   0  0  0  0  0  0  0  0  0  0  0  0
   40.0719   12.5784  -15.6295 C   0  0  0  0  0  0  0  0  0  0  0  0
   39.2167   11.9622  -16.4197 C   0  0  0  0  0  0  0  0  0  0  0  0
   39.5143   11.2410  -17.6478 C   0  0  0  0  0  0  0  0  0  0  0  0
   40.6412   11.0579  -18.1584 O   0  0  0  0  0  0  0  0  0  0  0  0
   38.2468   10.7799  -18.1506 N   0  0  0  0  0  0  0  0  0  0  0  0
   37.2077   11.1976  -17.2692 C   0  0  0  0  0  0  0  0  0  0  0  0
   35.8283   11.0075  -17.3080 C   0  0  0  0  0  0  0  0  0  0  0  0
   35.0201   11.5160  -16.3232 C   0  0  0  0  0  0  0  0  0  0  0  0
   35.5524   12.2277  -15.2711 C   0  0  0  0  0  0  0  0  0  0  0  0
   34.7963   12.7426  -14.2861 F   0  0  0  0  0  0  0  0  0  0  0  0
   36.9402   12.4058  -15.2533 C   0  0  0  0  0  0  0  0  0  0  0  0
   37.7464   11.9038  -16.2270 C   0  0  0  0  0  0  0  0  0  0  0  0
   38.1320   10.2320  -19.0191 H   0  0  0  0  0  0  0  0  0  0  0  0
   44.8714   13.7230  -14.8713 C   0  0  0  0  0  0  0  0  0  0  0  0
   45.3927   12.9481  -13.9705 O   0  0  0  0  0  0  0  0  0  0  0  0
   45.5146   14.9415  -15.1137 N   0  0  0  0  0  0  0  0  0  0  0  0
   45.2003   15.6250  -15.8020 H   0  0  0  0  0  0  0  0  0  0  0  0
   46.7067   15.2600  -14.3507 C   0  0  0  0  0  0  0  0  0  0  0  0
   46.3945   16.3261  -13.2924 C   0  0  0  0  0  0  0  0  0  0  0  0
   45.1717   17.0317  -13.7416 C   0  0  0  0  0  0  0  0  0  0  0  0
   44.2094   17.4156  -12.6690 C   0  0  0  0  0  0  0  0  0  0  0  0
   43.9263   16.1230  -11.8871 C   0  0  0  0  0  0  0  0  0  0  0  0
   42.8679   16.3319  -11.0428 O   0  0  0  0  0  0  0  0  0  0  0  0
   45.2015   15.8849  -11.1115 C   0  0  0  0  0  0  0  0  0  0  0  0
   46.4127   15.7513  -11.9473 C   0  0  0  0  0  0  0  0  0  0  0  0
   42.3747   15.4584  -10.9613 H   0  0  0  0  0  0  0  0  0  0  0  0
  1  2  1  0  0  0
  2  3  1  0  0  0
  3  4  1  0  0  0
  4  9  1  0  0  0
  9 10  2  0  0  0
 10 11  1  0  0  0
 11 12  2  0  0  0
 11 13  1  0  0  0
 13 14  1  0  0  0
 14 15  2  0  0  0
 15 16  1  0  0  0
 16 17  2  0  0  0
 17 18  1  0  0  0
 17 19  1  0  0  0
 19 20  2  0  0  0
  4  5  2  0  0  0
  5  6  1  0  0  0
  5  7  1  0  0  0
  7 22  1  0  0  0
 22 23  2  0  0  0
 22 24  1  0  0  0
 24 26  1  0  0  0
 26 27  1  0  0  0
 27 28  1  0  0  0
 28 29  1  0  0  0
 29 30  1  0  0  0
 30 31  1  0  0  0
 30 32  1  0  0  0
 32 33  1  0  0  0
  7  2  2  0  0  0
 33 27  1  0  0  0
 20 10  1  0  0  0
 20 14  1  0  0  0
  3  8  1  0  0  0
 13 21  1  0  0  0
 24 25  1  0  0  0
 31 34  1  0  0  0
M  END
> <minimizedAffinity>
-9.76571

> <CNNscore>
0.8546323776

> <CNNaffinity>
7.0480546951

> <CNN_VS>
6.0234956741

> <CNNaffinity_variance>
0.1723492444

$$$$
[H]O[C@]1([H])C([H])([H])C([H])([H])[C@@]([H])(C([H])([H])N([H])C(=O)c2c(C([H])([H])[H])c(/C([H])=C3\C(=O)N([H])c4c([H])c([H])c(F)c([H])c43)n([H])c2C([H])([H])[H])C([H])([H])C1([H])[H]


 34 37  0  0  0  0  0  0  0  0999 V2000
   45.0881   12.5286  -16.8986 C   0  0  0  0  0  0  0  0  0  0  0  0
   43.8726   12.8971  -16.0916 C   0  0  0  0  0  0  0  0  0  0  0  0
   42.6242   12.4480  -16.3752 N   0  0  0  0  0  0  0  0  0  0  0  0
   41.7089   12.9103  -15.5326 C   0  0  0  0  0  0  0  0  0  0  0  0
   42.4202   13.7093  -14.6520 C   0  0  0  0  0  0  0  0  0  0  0  0
   41.7866   14.4521  -13.5102 C   0  0  0  0  0  0  0  0  0  0  0  0
   43.7758   13.7045  -14.9965 C   0  0  0  0  0  0  0  0  0  0  0  0
   42.4268   11.8213  -17.1824 H   0  0  0  0  0  0  0  0  0  0  0  0
   40.2838   12.6763  -15.4488 C   0  0  0  0  0  0  0  0  0  0  0  0
   39.5586   12.0737  -16.3687 C   0  0  0  0  0  0  0  0  0  0  0  0
   40.0212   11.5205  -17.6324 C   0  0  0  0  0  0  0  0  0  0  0  0
   41.1970   11.4980  -18.0582 O   0  0  0  0  0  0  0  0  0  0  0  0
   38.8492   11.0024  -18.2880 N   0  0  0  0  0  0  0  0  0  0  0  0
   37.7083   11.2248  -17.4634 C   0  0  0  0  0  0  0  0  0  0  0  0
   36.3622   10.9144  -17.6418 C   0  0  0  0  0  0  0  0  0  0  0  0
   35.4331   11.2368  -16.6854 C   0  0  0  0  0  0  0  0  0  0  0  0
   35.8083   11.8758  -15.5245 C   0  0  0  0  0  0  0  0  0  0  0  0
   34.9303   12.2092  -14.5627 F   0  0  0  0  0  0  0  0  0  0  0  0
   37.1655   12.1774  -15.3675 C   0  0  0  0  0  0  0  0  0  0  0  0
   38.0911   11.8601  -16.3123 C   0  0  0  0  0  0  0  0  0  0  0  0
   38.8576   10.5438  -19.2139 H   0  0  0  0  0  0  0  0  0  0  0  0
   44.8238   14.4050  -14.2997 C   0  0  0  0  0  0  0  0  0  0  0  0
   45.0821   15.5816  -14.7821 O   0  0  0  0  0  0  0  0  0  0  0  0
   45.5772   13.9887  -13.1969 N   0  0  0  0  0  0  0  0  0  0  0  0
   45.4571   13.0896  -12.7310 H   0  0  0  0  0  0  0  0  0  0  0  0
   46.5891   14.8851  -12.6703 C   0  0  0  0  0  0  0  0  0  0  0  0
   47.9883   14.4173  -13.0914 C   0  0  0  0  0  0  0  0  0  0  0  0
   47.8671   12.9913  -13.4743 C   0  0  0  0  0  0  0  0  0  0  0  0
   48.6895   12.5570  -14.6400 C   0  0  0  0  0  0  0  0  0  0  0  0
   48.3444   13.5343  -15.7750 C   0  0  0  0  0  0  0  0  0  0  0  0
   48.8663   13.0603  -16.9495 O   0  0  0  0  0  0  0  0  0  0  0  0
   49.0201   14.8210  -15.3601 C   0  0  0  0  0  0  0  0  0  0  0  0
   48.5863   15.3474  -14.0493 C   0  0  0  0  0  0  0  0  0  0  0  0
   48.2457   13.3464  -17.6884 H   0  0  0  0  0  0  0  0  0  0  0  0
  1  2  1  0  0  0
  2  3  1  0  0  0
  3  4  1  0  0  0
  4  9  1  0  0  0
  9 10  2  0  0  0
 10 11  1  0  0  0
 11 12  2  0  0  0
 11 13  1  0  0  0
 13 14  1  0  0  0
 14 15  2  0  0  0
 15 16  1  0  0  0
 16 17  2  0  0  0
 17 18  1  0  0  0
 17 19  1  0  0  0
 19 20  2  0  0  0
  4  5  2  0  0  0
  5  6  1  0  0  0
  5  7  1  0  0  0
  7 22  1  0  0  0
 22 23  2  0  0  0
 22 24  1  0  0  0
 24 26  1  0  0  0
 26 27  1  0  0  0
 27 28  1  0  0  0
 28 29  1  0  0  0
 29 30  1  0  0  0
 30 31  1  0  0  0
 30 32  1  0  0  0
 32 33  1  0  0  0
  7  2  2  0  0  0
 33 27  1  0  0  0
 20 10  1  0  0  0
 20 14  1  0  0  0
  3  8  1  0  0  0
 13 21  1  0  0  0
 24 25  1  0  0  0
 31 34  1  0  0  0
M  END
> <minimizedAffinity>
-9.38589

> <CNNscore>
0.7763327360

> <CNNaffinity>
6.8603463173

> <CNN_VS>
5.3259115219

> <CNNaffinity_variance>
0.1868431270

$$$$
[H]O[C@]1([H])C([H])([H])C([H])([H])[C@@]([H])(C([H])([H])N([H])C(=O)c2c(C([H])([H])[H])c(/C([H])=C3\C(=O)N([H])c4c([H])c([H])c(F)c([H])c43)n([H])c2C([H])([H])[H])C([H])([H])C1([H])[H]


 34 37  0  0  0  0  0  0  0  0999 V2000
   44.5965   12.0019  -17.5581 C   0  0  0  0  0  0  0  0  0  0  0  0
   43.5148   12.4620  -16.6187 C   0  0  0  0  0  0  0  0  0  0  0  0
   42.2000   12.1800  -16.7990 N   0  0  0  0  0  0  0  0  0  0  0  0
   41.4297   12.6958  -15.8493 C   0  0  0  0  0  0  0  0  0  0  0  0
   42.3115   13.3523  -15.0059 C   0  0  0  0  0  0  0  0  0  0  0  0
   41.8814   14.0954  -13.7731 C   0  0  0  0  0  0  0  0  0  0  0  0
   43.6188   13.2090  -15.4822 C   0  0  0  0  0  0  0  0  0  0  0  0
   41.8540   11.6297  -17.6118 H   0  0  0  0  0  0  0  0  0  0  0  0
   40.0005   12.6260  -15.6367 C   0  0  0  0  0  0  0  0  0  0  0  0
   39.1496   11.9800  -16.4074 C   0  0  0  0  0  0  0  0  0  0  0  0
   39.4540   11.2106  -17.6041 C   0  0  0  0  0  0  0  0  0  0  0  0
   40.5839   11.0061  -18.0998 O   0  0  0  0  0  0  0  0  0  0  0  0
   38.1892   10.7315  -18.0965 N   0  0  0  0  0  0  0  0  0  0  0  0
   37.1450   11.1848  -17.2390 C   0  0  0  0  0  0  0  0  0  0  0  0
   35.7656   10.9949  -17.2793 C   0  0  0  0  0  0  0  0  0  0  0  0
   34.9517   11.5429  -16.3206 C   0  0  0  0  0  0  0  0  0  0  0  0
   35.4783   12.2950  -15.2940 C   0  0  0  0  0  0  0  0  0  0  0  0
   34.7166   12.8492  -14.3350 F   0  0  0  0  0  0  0  0  0  0  0  0
   36.8662   12.4720  -15.2743 C   0  0  0  0  0  0  0  0  0  0  0  0
   37.6779   11.9310  -16.2221 C   0  0  0  0  0  0  0  0  0  0  0  0
   38.0791   10.1497  -18.9434 H   0  0  0  0  0  0  0  0  0  0  0  0
   44.8043   13.7392  -14.8594 C   0  0  0  0  0  0  0  0  0  0  0  0
   44.9089   15.0301  -14.9392 O   0  0  0  0  0  0  0  0  0  0  0  0
   45.8292   13.0564  -14.1956 N   0  0  0  0  0  0  0  0  0  0  0  0
   45.8496   12.0452  -14.0656 H   0  0  0  0  0  0  0  0  0  0  0  0
   46.9320   13.8237  -13.6480 C   0  0  0  0  0  0  0  0  0  0  0  0
   47.2694   13.3382  -12.2322 C   0  0  0  0  0  0  0  0  0  0  0  0
   46.0364   13.4826  -11.4237 C   0  0  0  0  0  0  0  0  0  0  0  0
   45.7780   12.4010  -10.4300 C   0  0  0  0  0  0  0  0  0  0  0  0
   45.8475   11.0866  -11.2237 C   0  0  0  0  0  0  0  0  0  0  0  0
   45.3794   10.0644  -10.4410 O   0  0  0  0  0  0  0  0  0  0  0  0
   47.3213   10.9185  -11.5134 C   0  0  0  0  0  0  0  0  0  0  0  0
   47.9299   12.0334  -12.2685 C   0  0  0  0  0  0  0  0  0  0  0  0
   44.9403    9.3972  -11.0533 H   0  0  0  0  0  0  0  0  0  0  0  0
  1  2  1  0  0  0
  2  3  1  0  0  0
  3  4  1  0  0  0
  4  9  1  0  0  0
  9 10  2  0  0  0
 10 11  1  0  0  0
 11 12  2  0  0  0
 11 13  1  0  0  0
 13 14  1  0  0  0
 14 15  2  0  0  0
 15 16  1  0  0  0
 16 17  2  0  0  0
 17 18  1  0  0  0
 17 19  1  0  0  0
 19 20  2  0  0  0
  4  5  2  0  0  0
  5  6  1  0  0  0
  5  7  1  0  0  0
  7 22  1  0  0  0
 22 23  2  0  0  0
 22 24  1  0  0  0
 24 26  1  0  0  0
 26 27  1  0  0  0
 27 28  1  0  0  0
 28 29  1  0  0  0
 29 30  1  0  0  0
 30 31  1  0  0  0
 30 32  1  0  0  0
 32 33  1  0  0  0
  7  2  2  0  0  0
 33 27  1  0  0  0
 20 10  1  0  0  0
 20 14  1  0  0  0
  3  8  1  0  0  0
 13 21  1  0  0  0
 24 25  1  0  0  0
 31 34  1  0  0  0
M  END
> <minimizedAffinity>
-9.84106

> <CNNscore>
0.7060185075

> <CNNaffinity>
6.9460573196

> <CNN_VS>
4.9040451050

> <CNNaffinity_variance>
0.3130080998

$$$$
[H]O[C@]1([H])C([H])([H])C([H])([H])[C@@]([H])(C([H])([H])N([H])C(=O)c2c(C([H])([H])[H])c(/C([H])=C3\C(=O)N([H])c4c([H])c([H])c(F)c([H])c43)n([H])c2C([H])([H])[H])C([H])([H])C1([H])[H]


 34 37  0  0  0  0  0  0  0  0999 V2000
   44.8035   12.0386  -17.5327 C   0  0  0  0  0  0  0  0  0  0  0  0
   43.8898   12.5336  -16.4443 C   0  0  0  0  0  0  0  0  0  0  0  0
   42.5374   12.5406  -16.5509 N   0  0  0  0  0  0  0  0  0  0  0  0
   41.9400   13.0285  -15.4708 C   0  0  0  0  0  0  0  0  0  0  0  0
   42.9809   13.3560  -14.6170 C   0  0  0  0  0  0  0  0  0  0  0  0
   42.7777   13.9521  -13.2530 C   0  0  0  0  0  0  0  0  0  0  0  0
   44.2044   13.0478  -15.2207 C   0  0  0  0  0  0  0  0  0  0  0  0
   42.0435   12.2089  -17.4050 H   0  0  0  0  0  0  0  0  0  0  0  0
   40.5399   13.1975  -15.1485 C   0  0  0  0  0  0  0  0  0  0  0  0
   39.5434   12.5791  -15.7485 C   0  0  0  0  0  0  0  0  0  0  0  0
   39.6314   11.6119  -16.8319 C   0  0  0  0  0  0  0  0  0  0  0  0
   40.6737   11.1778  -17.3699 O   0  0  0  0  0  0  0  0  0  0  0  0
   38.2742   11.2564  -17.1535 N   0  0  0  0  0  0  0  0  0  0  0  0
   37.3830   11.9731  -16.3032 C   0  0  0  0  0  0  0  0  0  0  0  0
   35.9928   11.9814  -16.2153 C   0  0  0  0  0  0  0  0  0  0  0  0
   35.3507   12.7718  -15.2961 C   0  0  0  0  0  0  0  0  0  0  0  0
   36.0648   13.5773  -14.4371 C   0  0  0  0  0  0  0  0  0  0  0  0
   35.4751   14.3663  -13.5224 F   0  0  0  0  0  0  0  0  0  0  0  0
   37.4598   13.5523  -14.5439 C   0  0  0  0  0  0  0  0  0  0  0  0
   38.1017   12.7706  -15.4532 C   0  0  0  0  0  0  0  0  0  0  0  0
   38.0104   10.5828  -17.8913 H   0  0  0  0  0  0  0  0  0  0  0  0
   45.5048   13.2320  -14.6295 C   0  0  0  0  0  0  0  0  0  0  0  0
   45.7680   12.4028  -13.6668 O   0  0  0  0  0  0  0  0  0  0  0  0
   46.4940   14.1663  -14.9545 N   0  0  0  0  0  0  0  0  0  0  0  0
   46.4013   14.8602  -15.6959 H   0  0  0  0  0  0  0  0  0  0  0  0
   47.7349   14.1521  -14.2028 C   0  0  0  0  0  0  0  0  0  0  0  0
   48.1475   15.5810  -13.8261 C   0  0  0  0  0  0  0  0  0  0  0  0
   49.3140   15.9278  -14.6709 C   0  0  0  0  0  0  0  0  0  0  0  0
   49.3662   17.3340  -15.1648 C   0  0  0  0  0  0  0  0  0  0  0  0
   48.0118   17.5817  -15.8477 C   0  0  0  0  0  0  0  0  0  0  0  0
   48.0686   18.7609  -16.5427 O   0  0  0  0  0  0  0  0  0  0  0  0
   47.0393   17.6766  -14.6946 C   0  0  0  0  0  0  0  0  0  0  0  0
   46.9926   16.4790  -13.8304 C   0  0  0  0  0  0  0  0  0  0  0  0
   47.4725   18.6616  -17.3475 H   0  0  0  0  0  0  0  0  0  0  0  0
  1  2  1  0  0  0
  2  3  1  0  0  0
  3  4  1  0  0  0
  4  9  1  0  0  0
  9 10  2  0  0  0
 10 11  1  0  0  0
 11 12  2  0  0  0
 11 13  1  0  0  0
 13 14  1  0  0  0
 14 15  2  0  0  0
 15 16  1  0  0  0
 16 17  2  0  0  0
 17 18  1  0  0  0
 17 19  1  0  0  0
 19 20  2  0  0  0
  4  5  2  0  0  0
  5  6  1  0  0  0
  5  7  1  0  0  0
  7 22  1  0  0  0
 22 23  2  0  0  0
 22 24  1  0  0  0
 24 26  1  0  0  0
 26 27  1  0  0  0
 27 28  1  0  0  0
 28 29  1  0  0  0
 29 30  1  0  0  0
 30 31  1  0  0  0
 30 32  1  0  0  0
 32 33  1  0  0  0
  7  2  2  0  0  0
 33 27  1  0  0  0
 20 10  1  0  0  0
 20 14  1  0  0  0
  3  8  1  0  0  0
 13 21  1  0  0  0
 24 25  1  0  0  0
 31 34  1  0  0  0
M  END
> <minimizedAffinity>
-8.85861

> <CNNscore>
0.6660927534

> <CNNaffinity>
6.5859832764

> <CNN_VS>
4.3868756294

> <CNNaffinity_variance>
0.2000768632

$$$$
[H]O[C@]1([H])C([H])([H])C([H])([H])[C@@]([H])(C([H])([H])N([H])C(=O)c2c(C([H])([H])[H])c(/C([H])=C3\C(=O)N([H])c4c([H])c([H])c(F)c([H])c43)n([H])c2C([H])([H])[H])C([H])([H])C1([H])[H]


 34 37  0  0  0  0  0  0  0  0999 V2000
   39.9553   11.2858  -19.0814 C   0  0  0  0  0  0  0  0  0  0  0  0
   40.1872   11.9531  -17.7527 C   0  0  0  0  0  0  0  0  0  0  0  0
   41.3775   12.4901  -17.3848 N   0  0  0  0  0  0  0  0  0  0  0  0
   41.3483   13.0170  -16.1671 C   0  0  0  0  0  0  0  0  0  0  0  0
   40.0523   12.8014  -15.7269 C   0  0  0  0  0  0  0  0  0  0  0  0
   39.5519   13.2357  -14.3786 C   0  0  0  0  0  0  0  0  0  0  0  0
   39.3202   12.1361  -16.7158 C   0  0  0  0  0  0  0  0  0  0  0  0
   42.2152   12.4653  -18.0021 H   0  0  0  0  0  0  0  0  0  0  0  0
   42.3649   13.7013  -15.3984 C   0  0  0  0  0  0  0  0  0  0  0  0
   43.6552   13.4399  -15.4447 C   0  0  0  0  0  0  0  0  0  0  0  0
   44.3222   12.4382  -16.2623 C   0  0  0  0  0  0  0  0  0  0  0  0
   43.7888   11.6627  -17.0859 O   0  0  0  0  0  0  0  0  0  0  0  0
   45.7201   12.5265  -15.9308 N   0  0  0  0  0  0  0  0  0  0  0  0
   45.9105   13.5420  -14.9491 C   0  0  0  0  0  0  0  0  0  0  0  0
   47.0568   14.0090  -14.3101 C   0  0  0  0  0  0  0  0  0  0  0  0
   46.9840   15.0171  -13.3827 C   0  0  0  0  0  0  0  0  0  0  0  0
   45.7753   15.5929  -13.0600 C   0  0  0  0  0  0  0  0  0  0  0  0
   45.6601   16.5825  -12.1575 F   0  0  0  0  0  0  0  0  0  0  0  0
   44.6378   15.1076  -13.7146 C   0  0  0  0  0  0  0  0  0  0  0  0
   44.7040   14.1083  -14.6350 C   0  0  0  0  0  0  0  0  0  0  0  0
   46.4547   11.9345  -16.3522 H   0  0  0  0  0  0  0  0  0  0  0  0
   37.9331   11.7588  -16.6255 C   0  0  0  0  0  0  0  0  0  0  0  0
   37.6553   10.6306  -17.2032 O   0  0  0  0  0  0  0  0  0  0  0  0
   36.8759   12.4364  -16.0086 N   0  0  0  0  0  0  0  0  0  0  0  0
   36.9768   13.3251  -15.5189 H   0  0  0  0  0  0  0  0  0  0  0  0
   35.5520   11.8449  -16.0555 C   0  0  0  0  0  0  0  0  0  0  0  0
   34.8890   11.9095  -14.6734 C   0  0  0  0  0  0  0  0  0  0  0  0
   35.9670   12.1739  -13.6921 C   0  0  0  0  0  0  0  0  0  0  0  0
   35.6156   13.0896  -12.5686 C   0  0  0  0  0  0  0  0  0  0  0  0
   35.0562   14.3588  -13.2307 C   0  0  0  0  0  0  0  0  0  0  0  0
   34.9400   15.3439  -12.2859 O   0  0  0  0  0  0  0  0  0  0  0  0
   33.6989   13.9309  -13.7397 C   0  0  0  0  0  0  0  0  0  0  0  0
   33.7279   12.7994  -14.6895 C   0  0  0  0  0  0  0  0  0  0  0  0
   35.1006   16.2224  -12.7499 H   0  0  0  0  0  0  0  0  0  0  0  0
  1  2  1  0  0  0
  2  3  1  0  0  0
  3  4  1  0  0  0
  4  9  1  0  0  0
  9 10  2  0  0  0
 10 11  1  0  0  0
 11 12  2  0  0  0
 11 13  1  0  0  0
 13 14  1  0  0  0
 14 15  2  0  0  0
 15 16  1  0  0  0
 16 17  2  0  0  0
 17 18  1  0  0  0
 17 19  1  0  0  0
 19 20  2  0  0  0
  4  5  2  0  0  0
  5  6  1  0  0  0
  5  7  1  0  0  0
  7 22  1  0  0  0
 22 23  2  0  0  0
 22 24  1  0  0  0
 24 26  1  0  0  0
 26 27  1  0  0  0
 27 28  1  0  0  0
 28 29  1  0  0  0
 29 30  1  0  0  0
 30 31  1  0  0  0
 30 32  1  0  0  0
 32 33  1  0  0  0
  7  2  2  0  0  0
 33 27  1  0  0  0
 20 10  1  0  0  0
 20 14  1  0  0  0
  3  8  1  0  0  0
 13 21  1  0  0  0
 24 25  1  0  0  0
 31 34  1  0  0  0
M  END
> <minimizedAffinity>
-9.65018

> <CNNscore>
0.5670863390

> <CNNaffinity>
6.9675927162

> <CNN_VS>
3.9512267113

> <CNNaffinity_variance>
0.0735415071

$$$$
[H]O[C@]1([H])C([H])([H])C([H])([H])[C@@]([H])(C([H])([H])N([H])C(=O)c2c(C([H])([H])[H])c(/C([H])=C3\C(=O)N([H])c4c([H])c([H])c(F)c([H])c43)n([H])c2C([H])([H])[H])C([H])([H])C1([H])[H]


 34 37  0  0  0  0  0  0  0  0999 V2000
   39.2990   16.4281  -10.5324 C   0  0  0  0  0  0  0  0  0  0  0  0
   38.4852   15.4429  -11.3271 C   0  0  0  0  0  0  0  0  0  0  0  0
   38.9159   14.8802  -12.4840 N   0  0  0  0  0  0  0  0  0  0  0  0
   38.0269   14.0482  -13.0121 C   0  0  0  0  0  0  0  0  0  0  0  0
   36.9557   14.0823  -12.1340 C   0  0  0  0  0  0  0  0  0  0  0  0
   35.6980   13.2842  -12.3296 C   0  0  0  0  0  0  0  0  0  0  0  0
   37.2370   14.9534  -11.0764 C   0  0  0  0  0  0  0  0  0  0  0  0
   39.8422   15.1046  -12.9024 H   0  0  0  0  0  0  0  0  0  0  0  0
   38.0758   13.2297  -14.2039 C   0  0  0  0  0  0  0  0  0  0  0  0
   39.1151   13.1186  -15.0057 C   0  0  0  0  0  0  0  0  0  0  0  0
   40.4080   13.7714  -14.8675 C   0  0  0  0  0  0  0  0  0  0  0  0
   40.7697   14.5367  -13.9467 O   0  0  0  0  0  0  0  0  0  0  0  0
   41.1841   13.3527  -16.0051 N   0  0  0  0  0  0  0  0  0  0  0  0
   40.4039   12.4757  -16.8134 C   0  0  0  0  0  0  0  0  0  0  0  0
   40.6927   11.8098  -18.0023 C   0  0  0  0  0  0  0  0  0  0  0  0
   39.7585   11.0041  -18.6022 C   0  0  0  0  0  0  0  0  0  0  0  0
   38.5111   10.8336  -18.0439 C   0  0  0  0  0  0  0  0  0  0  0  0
   37.5674   10.0536  -18.5989 F   0  0  0  0  0  0  0  0  0  0  0  0
   38.2440   11.5123  -16.8498 C   0  0  0  0  0  0  0  0  0  0  0  0
   39.1664   12.3124  -16.2505 C   0  0  0  0  0  0  0  0  0  0  0  0
   42.1555   13.6541  -16.1872 H   0  0  0  0  0  0  0  0  0  0  0  0
   36.3684   15.2321   -9.9617 C   0  0  0  0  0  0  0  0  0  0  0  0
   36.2746   14.2573   -9.1105 O   0  0  0  0  0  0  0  0  0  0  0  0
   35.6340   16.3908   -9.6876 N   0  0  0  0  0  0  0  0  0  0  0  0
   35.6363   17.2208  -10.2799 H   0  0  0  0  0  0  0  0  0  0  0  0
   34.8215   16.4286   -8.4862 C   0  0  0  0  0  0  0  0  0  0  0  0
   35.4543   17.3583   -7.4425 C   0  0  0  0  0  0  0  0  0  0  0  0
   36.1295   16.4915   -6.4487 C   0  0  0  0  0  0  0  0  0  0  0  0
   37.4287   16.9968   -5.9189 C   0  0  0  0  0  0  0  0  0  0  0  0
   38.2869   17.3047   -7.1563 C   0  0  0  0  0  0  0  0  0  0  0  0
   39.5774   17.5380   -6.7606 O   0  0  0  0  0  0  0  0  0  0  0  0
   37.6590   18.5550   -7.7278 C   0  0  0  0  0  0  0  0  0  0  0  0
   36.2321   18.4171   -8.0861 C   0  0  0  0  0  0  0  0  0  0  0  0
   40.1789   17.2158   -7.5004 H   0  0  0  0  0  0  0  0  0  0  0  0
  1  2  1  0  0  0
  2  3  1  0  0  0
  3  4  1  0  0  0
  4  9  1  0  0  0
  9 10  2  0  0  0
 10 11  1  0  0  0
 11 12  2  0  0  0
 11 13  1  0  0  0
 13 14  1  0  0  0
 14 15  2  0  0  0
 15 16  1  0  0  0
 16 17  2  0  0  0
 17 18  1  0  0  0
 17 19  1  0  0  0
 19 20  2  0  0  0
  4  5  2  0  0  0
  5  6  1  0  0  0
  5  7  1  0  0  0
  7 22  1  0  0  0
 22 23  2  0  0  0
 22 24  1  0  0  0
 24 26  1  0  0  0
 26 27  1  0  0  0
 27 28  1  0  0  0
 28 29  1  0  0  0
 29 30  1  0  0  0
 30 31  1  0  0  0
 30 32  1  0  0  0
 32 33  1  0  0  0
  7  2  2  0  0  0
 33 27  1  0  0  0
 20 10  1  0  0  0
 20 14  1  0  0  0
  3  8  1  0  0  0
 13 21  1  0  0  0
 24 25  1  0  0  0
 31 34  1  0  0  0
M  END
> <minimizedAffinity>
-9.46822

> <CNNscore>
0.4071100354

> <CNNaffinity>
6.2077827454

> <CNN_VS>
2.5272507668

> <CNNaffinity_variance>
0.1272332221

$$$$
[H]O[C@]1([H])C([H])([H])C([H])([H])[C@@]([H])(C([H])([H])N([H])C(=O)c2c(C([H])([H])[H])c(/C([H])=C3\C(=O)N([H])c4c([H])c([H])c(F)c([H])c43)n([H])c2C([H])([H])[H])C([H])([H])C1([H])[H]


 34 37  0  0  0  0  0  0  0  0999 V2000
   44.4969   13.3840  -14.8405 C   0  0  0  0  0  0  0  0  0  0  0  0
   43.0955   13.7241  -14.4105 C   0  0  0  0  0  0  0  0  0  0  0  0
   41.9930   13.1043  -14.9014 N   0  0  0  0  0  0  0  0  0  0  0  0
   40.8659   13.5749  -14.3823 C   0  0  0  0  0  0  0  0  0  0  0  0
   41.2757   14.5625  -13.5010 C   0  0  0  0  0  0  0  0  0  0  0  0
   40.3258   15.3819  -12.6745 C   0  0  0  0  0  0  0  0  0  0  0  0
   42.6709   14.6601  -13.5138 C   0  0  0  0  0  0  0  0  0  0  0  0
   42.0488   12.3535  -15.6202 H   0  0  0  0  0  0  0  0  0  0  0  0
   39.4858   13.1983  -14.5971 C   0  0  0  0  0  0  0  0  0  0  0  0
   39.0415   12.4954  -15.6188 C   0  0  0  0  0  0  0  0  0  0  0  0
   39.8217   11.9528  -16.7205 C   0  0  0  0  0  0  0  0  0  0  0  0
   41.0593   12.0379  -16.8793 O   0  0  0  0  0  0  0  0  0  0  0  0
   38.8773   11.2964  -17.5860 N   0  0  0  0  0  0  0  0  0  0  0  0
   37.5666   11.4263  -17.0416 C   0  0  0  0  0  0  0  0  0  0  0  0
   36.3282   10.9735  -17.4907 C   0  0  0  0  0  0  0  0  0  0  0  0
   35.1848   11.2288  -16.7773 C   0  0  0  0  0  0  0  0  0  0  0  0
   35.2326   11.9396  -15.5986 C   0  0  0  0  0  0  0  0  0  0  0  0
   34.1365   12.2114  -14.8694 F   0  0  0  0  0  0  0  0  0  0  0  0
   36.4873   12.3841  -15.1674 C   0  0  0  0  0  0  0  0  0  0  0  0
   37.6243   12.1339  -15.8706 C   0  0  0  0  0  0  0  0  0  0  0  0
   39.1330   10.8118  -18.4621 H   0  0  0  0  0  0  0  0  0  0  0  0
   43.4589   15.5625  -12.7141 C   0  0  0  0  0  0  0  0  0  0  0  0
   43.7093   16.6968  -13.2921 O   0  0  0  0  0  0  0  0  0  0  0  0
   43.9732   15.3757  -11.4266 N   0  0  0  0  0  0  0  0  0  0  0  0
   43.8342   14.5299  -10.8742 H   0  0  0  0  0  0  0  0  0  0  0  0
   44.7470   16.4466  -10.8271 C   0  0  0  0  0  0  0  0  0  0  0  0
   44.2079   16.7770   -9.4291 C   0  0  0  0  0  0  0  0  0  0  0  0
   42.8150   16.2752   -9.3765 C   0  0  0  0  0  0  0  0  0  0  0  0
   42.3868   15.6752   -8.0801 C   0  0  0  0  0  0  0  0  0  0  0  0
   43.4424   14.6074   -7.7513 C   0  0  0  0  0  0  0  0  0  0  0  0
   42.9954   13.8408   -6.7077 O   0  0  0  0  0  0  0  0  0  0  0  0
   44.6573   15.4131   -7.3526 C   0  0  0  0  0  0  0  0  0  0  0  0
   45.1436   16.3456   -8.3906 C   0  0  0  0  0  0  0  0  0  0  0  0
   43.3605   12.9126   -6.8419 H   0  0  0  0  0  0  0  0  0  0  0  0
  1  2  1  0  0  0
  2  3  1  0  0  0
  3  4  1  0  0  0
  4  9  1  0  0  0
  9 10  2  0  0  0
 10 11  1  0  0  0
 11 12  2  0  0  0
 11 13  1  0  0  0
 13 14  1  0  0  0
 14 15  2  0  0  0
 15 16  1  0  0  0
 16 17  2  0  0  0
 17 18  1  0  0  0
 17 19  1  0  0  0
 19 20  2  0  0  0
  4  5  2  0  0  0
  5  6  1  0  0  0
  5  7  1  0  0  0
  7 22  1  0  0  0
 22 23  2  0  0  0
 22 24  1  0  0  0
 24 26  1  0  0  0
 26 27  1  0  0  0
 27 28  1  0  0  0
 28 29  1  0  0  0
 29 30  1  0  0  0
 30 31  1  0  0  0
 30 32  1  0  0  0
 32 33  1  0  0  0
  7  2  2  0  0  0
 33 27  1  0  0  0
 20 10  1  0  0  0
 20 14  1  0  0  0
  3  8  1  0  0  0
 13 21  1  0  0  0
 24 25  1  0  0  0
 31 34  1  0  0  0
M  END
> <minimizedAffinity>
-8.13714

> <CNNscore>
0.3806754053

> <CNNaffinity>
6.2783308029

> <CNN_VS>
2.3900060654

> <CNNaffinity_variance>
0.5206174254

$$$$
[H]O[C@]1([H])C([H])([H])C([H])([H])[C@@]([H])(C([H])([H])N([H])C(=O)c2c(C([H])([H])[H])c(/C([H])=C3\C(=O)N([H])c4c([H])c([H])c(F)c([H])c43)n([H])c2C([H])([H])[H])C([H])([H])C1([H])[H]


 34 37  0  0  0  0  0  0  0  0999 V2000
   39.5274   16.6784  -10.5361 C   0  0  0  0  0  0  0  0  0  0  0  0
   38.6940   15.6619  -11.2688 C   0  0  0  0  0  0  0  0  0  0  0  0
   39.0792   15.0795  -12.4320 N   0  0  0  0  0  0  0  0  0  0  0  0
   38.1808   14.2212  -12.8983 C   0  0  0  0  0  0  0  0  0  0  0  0
   37.1518   14.2583  -11.9710 C   0  0  0  0  0  0  0  0  0  0  0  0
   35.9003   13.4356  -12.0885 C   0  0  0  0  0  0  0  0  0  0  0  0
   37.4677   15.1582  -10.9479 C   0  0  0  0  0  0  0  0  0  0  0  0
   39.9806   15.3091  -12.8990 H   0  0  0  0  0  0  0  0  0  0  0  0
   38.1874   13.3761  -14.0723 C   0  0  0  0  0  0  0  0  0  0  0  0
   39.2077   13.2238  -14.8916 C   0  0  0  0  0  0  0  0  0  0  0  0
   40.5175   13.8496  -14.7931 C   0  0  0  0  0  0  0  0  0  0  0  0
   40.9146   14.6261  -13.8967 O   0  0  0  0  0  0  0  0  0  0  0  0
   41.2610   13.3885  -15.9360 N   0  0  0  0  0  0  0  0  0  0  0  0
   40.4453   12.5124  -16.7094 C   0  0  0  0  0  0  0  0  0  0  0  0
   40.6952   11.8143  -17.8886 C   0  0  0  0  0  0  0  0  0  0  0  0
   39.7313   11.0174  -18.4522 C   0  0  0  0  0  0  0  0  0  0  0  0
   38.4918   10.8877  -17.8660 C   0  0  0  0  0  0  0  0  0  0  0  0
   37.5199   10.1177  -18.3852 F   0  0  0  0  0  0  0  0  0  0  0  0
   38.2639   11.5982  -16.6823 C   0  0  0  0  0  0  0  0  0  0  0  0
   39.2159   12.3897  -16.1190 C   0  0  0  0  0  0  0  0  0  0  0  0
   42.2352   13.6635  -16.1437 H   0  0  0  0  0  0  0  0  0  0  0  0
   36.6481   15.4486   -9.7996 C   0  0  0  0  0  0  0  0  0  0  0  0
   36.9739   14.7790   -8.7370 O   0  0  0  0  0  0  0  0  0  0  0  0
   35.5747   16.3388   -9.6881 N   0  0  0  0  0  0  0  0  0  0  0  0
   35.2356   16.9217  -10.4529 H   0  0  0  0  0  0  0  0  0  0  0  0
   34.8997   16.4540   -8.4090 C   0  0  0  0  0  0  0  0  0  0  0  0
   33.6324   15.5893   -8.3942 C   0  0  0  0  0  0  0  0  0  0  0  0
   33.0186   15.7502   -7.0554 C   0  0  0  0  0  0  0  0  0  0  0  0
   31.5285   15.8011   -7.0234 C   0  0  0  0  0  0  0  0  0  0  0  0
   31.1318   16.8996   -8.0225 C   0  0  0  0  0  0  0  0  0  0  0  0
   29.7996   17.1817   -7.8737 O   0  0  0  0  0  0  0  0  0  0  0  0
   31.4082   16.2763   -9.3713 C   0  0  0  0  0  0  0  0  0  0  0  0
   32.8075   15.8471   -9.5744 C   0  0  0  0  0  0  0  0  0  0  0  0
   29.6762   18.1580   -8.0849 H   0  0  0  0  0  0  0  0  0  0  0  0
  1  2  1  0  0  0
  2  3  1  0  0  0
  3  4  1  0  0  0
  4  9  1  0  0  0
  9 10  2  0  0  0
 10 11  1  0  0  0
 11 12  2  0  0  0
 11 13  1  0  0  0
 13 14  1  0  0  0
 14 15  2  0  0  0
 15 16  1  0  0  0
 16 17  2  0  0  0
 17 18  1  0  0  0
 17 19  1  0  0  0
 19 20  2  0  0  0
  4  5  2  0  0  0
  5  6  1  0  0  0
  5  7  1  0  0  0
  7 22  1  0  0  0
 22 23  2  0  0  0
 22 24  1  0  0  0
 24 26  1  0  0  0
 26 27  1  0  0  0
 27 28  1  0  0  0
 28 29  1  0  0  0
 29 30  1  0  0  0
 30 31  1  0  0  0
 30 32  1  0  0  0
 32 33  1  0  0  0
  7  2  2  0  0  0
 33 27  1  0  0  0
 20 10  1  0  0  0
 20 14  1  0  0  0
  3  8  1  0  0  0
 13 21  1  0  0  0
 24 25  1  0  0  0
 31 34  1  0  0  0
M  END
> <minimizedAffinity>
-9.71502

> <CNNscore>
0.2983631790

> <CNNaffinity>
6.1048626900

> <CNN_VS>
1.8214662075

> <CNNaffinity_variance>
0.1320591569

$$$$
[H]O[C@]1([H])C([H])([H])C([H])([H])[C@]([H])(C([H])([H])N([H])C(=O)c2c(C([H])([H])[H])c(/C([H])=C3\C(=O)N([H])c4c([H])c([H])c(F)c([H])c43)n([H])c2C([H])([H])[H])C([H])([H])C1([H])[H]


 34 37  0  0  0  0  0  0  0  0999 V2000
   40.0185   11.3393  -19.1671 C   0  0  0  0  0  0  0  0  0  0  0  0
   40.2823   11.9855  -17.8367 C   0  0  0  0  0  0  0  0  0  0  0  0
   41.4771   12.5596  -17.5093 N   0  0  0  0  0  0  0  0  0  0  0  0
   41.4628   13.0718  -16.2821 C   0  0  0  0  0  0  0  0  0  0  0  0
   40.1880   12.8080  -15.8013 C   0  0  0  0  0  0  0  0  0  0  0  0
   39.7198   13.2039  -14.4521 C   0  0  0  0  0  0  0  0  0  0  0  0
   39.4459   12.1255  -16.7777 C   0  0  0  0  0  0  0  0  0  0  0  0
   42.2900   12.5643  -18.1592 H   0  0  0  0  0  0  0  0  0  0  0  0
   42.5138   13.7748  -15.5737 C   0  0  0  0  0  0  0  0  0  0  0  0
   43.7783   13.4710  -15.5516 C   0  0  0  0  0  0  0  0  0  0  0  0
   44.4007   12.3596  -16.2453 C   0  0  0  0  0  0  0  0  0  0  0  0
   43.8737   11.5092  -17.0043 O   0  0  0  0  0  0  0  0  0  0  0  0
   45.7999   12.4208  -15.8853 N   0  0  0  0  0  0  0  0  0  0  0  0
   46.0108   13.5203  -15.0148 C   0  0  0  0  0  0  0  0  0  0  0  0
   47.1574   14.0010  -14.3973 C   0  0  0  0  0  0  0  0  0  0  0  0
   47.1427   15.1078  -13.5716 C   0  0  0  0  0  0  0  0  0  0  0  0
   45.9414   15.7433  -13.3651 C   0  0  0  0  0  0  0  0  0  0  0  0
   45.8586   16.8385  -12.5630 F   0  0  0  0  0  0  0  0  0  0  0  0
   44.7790   15.2905  -13.9655 C   0  0  0  0  0  0  0  0  0  0  0  0
   44.8347   14.1830  -14.7823 C   0  0  0  0  0  0  0  0  0  0  0  0
   46.4947   11.7468  -16.2336 H   0  0  0  0  0  0  0  0  0  0  0  0
   38.0820   11.6772  -16.6177 C   0  0  0  0  0  0  0  0  0  0  0  0
   37.7970   10.5541  -17.1936 O   0  0  0  0  0  0  0  0  0  0  0  0
   37.0321   12.2864  -15.9316 N   0  0  0  0  0  0  0  0  0  0  0  0
   37.1605   13.2230  -15.4376 H   0  0  0  0  0  0  0  0  0  0  0  0
   35.7190   11.7401  -15.8302 C   0  0  0  0  0  0  0  0  0  0  0  0
   35.0073   12.1484  -14.5670 C   0  0  0  0  0  0  0  0  0  0  0  0
   33.9164   13.1053  -15.0110 C   0  0  0  0  0  0  0  0  0  0  0  0
   33.2437   13.8421  -13.9093 C   0  0  0  0  0  0  0  0  0  0  0  0
   34.0984   14.1007  -12.7063 C   0  0  0  0  0  0  0  0  0  0  0  0
   33.7943   15.3756  -12.2146 O   0  0  0  0  0  0  0  0  0  0  0  0
   35.5389   14.1576  -13.1681 C   0  0  0  0  0  0  0  0  0  0  0  0
   36.0132   12.8132  -13.6662 C   0  0  0  0  0  0  0  0  0  0  0  0
   32.8400   15.4709  -11.9710 H   0  0  0  0  0  0  0  0  0  0  0  0
  1  2  1  0  0  0
  2  3  1  0  0  0
  3  4  1  0  0  0
  4  9  1  0  0  0
  9 10  2  0  0  0
 10 11  1  0  0  0
 11 12  2  0  0  0
 11 13  1  0  0  0
 13 14  1  0  0  0
 14 15  2  0  0  0
 15 16  1  0  0  0
 16 17  2  0  0  0
 17 18  1  0  0  0
 17 19  1  0  0  0
 19 20  2  0  0  0
  4  5  2  0  0  0
  5  6  1  0  0  0
  5  7  1  0  0  0
  7 22  1  0  0  0
 22 23  2  0  0  0
 22 24  1  0  0  0
 24 26  1  0  0  0
 26 27  1  0  0  0
 27 28  1  0  0  0
 28 29  1  0  0  0
 29 30  1  0  0  0
 30 31  1  0  0  0
 30 32  1  0  0  0
 32 33  1  0  0  0
  7  2  2  0  0  0
 33 27  1  0  0  0
 20 10  1  0  0  0
 20 14  1  0  0  0
  3  8  1  0  0  0
 13 21  1  0  0  0
 24 25  1  0  0  0
 31 34  1  0  0  0
M  END
> <minimizedAffinity>
-9.06622

> <CNNscore>
0.4135536849

> <CNNaffinity>
6.8064146042

> <CNN_VS>
2.8148179054

> <CNNaffinity_variance>
0.0792066380

$$$$
[H]O[C@]1([H])C([H])([H])C([H])([H])[C@]([H])(C([H])([H])N([H])C(=O)c2c(C([H])([H])[H])c(/C([H])=C3\C(=O)N([H])c4c([H])c([H])c(F)c([H])c43)n([H])c2C([H])([H])[H])C([H])([H])C1([H])[H]


 34 37  0  0  0  0  0  0  0  0999 V2000
   38.4810   15.6557   -9.5467 C   0  0  0  0  0  0  0  0  0  0  0  0
   37.7383   15.0565  -10.7070 C   0  0  0  0  0  0  0  0  0  0  0  0
   38.3527   14.3577  -11.7062 N   0  0  0  0  0  0  0  0  0  0  0  0
   37.4843   13.9200  -12.6134 C   0  0  0  0  0  0  0  0  0  0  0  0
   36.2484   14.3661  -12.1671 C   0  0  0  0  0  0  0  0  0  0  0  0
   34.9745   14.1068  -12.8787 C   0  0  0  0  0  0  0  0  0  0  0  0
   36.4073   15.0803  -10.9693 C   0  0  0  0  0  0  0  0  0  0  0  0
   39.3834   14.2162  -11.7352 H   0  0  0  0  0  0  0  0  0  0  0  0
   37.7281   13.1325  -13.8054 C   0  0  0  0  0  0  0  0  0  0  0  0
   38.6908   13.2951  -14.6648 C   0  0  0  0  0  0  0  0  0  0  0  0
   39.7312   14.3034  -14.5995 C   0  0  0  0  0  0  0  0  0  0  0  0
   39.9279   15.1775  -13.7194 O   0  0  0  0  0  0  0  0  0  0  0  0
   40.5332   14.1015  -15.7857 N   0  0  0  0  0  0  0  0  0  0  0  0
   40.0003   13.0193  -16.5313 C   0  0  0  0  0  0  0  0  0  0  0  0
   40.3992   12.4385  -17.7274 C   0  0  0  0  0  0  0  0  0  0  0  0
   39.7264   11.3723  -18.2911 C   0  0  0  0  0  0  0  0  0  0  0  0
   38.6250   10.8821  -17.6307 C   0  0  0  0  0  0  0  0  0  0  0  0
   37.9181    9.8341  -18.1324 F   0  0  0  0  0  0  0  0  0  0  0  0
   38.2000   11.4376  -16.4360 C   0  0  0  0  0  0  0  0  0  0  0  0
   38.8977   12.5002  -15.9059 C   0  0  0  0  0  0  0  0  0  0  0  0
   41.3537   14.6807  -16.0087 H   0  0  0  0  0  0  0  0  0  0  0  0
   35.3350   15.7024  -10.2279 C   0  0  0  0  0  0  0  0  0  0  0  0
   35.5067   16.9547   -9.9514 O   0  0  0  0  0  0  0  0  0  0  0  0
   34.1441   15.1414   -9.7685 N   0  0  0  0  0  0  0  0  0  0  0  0
   33.9159   14.1121   -9.9305 H   0  0  0  0  0  0  0  0  0  0  0  0
   33.1447   15.8622   -9.0510 C   0  0  0  0  0  0  0  0  0  0  0  0
   31.8409   15.9631   -9.7985 C   0  0  0  0  0  0  0  0  0  0  0  0
   31.0473   14.7353   -9.3912 C   0  0  0  0  0  0  0  0  0  0  0  0
   29.8261   14.4828  -10.1998 C   0  0  0  0  0  0  0  0  0  0  0  0
   29.8963   14.9598  -11.6183 C   0  0  0  0  0  0  0  0  0  0  0  0
   29.2484   14.0227  -12.4318 O   0  0  0  0  0  0  0  0  0  0  0  0
   31.3511   14.9494  -12.0366 C   0  0  0  0  0  0  0  0  0  0  0  0
   32.1537   15.9738  -11.2707 C   0  0  0  0  0  0  0  0  0  0  0  0
   28.3031   13.8851  -12.1737 H   0  0  0  0  0  0  0  0  0  0  0  0
  1  2  1  0  0  0
  2  3  1  0  0  0
  3  4  1  0  0  0
  4  9  1  0  0  0
  9 10  2  0  0  0
 10 11  1  0  0  0
 11 12  2  0  0  0
 11 13  1  0  0  0
 13 14  1  0  0  0
 14 15  2  0  0  0
 15 16  1  0  0  0
 16 17  2  0  0  0
 17 18  1  0  0  0
 17 19  1  0  0  0
 19 20  2  0  0  0
  4  5  2  0  0  0
  5  6  1  0  0  0
  5  7  1  0  0  0
  7 22  1  0  0  0
 22 23  2  0  0  0
 22 24  1  0  0  0
 24 26  1  0  0  0
 26 27  1  0  0  0
 27 28  1  0  0  0
 28 29  1  0  0  0
 29 30  1  0  0  0
 30 31  1  0  0  0
 30 32  1  0  0  0
 32 33  1  0  0  0
  7  2  2  0  0  0
 33 27  1  0  0  0
 20 10  1  0  0  0
 20 14  1  0  0  0
  3  8  1  0  0  0
 13 21  1  0  0  0
 24 25  1  0  0  0
 31 34  1  0  0  0
M  END
> <minimizedAffinity>
-9.69622

> <CNNscore>
0.3172910810

> <CNNaffinity>
6.4040994644

> <CNN_VS>
2.0319635868

> <CNNaffinity_variance>
0.0523737371

$$$$
[H]O[C@]1([H])C([H])([H])C([H])([H])[C@]([H])(C([H])([H])N([H])C(=O)c2c(C([H])([H])[H])c(/C([H])=C3\C(=O)N([H])c4c([H])c([H])c(F)c([H])c43)n([H])c2C([H])([H])[H])C([H])([H])C1([H])[H]


 34 37  0  0  0  0  0  0  0  0999 V2000
   37.7369   19.8836   -8.7330 C   0  0  0  0  0  0  0  0  0  0  0  0
   37.6865   18.4357   -9.1307 C   0  0  0  0  0  0  0  0  0  0  0  0
   37.2764   18.0137  -10.3627 N   0  0  0  0  0  0  0  0  0  0  0  0
   37.3284   16.6898  -10.4774 C   0  0  0  0  0  0  0  0  0  0  0  0
   37.7966   16.2444   -9.2494 C   0  0  0  0  0  0  0  0  0  0  0  0
   38.0123   14.8155   -8.9206 C   0  0  0  0  0  0  0  0  0  0  0  0
   38.0218   17.3409   -8.4028 C   0  0  0  0  0  0  0  0  0  0  0  0
   36.9508   18.6740  -11.0983 H   0  0  0  0  0  0  0  0  0  0  0  0
   36.9989   15.8584  -11.6180 C   0  0  0  0  0  0  0  0  0  0  0  0
   35.8364   15.3492  -11.9027 C   0  0  0  0  0  0  0  0  0  0  0  0
   34.6192   15.5185  -11.1324 C   0  0  0  0  0  0  0  0  0  0  0  0
   34.4350   16.1886  -10.0863 O   0  0  0  0  0  0  0  0  0  0  0  0
   33.6171   14.7409  -11.8267 N   0  0  0  0  0  0  0  0  0  0  0  0
   34.2042   14.1316  -12.9648 C   0  0  0  0  0  0  0  0  0  0  0  0
   33.6744   13.3000  -13.9420 C   0  0  0  0  0  0  0  0  0  0  0  0
   34.4349   12.8078  -14.9843 C   0  0  0  0  0  0  0  0  0  0  0  0
   35.7613   13.1645  -15.0403 C   0  0  0  0  0  0  0  0  0  0  0  0
   36.5648   12.7138  -16.0407 F   0  0  0  0  0  0  0  0  0  0  0  0
   36.3215   13.9922  -14.0824 C   0  0  0  0  0  0  0  0  0  0  0  0
   35.5301   14.4625  -13.0581 C   0  0  0  0  0  0  0  0  0  0  0  0
   32.6427   14.6726  -11.5039 H   0  0  0  0  0  0  0  0  0  0  0  0
   38.4971   17.2521   -7.0416 C   0  0  0  0  0  0  0  0  0  0  0  0
   37.6446   17.6021   -6.1333 O   0  0  0  0  0  0  0  0  0  0  0  0
   39.7449   16.8438   -6.5720 N   0  0  0  0  0  0  0  0  0  0  0  0
   40.5222   16.5516   -7.2415 H   0  0  0  0  0  0  0  0  0  0  0  0
   40.1001   16.7845   -5.1923 C   0  0  0  0  0  0  0  0  0  0  0  0
   41.5196   17.2153   -4.9308 C   0  0  0  0  0  0  0  0  0  0  0  0
   41.5345   18.7148   -5.1640 C   0  0  0  0  0  0  0  0  0  0  0  0
   42.8881   19.3266   -5.2161 C   0  0  0  0  0  0  0  0  0  0  0  0
   43.9716   18.4241   -5.7221 C   0  0  0  0  0  0  0  0  0  0  0  0
   44.8440   19.1818   -6.5123 O   0  0  0  0  0  0  0  0  0  0  0  0
   43.3328   17.4115   -6.6484 C   0  0  0  0  0  0  0  0  0  0  0  0
   42.4091   16.4818   -5.8983 C   0  0  0  0  0  0  0  0  0  0  0  0
   45.2458   19.9380   -6.0163 H   0  0  0  0  0  0  0  0  0  0  0  0
  1  2  1  0  0  0
  2  3  1  0  0  0
  3  4  1  0  0  0
  4  9  1  0  0  0
  9 10  2  0  0  0
 10 11  1  0  0  0
 11 12  2  0  0  0
 11 13  1  0  0  0
 13 14  1  0  0  0
 14 15  2  0  0  0
 15 16  1  0  0  0
 16 17  2  0  0  0
 17 18  1  0  0  0
 17 19  1  0  0  0
 19 20  2  0  0  0
  4  5  2  0  0  0
  5  6  1  0  0  0
  5  7  1  0  0  0
  7 22  1  0  0  0
 22 23  2  0  0  0
 22 24  1  0  0  0
 24 26  1  0  0  0
 26 27  1  0  0  0
 27 28  1  0  0  0
 28 29  1  0  0  0
 29 30  1  0  0  0
 30 31  1  0  0  0
 30 32  1  0  0  0
 32 33  1  0  0  0
  7  2  2  0  0  0
 33 27  1  0  0  0
 20 10  1  0  0  0
 20 14  1  0  0  0
  3  8  1  0  0  0
 13 21  1  0  0  0
 24 25  1  0  0  0
 31 34  1  0  0  0
M  END
> <minimizedAffinity>
-7.71489

> <CNNscore>
0.3010506034

> <CNNaffinity>
5.5283761024

> <CNN_VS>
1.6643209457

> <CNNaffinity_variance>
0.2624477446

$$$$
[H]O[C@]1([H])C([H])([H])C([H])([H])[C@]([H])(C([H])([H])N([H])C(=O)c2c(C([H])([H])[H])c(/C([H])=C3\C(=O)N([H])c4c([H])c([H])c(F)c([H])c43)n([H])c2C([H])([H])[H])C([H])([H])C1([H])[H]


 34 37  0  0  0  0  0  0  0  0999 V2000
   32.4762   15.4472  -12.0427 C   0  0  0  0  0  0  0  0  0  0  0  0
   33.9153   15.0428  -12.1921 C   0  0  0  0  0  0  0  0  0  0  0  0
   34.4158   14.4688  -13.3253 N   0  0  0  0  0  0  0  0  0  0  0  0
   35.7160   14.2104  -13.2192 C   0  0  0  0  0  0  0  0  0  0  0  0
   36.0620   14.6430  -11.9469 C   0  0  0  0  0  0  0  0  0  0  0  0
   37.4323   14.5483  -11.3903 C   0  0  0  0  0  0  0  0  0  0  0  0
   34.9310   15.1661  -11.3010 C   0  0  0  0  0  0  0  0  0  0  0  0
   33.8204   14.2555  -14.1519 H   0  0  0  0  0  0  0  0  0  0  0  0
   36.6139   13.6275  -14.1961 C   0  0  0  0  0  0  0  0  0  0  0  0
   36.3115   12.7524  -15.1097 C   0  0  0  0  0  0  0  0  0  0  0  0
   34.9985   12.1823  -15.3434 C   0  0  0  0  0  0  0  0  0  0  0  0
   33.9168   12.4261  -14.7537 O   0  0  0  0  0  0  0  0  0  0  0  0
   35.1775   11.2447  -16.4296 N   0  0  0  0  0  0  0  0  0  0  0  0
   36.5371   11.2508  -16.8328 C   0  0  0  0  0  0  0  0  0  0  0  0
   37.2101   10.5407  -17.8176 C   0  0  0  0  0  0  0  0  0  0  0  0
   38.5622   10.6999  -18.0493 C   0  0  0  0  0  0  0  0  0  0  0  0
   39.2498   11.5976  -17.2676 C   0  0  0  0  0  0  0  0  0  0  0  0
   40.5828   11.8011  -17.4443 F   0  0  0  0  0  0  0  0  0  0  0  0
   38.6095   12.3223  -16.2769 C   0  0  0  0  0  0  0  0  0  0  0  0
   37.2598   12.1351  -16.0765 C   0  0  0  0  0  0  0  0  0  0  0  0
   34.4056   10.6839  -16.8143 H   0  0  0  0  0  0  0  0  0  0  0  0
   34.9158   15.6954   -9.9570 C   0  0  0  0  0  0  0  0  0  0  0  0
   35.6043   16.7764   -9.7797 O   0  0  0  0  0  0  0  0  0  0  0  0
   34.2649   15.2030   -8.8266 N   0  0  0  0  0  0  0  0  0  0  0  0
   33.6855   14.3082   -8.8646 H   0  0  0  0  0  0  0  0  0  0  0  0
   34.3122   15.8221   -7.5430 C   0  0  0  0  0  0  0  0  0  0  0  0
   34.5118   14.8370   -6.4211 C   0  0  0  0  0  0  0  0  0  0  0  0
   34.7509   15.6805   -5.1825 C   0  0  0  0  0  0  0  0  0  0  0  0
   35.2293   14.9264   -3.9945 C   0  0  0  0  0  0  0  0  0  0  0  0
   36.0413   13.7060   -4.3043 C   0  0  0  0  0  0  0  0  0  0  0  0
   37.0713   13.6100   -3.3612 O   0  0  0  0  0  0  0  0  0  0  0  0
   36.7123   13.9265   -5.6431 C   0  0  0  0  0  0  0  0  0  0  0  0
   35.7027   13.9831   -6.7647 C   0  0  0  0  0  0  0  0  0  0  0  0
   36.7326   13.5571   -2.4330 H   0  0  0  0  0  0  0  0  0  0  0  0
  1  2  1  0  0  0
  2  3  1  0  0  0
  3  4  1  0  0  0
  4  9  1  0  0  0
  9 10  2  0  0  0
 10 11  1  0  0  0
 11 12  2  0  0  0
 11 13  1  0  0  0
 13 14  1  0  0  0
 14 15  2  0  0  0
 15 16  1  0  0  0
 16 17  2  0  0  0
 17 18  1  0  0  0
 17 19  1  0  0  0
 19 20  2  0  0  0
  4  5  2  0  0  0
  5  6  1  0  0  0
  5  7  1  0  0  0
  7 22  1  0  0  0
 22 23  2  0  0  0
 22 24  1  0  0  0
 24 26  1  0  0  0
 26 27  1  0  0  0
 27 28  1  0  0  0
 28 29  1  0  0  0
 29 30  1  0  0  0
 30 31  1  0  0  0
 30 32  1  0  0  0
 32 33  1  0  0  0
  7  2  2  0  0  0
 33 27  1  0  0  0
 20 10  1  0  0  0
 20 14  1  0  0  0
  3  8  1  0  0  0
 13 21  1  0  0  0
 24 25  1  0  0  0
 31 34  1  0  0  0
M  END
> <minimizedAffinity>
-9.55965

> <CNNscore>
0.2536135912

> <CNNaffinity>
6.1978998184

> <CNN_VS>
1.5718716383

> <CNNaffinity_variance>
0.1658191532

$$$$
[H]O[C@]1([H])C([H])([H])C([H])([H])[C@]([H])(C([H])([H])N([H])C(=O)c2c(C([H])([H])[H])c(/C([H])=C3\C(=O)N([H])c4c([H])c([H])c(F)c([H])c43)n([H])c2C([H])([H])[H])C([H])([H])C1([H])[H]


 34 37  0  0  0  0  0  0  0  0999 V2000
   39.3370   16.3029  -10.4922 C   0  0  0  0  0  0  0  0  0  0  0  0
   38.4707   15.4240  -11.3490 C   0  0  0  0  0  0  0  0  0  0  0  0
   38.9258   14.7930  -12.4711 N   0  0  0  0  0  0  0  0  0  0  0  0
   37.9759   14.0662  -13.0525 C   0  0  0  0  0  0  0  0  0  0  0  0
   36.8534   14.2456  -12.2567 C   0  0  0  0  0  0  0  0  0  0  0  0
   35.5412   13.6137  -12.5311 C   0  0  0  0  0  0  0  0  0  0  0  0
   37.1636   15.0986  -11.1862 C   0  0  0  0  0  0  0  0  0  0  0  0
   39.9021   14.9019  -12.8146 H   0  0  0  0  0  0  0  0  0  0  0  0
   38.0569   13.2401  -14.2406 C   0  0  0  0  0  0  0  0  0  0  0  0
   39.0629   13.1476  -15.0597 C   0  0  0  0  0  0  0  0  0  0  0  0
   40.3243   13.8542  -14.9447 C   0  0  0  0  0  0  0  0  0  0  0  0
   40.7036   14.6499  -14.0501 O   0  0  0  0  0  0  0  0  0  0  0  0
   41.0947   13.4502  -16.0998 N   0  0  0  0  0  0  0  0  0  0  0  0
   40.3318   12.5401  -16.8752 C   0  0  0  0  0  0  0  0  0  0  0  0
   40.6159   11.8737  -18.0593 C   0  0  0  0  0  0  0  0  0  0  0  0
   39.7148   11.0157  -18.6583 C   0  0  0  0  0  0  0  0  0  0  0  0
   38.4985   10.8269  -18.0463 C   0  0  0  0  0  0  0  0  0  0  0  0
   37.5666    9.9953  -18.5844 F   0  0  0  0  0  0  0  0  0  0  0  0
   38.1828   11.4755  -16.8647 C   0  0  0  0  0  0  0  0  0  0  0  0
   39.1084   12.3237  -16.2984 C   0  0  0  0  0  0  0  0  0  0  0  0
   42.0449   13.7981  -16.2852 H   0  0  0  0  0  0  0  0  0  0  0  0
   36.2320   15.5183  -10.1651 C   0  0  0  0  0  0  0  0  0  0  0  0
   35.9471   16.7804  -10.1602 O   0  0  0  0  0  0  0  0  0  0  0  0
   35.5999   14.7537   -9.1853 N   0  0  0  0  0  0  0  0  0  0  0  0
   35.7810   13.7065   -9.0949 H   0  0  0  0  0  0  0  0  0  0  0  0
   34.6815   15.2792   -8.2294 C   0  0  0  0  0  0  0  0  0  0  0  0
   35.2223   15.2648   -6.8236 C   0  0  0  0  0  0  0  0  0  0  0  0
   36.1918   14.0982   -6.7772 C   0  0  0  0  0  0  0  0  0  0  0  0
   36.6585   13.7261   -5.4160 C   0  0  0  0  0  0  0  0  0  0  0  0
   35.6820   14.0034   -4.3142 C   0  0  0  0  0  0  0  0  0  0  0  0
   35.7544   12.9575   -3.3866 O   0  0  0  0  0  0  0  0  0  0  0  0
   34.2903   13.9479   -4.9070 C   0  0  0  0  0  0  0  0  0  0  0  0
   34.0609   15.0751   -5.8854 C   0  0  0  0  0  0  0  0  0  0  0  0
   36.6618   12.8487   -3.0071 H   0  0  0  0  0  0  0  0  0  0  0  0
  1  2  1  0  0  0
  2  3  1  0  0  0
  3  4  1  0  0  0
  4  9  1  0  0  0
  9 10  2  0  0  0
 10 11  1  0  0  0
 11 12  2  0  0  0
 11 13  1  0  0  0
 13 14  1  0  0  0
 14 15  2  0  0  0
 15 16  1  0  0  0
 16 17  2  0  0  0
 17 18  1  0  0  0
 17 19  1  0  0  0
 19 20  2  0  0  0
  4  5  2  0  0  0
  5  6  1  0  0  0
  5  7  1  0  0  0
  7 22  1  0  0  0
 22 23  2  0  0  0
 22 24  1  0  0  0
 24 26  1  0  0  0
 26 27  1  0  0  0
 27 28  1  0  0  0
 28 29  1  0  0  0
 29 30  1  0  0  0
 30 31  1  0  0  0
 30 32  1  0  0  0
 32 33  1  0  0  0
  7  2  2  0  0  0
 33 27  1  0  0  0
 20 10  1  0  0  0
 20 14  1  0  0  0
  3  8  1  0  0  0
 13 21  1  0  0  0
 24 25  1  0  0  0
 31 34  1  0  0  0
M  END
> <minimizedAffinity>
-9.86437

> <CNNscore>
0.2218679488

> <CNNaffinity>
6.0857019424

> <CNN_VS>
1.3502222300

> <CNNaffinity_variance>
0.1926316470

$$$$
[H]O[C@]1([H])C([H])([H])C([H])([H])[C@]([H])(C([H])([H])N([H])C(=O)c2c(C([H])([H])[H])c(/C([H])=C3\C(=O)N([H])c4c([H])c([H])c(F)c([H])c43)n([H])c2C([H])([H])[H])C([H])([H])C1([H])[H]


 34 37  0  0  0  0  0  0  0  0999 V2000
   37.7181   19.9125   -8.8550 C   0  0  0  0  0  0  0  0  0  0  0  0
   37.7296   18.4666   -9.2628 C   0  0  0  0  0  0  0  0  0  0  0  0
   37.2724   18.0284  -10.4725 N   0  0  0  0  0  0  0  0  0  0  0  0
   37.3955   16.7107  -10.6028 C   0  0  0  0  0  0  0  0  0  0  0  0
   37.9616   16.2865   -9.4090 C   0  0  0  0  0  0  0  0  0  0  0  0
   38.2805   14.8709   -9.1072 C   0  0  0  0  0  0  0  0  0  0  0  0
   38.1717   17.3893   -8.5666 C   0  0  0  0  0  0  0  0  0  0  0  0
   36.8652   18.6727  -11.1812 H   0  0  0  0  0  0  0  0  0  0  0  0
   37.0483   15.8682  -11.7298 C   0  0  0  0  0  0  0  0  0  0  0  0
   35.8872   15.3379  -11.9793 C   0  0  0  0  0  0  0  0  0  0  0  0
   34.6894   15.4904  -11.1756 C   0  0  0  0  0  0  0  0  0  0  0  0
   34.5233   16.1626  -10.1278 O   0  0  0  0  0  0  0  0  0  0  0  0
   33.6815   14.6925  -11.8378 N   0  0  0  0  0  0  0  0  0  0  0  0
   34.2467   14.0875  -12.9893 C   0  0  0  0  0  0  0  0  0  0  0  0
   33.7039   13.2421  -13.9473 C   0  0  0  0  0  0  0  0  0  0  0  0
   34.4430   12.7577  -15.0085 C   0  0  0  0  0  0  0  0  0  0  0  0
   35.7610   13.1365  -15.1036 C   0  0  0  0  0  0  0  0  0  0  0  0
   36.5436   12.6945  -16.1242 F   0  0  0  0  0  0  0  0  0  0  0  0
   36.3337   13.9784  -14.1656 C   0  0  0  0  0  0  0  0  0  0  0  0
   35.5636   14.4403  -13.1215 C   0  0  0  0  0  0  0  0  0  0  0  0
   32.7179   14.6093  -11.4873 H   0  0  0  0  0  0  0  0  0  0  0  0
   38.7318   17.3206   -7.2369 C   0  0  0  0  0  0  0  0  0  0  0  0
   37.8780   17.4252   -6.2703 O   0  0  0  0  0  0  0  0  0  0  0  0
   40.0620   17.1591   -6.8514 N   0  0  0  0  0  0  0  0  0  0  0  0
   40.8438   17.0804   -7.5727 H   0  0  0  0  0  0  0  0  0  0  0  0
   40.4997   17.0926   -5.4960 C   0  0  0  0  0  0  0  0  0  0  0  0
   40.8747   15.6985   -5.0661 C   0  0  0  0  0  0  0  0  0  0  0  0
   41.6592   15.1165   -6.2275 C   0  0  0  0  0  0  0  0  0  0  0  0
   41.9159   13.6552   -6.1396 C   0  0  0  0  0  0  0  0  0  0  0  0
   40.8726   12.8725   -5.4024 C   0  0  0  0  0  0  0  0  0  0  0  0
   40.6943   11.6483   -6.0575 O   0  0  0  0  0  0  0  0  0  0  0  0
   39.5609   13.6168   -5.5318 C   0  0  0  0  0  0  0  0  0  0  0  0
   39.6017   14.9394   -4.8041 C   0  0  0  0  0  0  0  0  0  0  0  0
   41.5299   11.1209   -6.1106 H   0  0  0  0  0  0  0  0  0  0  0  0
  1  2  1  0  0  0
  2  3  1  0  0  0
  3  4  1  0  0  0
  4  9  1  0  0  0
  9 10  2  0  0  0
 10 11  1  0  0  0
 11 12  2  0  0  0
 11 13  1  0  0  0
 13 14  1  0  0  0
 14 15  2  0  0  0
 15 16  1  0  0  0
 16 17  2  0  0  0
 17 18  1  0  0  0
 17 19  1  0  0  0
 19 20  2  0  0  0
  4  5  2  0  0  0
  5  6  1  0  0  0
  5  7  1  0  0  0
  7 22  1  0  0  0
 22 23  2  0  0  0
 22 24  1  0  0  0
 24 26  1  0  0  0
 26 27  1  0  0  0
 27 28  1  0  0  0
 28 29  1  0  0  0
 29 30  1  0  0  0
 30 31  1  0  0  0
 30 32  1  0  0  0
 32 33  1  0  0  0
  7  2  2  0  0  0
 33 27  1  0  0  0
 20 10  1  0  0  0
 20 14  1  0  0  0
  3  8  1  0  0  0
 13 21  1  0  0  0
 24 25  1  0  0  0
 31 34  1  0  0  0
M  END
> <minimizedAffinity>
-8.29900

> <CNNscore>
0.2200306207

> <CNNaffinity>
5.6193313599

> <CNN_VS>
1.2364249229

> <CNNaffinity_variance>
0.2003812492

$$$$
[H]O[C@]1([H])C([H])([H])C([H])([H])[C@]([H])(C([H])([H])N([H])C(=O)c2c(C([H])([H])[H])c(/C([H])=C3\C(=O)N([H])c4c([H])c([H])c(F)c([H])c43)n([H])c2C([H])([H])[H])C([H])([H])C1([H])[H]


 34 37  0  0  0  0  0  0  0  0999 V2000
   33.2994   13.8157  -13.3191 C   0  0  0  0  0  0  0  0  0  0  0  0
   34.5902   14.4120  -12.8340 C   0  0  0  0  0  0  0  0  0  0  0  0
   34.6469   15.4713  -11.9744 N   0  0  0  0  0  0  0  0  0  0  0  0
   35.8998   15.8108  -11.6856 C   0  0  0  0  0  0  0  0  0  0  0  0
   36.6844   14.9184  -12.4024 C   0  0  0  0  0  0  0  0  0  0  0  0
   38.1663   14.9263  -12.3825 C   0  0  0  0  0  0  0  0  0  0  0  0
   35.8621   14.0392  -13.1242 C   0  0  0  0  0  0  0  0  0  0  0  0
   33.7922   15.9465  -11.6183 H   0  0  0  0  0  0  0  0  0  0  0  0
   36.3830   16.8580  -10.8080 C   0  0  0  0  0  0  0  0  0  0  0  0
   36.5385   16.7857   -9.5186 C   0  0  0  0  0  0  0  0  0  0  0  0
   36.2642   15.6273   -8.6900 C   0  0  0  0  0  0  0  0  0  0  0  0
   35.8619   14.4887   -9.0349 O   0  0  0  0  0  0  0  0  0  0  0  0
   36.5565   16.0478   -7.3377 N   0  0  0  0  0  0  0  0  0  0  0  0
   36.9886   17.3985   -7.3514 C   0  0  0  0  0  0  0  0  0  0  0  0
   37.3813   18.2515   -6.3291 C   0  0  0  0  0  0  0  0  0  0  0  0
   37.7720   19.5550   -6.5642 C   0  0  0  0  0  0  0  0  0  0  0  0
   37.7656   20.0067   -7.8625 C   0  0  0  0  0  0  0  0  0  0  0  0
   38.1388   21.2798   -8.1617 F   0  0  0  0  0  0  0  0  0  0  0  0
   37.3798   19.1825   -8.9058 C   0  0  0  0  0  0  0  0  0  0  0  0
   36.9967   17.8885   -8.6305 C   0  0  0  0  0  0  0  0  0  0  0  0
   36.4509   15.4252   -6.5256 H   0  0  0  0  0  0  0  0  0  0  0  0
   36.3363   12.9870  -13.9928 C   0  0  0  0  0  0  0  0  0  0  0  0
   36.3707   11.8063  -13.4646 O   0  0  0  0  0  0  0  0  0  0  0  0
   36.7626   13.0673  -15.3179 N   0  0  0  0  0  0  0  0  0  0  0  0
   36.7879   13.9982  -15.8380 H   0  0  0  0  0  0  0  0  0  0  0  0
   37.2017   11.9492  -16.0861 C   0  0  0  0  0  0  0  0  0  0  0  0
   38.6828   11.7005  -15.9705 C   0  0  0  0  0  0  0  0  0  0  0  0
   39.2425   12.9229  -15.2665 C   0  0  0  0  0  0  0  0  0  0  0  0
   40.7254   13.0226  -15.2695 C   0  0  0  0  0  0  0  0  0  0  0  0
   41.3995   12.3982  -16.4528 C   0  0  0  0  0  0  0  0  0  0  0  0
   42.4811   13.2065  -16.8222 O   0  0  0  0  0  0  0  0  0  0  0  0
   40.4263   12.4377  -17.6115 C   0  0  0  0  0  0  0  0  0  0  0  0
   39.2337   11.5454  -17.3625 C   0  0  0  0  0  0  0  0  0  0  0  0
   43.1359   13.3226  -16.0894 H   0  0  0  0  0  0  0  0  0  0  0  0
  1  2  1  0  0  0
  2  3  1  0  0  0
  3  4  1  0  0  0
  4  9  1  0  0  0
  9 10  2  0  0  0
 10 11  1  0  0  0
 11 12  2  0  0  0
 11 13  1  0  0  0
 13 14  1  0  0  0
 14 15  2  0  0  0
 15 16  1  0  0  0
 16 17  2  0  0  0
 17 18  1  0  0  0
 17 19  1  0  0  0
 19 20  2  0  0  0
  4  5  2  0  0  0
  5  6  1  0  0  0
  5  7  1  0  0  0
  7 22  1  0  0  0
 22 23  2  0  0  0
 22 24  1  0  0  0
 24 26  1  0  0  0
 26 27  1  0  0  0
 27 28  1  0  0  0
 28 29  1  0  0  0
 29 30  1  0  0  0
 30 31  1  0  0  0
 30 32  1  0  0  0
 32 33  1  0  0  0
  7  2  2  0  0  0
 33 27  1  0  0  0
 20 10  1  0  0  0
 20 14  1  0  0  0
  3  8  1  0  0  0
 13 21  1  0  0  0
 24 25  1  0  0  0
 31 34  1  0  0  0
M  END
> <minimizedAffinity>
-9.40265

> <CNNscore>
0.2179515958

> <CNNaffinity>
5.9253644943

> <CNN_VS>
1.2914426327

> <CNNaffinity_variance>
0.2365311384

$$$$
[H]O[C@]1([H])C([H])([H])C([H])([H])[C@]([H])(C([H])([H])N([H])C(=O)c2c(C([H])([H])[H])c(/C([H])=C3\C(=O)N([H])c4c([H])c([H])c(F)c([H])c43)n([H])c2C([H])([H])[H])C([H])([H])C1([H])[H]


 34 37  0  0  0  0  0  0  0  0999 V2000
   40.0245   16.2287  -10.3425 C   0  0  0  0  0  0  0  0  0  0  0  0
   39.0522   15.5942  -11.2959 C   0  0  0  0  0  0  0  0  0  0  0  0
   39.4381   14.8016  -12.3386 N   0  0  0  0  0  0  0  0  0  0  0  0
   38.3970   14.3510  -13.0325 C   0  0  0  0  0  0  0  0  0  0  0  0
   37.2865   14.8877  -12.3966 C   0  0  0  0  0  0  0  0  0  0  0  0
   35.8915   14.6483  -12.8360 C   0  0  0  0  0  0  0  0  0  0  0  0
   37.6975   15.6690  -11.3054 C   0  0  0  0  0  0  0  0  0  0  0  0
   40.4383   14.6060  -12.5496 H   0  0  0  0  0  0  0  0  0  0  0  0
   38.3793   13.4764  -14.1880 C   0  0  0  0  0  0  0  0  0  0  0  0
   39.3526   13.2704  -15.0258 C   0  0  0  0  0  0  0  0  0  0  0  0
   40.6699   13.8747  -14.9683 C   0  0  0  0  0  0  0  0  0  0  0  0
   41.1359   14.6700  -14.1153 O   0  0  0  0  0  0  0  0  0  0  0  0
   41.3742   13.3651  -16.1238 N   0  0  0  0  0  0  0  0  0  0  0  0
   40.5198   12.4920  -16.8442 C   0  0  0  0  0  0  0  0  0  0  0  0
   40.7176   11.7600  -18.0070 C   0  0  0  0  0  0  0  0  0  0  0  0
   39.7343   10.9568  -18.5501 C   0  0  0  0  0  0  0  0  0  0  0  0
   38.5232   10.8920  -17.9031 C   0  0  0  0  0  0  0  0  0  0  0  0
   37.5130   10.1200  -18.3859 F   0  0  0  0  0  0  0  0  0  0  0  0
   38.2924   11.6089  -16.7415 C   0  0  0  0  0  0  0  0  0  0  0  0
   39.2984   12.3991  -16.2311 C   0  0  0  0  0  0  0  0  0  0  0  0
   42.3444   13.6264  -16.3448 H   0  0  0  0  0  0  0  0  0  0  0  0
   36.8104   16.3920  -10.4239 C   0  0  0  0  0  0  0  0  0  0  0  0
   36.9202   17.6806  -10.4626 O   0  0  0  0  0  0  0  0  0  0  0  0
   35.8554   15.8947   -9.5381 N   0  0  0  0  0  0  0  0  0  0  0  0
   35.6996   14.8461   -9.4201 H   0  0  0  0  0  0  0  0  0  0  0  0
   35.0211   16.7116   -8.7197 C   0  0  0  0  0  0  0  0  0  0  0  0
   34.0552   15.9145   -7.8828 C   0  0  0  0  0  0  0  0  0  0  0  0
   33.7160   16.8050   -6.7016 C   0  0  0  0  0  0  0  0  0  0  0  0
   32.9765   16.1316   -5.6023 C   0  0  0  0  0  0  0  0  0  0  0  0
   33.2631   14.6691   -5.4495 C   0  0  0  0  0  0  0  0  0  0  0  0
   33.2915   14.3651   -4.0833 O   0  0  0  0  0  0  0  0  0  0  0  0
   34.6625   14.4170   -5.9684 C   0  0  0  0  0  0  0  0  0  0  0  0
   34.7498   14.6486   -7.4581 C   0  0  0  0  0  0  0  0  0  0  0  0
   32.4417   14.5868   -3.6273 H   0  0  0  0  0  0  0  0  0  0  0  0
  1  2  1  0  0  0
  2  3  1  0  0  0
  3  4  1  0  0  0
  4  9  1  0  0  0
  9 10  2  0  0  0
 10 11  1  0  0  0
 11 12  2  0  0  0
 11 13  1  0  0  0
 13 14  1  0  0  0
 14 15  2  0  0  0
 15 16  1  0  0  0
 16 17  2  0  0  0
 17 18  1  0  0  0
 17 19  1  0  0  0
 19 20  2  0  0  0
  4  5  2  0  0  0
  5  6  1  0  0  0
  5  7  1  0  0  0
  7 22  1  0  0  0
 22 23  2  0  0  0
 22 24  1  0  0  0
 24 26  1  0  0  0
 26 27  1  0  0  0
 27 28  1  0  0  0
 28 29  1  0  0  0
 29 30  1  0  0  0
 30 31  1  0  0  0
 30 32  1  0  0  0
 32 33  1  0  0  0
  7  2  2  0  0  0
 33 27  1  0  0  0
 20 10  1  0  0  0
 20 14  1  0  0  0
  3  8  1  0  0  0
 13 21  1  0  0  0
 24 25  1  0  0  0
 31 34  1  0  0  0
M  END
> <minimizedAffinity>
-9.54020

> <CNNscore>
0.2109035254

> <CNNaffinity>
5.8851685524

> <CNN_VS>
1.2412028313

> <CNNaffinity_variance>
0.2148097456

$$$$
[H]O[C@]1([H])C([H])([H])C([H])([H])[C@]([H])(C([H])([H])N([H])C(=O)c2c(C([H])([H])[H])c(/C([H])=C3\C(=O)N([H])c4c([H])c([H])c(F)c([H])c43)n([H])c2C([H])([H])[H])C([H])([H])C1([H])[H]


 34 37  0  0  0  0  0  0  0  0999 V2000
   32.7706   15.4630  -11.8943 C   0  0  0  0  0  0  0  0  0  0  0  0
   34.2320   15.1230  -11.9696 C   0  0  0  0  0  0  0  0  0  0  0  0
   34.8334   14.6595  -13.1044 N   0  0  0  0  0  0  0  0  0  0  0  0
   36.1325   14.4396  -12.9244 C   0  0  0  0  0  0  0  0  0  0  0  0
   36.3710   14.7813  -11.6007 C   0  0  0  0  0  0  0  0  0  0  0  0
   37.7020   14.6909  -10.9551 C   0  0  0  0  0  0  0  0  0  0  0  0
   35.1773   15.2107  -11.0002 C   0  0  0  0  0  0  0  0  0  0  0  0
   34.3062   14.4920  -13.9860 H   0  0  0  0  0  0  0  0  0  0  0  0
   37.1194   13.9688  -13.8756 C   0  0  0  0  0  0  0  0  0  0  0  0
   36.9575   13.0422  -14.7739 C   0  0  0  0  0  0  0  0  0  0  0  0
   35.7410   12.2897  -15.0136 C   0  0  0  0  0  0  0  0  0  0  0  0
   34.6260   12.3915  -14.4447 O   0  0  0  0  0  0  0  0  0  0  0  0
   36.0674   11.3652  -16.0764 N   0  0  0  0  0  0  0  0  0  0  0  0
   37.4195   11.5533  -16.4605 C   0  0  0  0  0  0  0  0  0  0  0  0
   38.2016   10.9249  -17.4199 C   0  0  0  0  0  0  0  0  0  0  0  0
   39.5220   11.2669  -17.6359 C   0  0  0  0  0  0  0  0  0  0  0  0
   40.0643   12.2671  -16.8644 C   0  0  0  0  0  0  0  0  0  0  0  0
   41.3588   12.6514  -17.0268 F   0  0  0  0  0  0  0  0  0  0  0  0
   39.3125   12.9145  -15.8990 C   0  0  0  0  0  0  0  0  0  0  0  0
   37.9989   12.5446  -15.7136 C   0  0  0  0  0  0  0  0  0  0  0  0
   35.3879   10.6945  -16.4595 H   0  0  0  0  0  0  0  0  0  0  0  0
   35.0469   15.6300   -9.6241 C   0  0  0  0  0  0  0  0  0  0  0  0
   35.5092   16.8089   -9.3582 O   0  0  0  0  0  0  0  0  0  0  0  0
   34.4947   14.9414   -8.5448 N   0  0  0  0  0  0  0  0  0  0  0  0
   34.1019   13.9560   -8.6566 H   0  0  0  0  0  0  0  0  0  0  0  0
   34.4086   15.4651   -7.2213 C   0  0  0  0  0  0  0  0  0  0  0  0
   33.0033   15.8351   -6.8248 C   0  0  0  0  0  0  0  0  0  0  0  0
   32.8838   17.3215   -7.1061 C   0  0  0  0  0  0  0  0  0  0  0  0
   31.6650   17.9672   -6.5525 C   0  0  0  0  0  0  0  0  0  0  0  0
   31.1295   17.3408   -5.3013 C   0  0  0  0  0  0  0  0  0  0  0  0
   30.6689   18.3601   -4.4596 O   0  0  0  0  0  0  0  0  0  0  0  0
   32.2892   16.6879   -4.5800 C   0  0  0  0  0  0  0  0  0  0  0  0
   32.8393   15.5193   -5.3624 C   0  0  0  0  0  0  0  0  0  0  0  0
   29.9651   18.9126   -4.8823 H   0  0  0  0  0  0  0  0  0  0  0  0
  1  2  1  0  0  0
  2  3  1  0  0  0
  3  4  1  0  0  0
  4  9  1  0  0  0
  9 10  2  0  0  0
 10 11  1  0  0  0
 11 12  2  0  0  0
 11 13  1  0  0  0
 13 14  1  0  0  0
 14 15  2  0  0  0
 15 16  1  0  0  0
 16 17  2  0  0  0
 17 18  1  0  0  0
 17 19  1  0  0  0
 19 20  2  0  0  0
  4  5  2  0  0  0
  5  6  1  0  0  0
  5  7  1  0  0  0
  7 22  1  0  0  0
 22 23  2  0  0  0
 22 24  1  0  0  0
 24 26  1  0  0  0
 26 27  1  0  0  0
 27 28  1  0  0  0
 28 29  1  0  0  0
 29 30  1  0  0  0
 30 31  1  0  0  0
 30 32  1  0  0  0
 32 33  1  0  0  0
  7  2  2  0  0  0
 33 27  1  0  0  0
 20 10  1  0  0  0
 20 14  1  0  0  0
  3  8  1  0  0  0
 13 21  1  0  0  0
 24 25  1  0  0  0
 31 34  1  0  0  0
M  END
> <minimizedAffinity>
-9.25283

> <CNNscore>
0.2016008496

> <CNNaffinity>
5.7700743675

> <CNN_VS>
1.1632518768

> <CNNaffinity_variance>
0.3009534478

$$$$
[H]/C(=C1/C(=O)N([H])c2c([H])c([H])c(F)c([H])c21)c1c(C([H])([H])[H])c(C(=O)N([H])[C@]2([H])C([H])([H])C([H])([H])[C@@]([H])(N3C([H])([H])C([H])([H])OC([H])([H])C3([H])[H])C([H])([H])C2([H])[H])c(C([H])([H])[H])n1[H]


 37 41  0  0  0  0  0  0  0  0999 V2000
   43.9208   12.8306  -16.3233 C   0  0  0  0  0  0  0  0  0  0  0  0
   42.7105   13.2128  -15.5402 C   0  0  0  0  0  0  0  0  0  0  0  0
   41.4470   12.8037  -15.8590 N   0  0  0  0  0  0  0  0  0  0  0  0
   40.5779   13.2856  -14.9716 C   0  0  0  0  0  0  0  0  0  0  0  0
   41.2804   14.0237  -14.0517 C   0  0  0  0  0  0  0  0  0  0  0  0
   40.7914   14.7414  -12.8497 C   0  0  0  0  0  0  0  0  0  0  0  0
   42.6517   13.9806  -14.4145 C   0  0  0  0  0  0  0  0  0  0  0  0
   41.2489   12.2088  -16.6788 H   0  0  0  0  0  0  0  0  0  0  0  0
   39.1457   13.0177  -14.9728 C   0  0  0  0  0  0  0  0  0  0  0  0
   38.5476   12.2714  -15.8818 C   0  0  0  0  0  0  0  0  0  0  0  0
   39.1744   11.5953  -17.0049 C   0  0  0  0  0  0  0  0  0  0  0  0
   40.4009   11.5687  -17.3141 O   0  0  0  0  0  0  0  0  0  0  0  0
   38.1025   10.9420  -17.7138 N   0  0  0  0  0  0  0  0  0  0  0  0
   36.8641   11.1961  -17.0652 C   0  0  0  0  0  0  0  0  0  0  0  0
   35.5534   10.8254  -17.3098 C   0  0  0  0  0  0  0  0  0  0  0  0
   34.5015   11.2138  -16.5086 C   0  0  0  0  0  0  0  0  0  0  0  0
   34.7616   12.0089  -15.4108 C   0  0  0  0  0  0  0  0  0  0  0  0
   33.7561   12.4220  -14.5823 F   0  0  0  0  0  0  0  0  0  0  0  0
   36.0545   12.3873  -15.1511 C   0  0  0  0  0  0  0  0  0  0  0  0
   37.1027   11.9945  -15.9579 C   0  0  0  0  0  0  0  0  0  0  0  0
   38.2394   10.3737  -18.5720 H   0  0  0  0  0  0  0  0  0  0  0  0
   43.7085   14.6702  -13.7052 C   0  0  0  0  0  0  0  0  0  0  0  0
   44.6814   15.1129  -14.4021 O   0  0  0  0  0  0  0  0  0  0  0  0
   43.7809   14.9025  -12.3288 N   0  0  0  0  0  0  0  0  0  0  0  0
   43.0705   14.5834  -11.6411 H   0  0  0  0  0  0  0  0  0  0  0  0
   44.9256   15.6273  -11.7699 C   0  0  0  0  0  0  0  0  0  0  0  0
   44.5075   16.9915  -11.3013 C   0  0  0  0  0  0  0  0  0  0  0  0
   45.6226   17.7220  -10.6255 C   0  0  0  0  0  0  0  0  0  0  0  0
   46.1751   16.8475   -9.5183 C   0  0  0  0  0  0  0  0  0  0  0  0
   46.7752   15.6380  -10.2098 C   0  0  0  0  0  0  0  0  0  0  0  0
   45.5883   14.7986  -10.6801 C   0  0  0  0  0  0  0  0  0  0  0  0
   47.1955   17.4874   -8.7637 N   0  0  0  0  0  0  0  0  0  0  0  0
   48.0257   16.5883   -7.9940 C   0  0  0  0  0  0  0  0  0  0  0  0
   49.3674   17.3150   -7.8322 C   0  0  0  0  0  0  0  0  0  0  0  0
   49.0838   18.6182   -7.4547 O   0  0  0  0  0  0  0  0  0  0  0  0
   47.8358   18.7703   -6.8665 C   0  0  0  0  0  0  0  0  0  0  0  0
   46.6967   18.4773   -7.8286 C   0  0  0  0  0  0  0  0  0  0  0  0
  1  2  1  0  0  0
  2  3  1  0  0  0
  3  4  1  0  0  0
  4  9  1  0  0  0
  9 10  2  0  0  0
 10 11  1  0  0  0
 11 12  2  0  0  0
 11 13  1  0  0  0
 13 14  1  0  0  0
 14 15  2  0  0  0
 15 16  1  0  0  0
 16 17  2  0  0  0
 17 18  1  0  0  0
 17 19  1  0  0  0
 19 20  2  0  0  0
  4  5  2  0  0  0
  5  6  1  0  0  0
  5  7  1  0  0  0
  7 22  1  0  0  0
 22 23  2  0  0  0
 22 24  1  0  0  0
 24 26  1  0  0  0
 26 27  1  0  0  0
 27 28  1  0  0  0
 28 29  1  0  0  0
 29 30  1  0  0  0
 30 31  1  0  0  0
 29 32  1  0  0  0
 32 33  1  0  0  0
 33 34  1  0  0  0
 34 35  1  0  0  0
 35 36  1  0  0  0
 36 37  1  0  0  0
  7  2  2  0  0  0
 31 26  1  0  0  0
 37 32  1  0  0  0
 20 10  1  0  0  0
 20 14  1  0  0  0
  3  8  1  0  0  0
 13 21  1  0  0  0
 24 25  1  0  0  0
M  END
> <minimizedAffinity>
-8.24130

> <CNNscore>
0.5250744224

> <CNNaffinity>
6.6390695572

> <CNN_VS>
3.4860055447

> <CNNaffinity_variance>
0.6216694713

$$$$
[H]/C(=C1/C(=O)N([H])c2c([H])c([H])c(F)c([H])c21)c1c(C([H])([H])[H])c(C(=O)N([H])[C@]2([H])C([H])([H])C([H])([H])[C@@]([H])(N3C([H])([H])C([H])([H])OC([H])([H])C3([H])[H])C([H])([H])C2([H])[H])c(C([H])([H])[H])n1[H]


 37 41  0  0  0  0  0  0  0  0999 V2000
   39.6838   16.0788   -9.5359 C   0  0  0  0  0  0  0  0  0  0  0  0
   39.6671   15.2161   -8.3195 C   0  0  0  0  0  0  0  0  0  0  0  0
   40.4643   14.1181   -8.1639 N   0  0  0  0  0  0  0  0  0  0  0  0
   40.2417   13.5623   -6.9736 C   0  0  0  0  0  0  0  0  0  0  0  0
   39.2827   14.3072   -6.3334 C   0  0  0  0  0  0  0  0  0  0  0  0
   38.7041   14.1328   -4.9792 C   0  0  0  0  0  0  0  0  0  0  0  0
   38.9095   15.3706   -7.1959 C   0  0  0  0  0  0  0  0  0  0  0  0
   41.1254   13.8071   -8.8929 H   0  0  0  0  0  0  0  0  0  0  0  0
   40.9444   12.3986   -6.4493 C   0  0  0  0  0  0  0  0  0  0  0  0
   42.0462   12.4801   -5.7280 C   0  0  0  0  0  0  0  0  0  0  0  0
   42.7388   13.6931   -5.3278 C   0  0  0  0  0  0  0  0  0  0  0  0
   42.4140   14.8923   -5.5669 O   0  0  0  0  0  0  0  0  0  0  0  0
   43.8937   13.2550   -4.5845 N   0  0  0  0  0  0  0  0  0  0  0  0
   43.9225   11.8359   -4.5216 C   0  0  0  0  0  0  0  0  0  0  0  0
   44.7812   10.9131   -3.9505 C   0  0  0  0  0  0  0  0  0  0  0  0
   44.5831    9.5518   -4.0333 C   0  0  0  0  0  0  0  0  0  0  0  0
   43.4792    9.0820   -4.7159 C   0  0  0  0  0  0  0  0  0  0  0  0
   43.2340    7.7420   -4.8277 F   0  0  0  0  0  0  0  0  0  0  0  0
   42.6158    9.9808   -5.2892 C   0  0  0  0  0  0  0  0  0  0  0  0
   42.8207   11.3425   -5.2022 C   0  0  0  0  0  0  0  0  0  0  0  0
   44.5902   13.9012   -4.1654 H   0  0  0  0  0  0  0  0  0  0  0  0
   37.8945   16.3560   -6.8892 C   0  0  0  0  0  0  0  0  0  0  0  0
   38.2945   17.4746   -6.4236 O   0  0  0  0  0  0  0  0  0  0  0  0
   36.5129   16.2126   -7.0458 N   0  0  0  0  0  0  0  0  0  0  0  0
   36.0476   15.3522   -7.3960 H   0  0  0  0  0  0  0  0  0  0  0  0
   35.6192   17.3184   -6.6902 C   0  0  0  0  0  0  0  0  0  0  0  0
   35.6911   17.6009   -5.2169 C   0  0  0  0  0  0  0  0  0  0  0  0
   34.8763   18.7929   -4.8307 C   0  0  0  0  0  0  0  0  0  0  0  0
   35.2965   19.9673   -5.6909 C   0  0  0  0  0  0  0  0  0  0  0  0
   34.9150   19.5948   -7.1110 C   0  0  0  0  0  0  0  0  0  0  0  0
   35.9270   18.5365   -7.5476 C   0  0  0  0  0  0  0  0  0  0  0  0
   34.6280   21.1736   -5.3465 N   0  0  0  0  0  0  0  0  0  0  0  0
   33.6378   21.6058   -6.3069 C   0  0  0  0  0  0  0  0  0  0  0  0
   32.6321   22.4411   -5.5034 C   0  0  0  0  0  0  0  0  0  0  0  0
   33.3643   23.3068   -4.7060 O   0  0  0  0  0  0  0  0  0  0  0  0
   34.6492   23.5452   -5.1738 C   0  0  0  0  0  0  0  0  0  0  0  0
   35.5200   22.3001   -5.1506 C   0  0  0  0  0  0  0  0  0  0  0  0
  1  2  1  0  0  0
  2  3  1  0  0  0
  3  4  1  0  0  0
  4  9  1  0  0  0
  9 10  2  0  0  0
 10 11  1  0  0  0
 11 12  2  0  0  0
 11 13  1  0  0  0
 13 14  1  0  0  0
 14 15  2  0  0  0
 15 16  1  0  0  0
 16 17  2  0  0  0
 17 18  1  0  0  0
 17 19  1  0  0  0
 19 20  2  0  0  0
  4  5  2  0  0  0
  5  6  1  0  0  0
  5  7  1  0  0  0
  7 22  1  0  0  0
 22 23  2  0  0  0
 22 24  1  0  0  0
 24 26  1  0  0  0
 26 27  1  0  0  0
 27 28  1  0  0  0
 28 29  1  0  0  0
 29 30  1  0  0  0
 30 31  1  0  0  0
 29 32  1  0  0  0
 32 33  1  0  0  0
 33 34  1  0  0  0
 34 35  1  0  0  0
 35 36  1  0  0  0
 36 37  1  0  0  0
  7  2  2  0  0  0
 31 26  1  0  0  0
 37 32  1  0  0  0
 20 10  1  0  0  0
 20 14  1  0  0  0
  3  8  1  0  0  0
 13 21  1  0  0  0
 24 25  1  0  0  0
M  END
> <minimizedAffinity>
-6.58982

> <CNNscore>
0.3769688308

> <CNNaffinity>
5.0606336594

> <CNN_VS>
1.9077011347

> <CNNaffinity_variance>
0.4050843120

$$$$
[H]/C(=C1/C(=O)N([H])c2c([H])c([H])c(F)c([H])c21)c1c(C([H])([H])[H])c(C(=O)N([H])[C@]2([H])C([H])([H])C([H])([H])[C@@]([H])(N3C([H])([H])C([H])([H])OC([H])([H])C3([H])[H])C([H])([H])C2([H])[H])c(C([H])([H])[H])n1[H]


 37 41  0  0  0  0  0  0  0  0999 V2000
   35.8360   12.8314  -15.6076 C   0  0  0  0  0  0  0  0  0  0  0  0
   36.9744   13.2588  -14.7441 C   0  0  0  0  0  0  0  0  0  0  0  0
   38.2736   13.2759  -15.1647 N   0  0  0  0  0  0  0  0  0  0  0  0
   39.0605   13.7197  -14.1854 C   0  0  0  0  0  0  0  0  0  0  0  0
   38.2664   14.0011  -13.1016 C   0  0  0  0  0  0  0  0  0  0  0  0
   38.6430   14.5478  -11.7756 C   0  0  0  0  0  0  0  0  0  0  0  0
   36.9246   13.7047  -13.4561 C   0  0  0  0  0  0  0  0  0  0  0  0
   38.5518   12.9780  -16.1129 H   0  0  0  0  0  0  0  0  0  0  0  0
   40.5010   13.9111  -14.2915 C   0  0  0  0  0  0  0  0  0  0  0  0
   41.2505   13.2990  -15.1885 C   0  0  0  0  0  0  0  0  0  0  0  0
   40.8037   12.3619  -16.2050 C   0  0  0  0  0  0  0  0  0  0  0  0
   39.6237   11.9726  -16.4430 O   0  0  0  0  0  0  0  0  0  0  0  0
   41.9939   11.9542  -16.9090 N   0  0  0  0  0  0  0  0  0  0  0  0
   43.1311   12.6055  -16.3603 C   0  0  0  0  0  0  0  0  0  0  0  0
   44.4856   12.5828  -16.6432 C   0  0  0  0  0  0  0  0  0  0  0  0
   45.4110   13.3273  -15.9443 C   0  0  0  0  0  0  0  0  0  0  0  0
   44.9723   14.1342  -14.9140 C   0  0  0  0  0  0  0  0  0  0  0  0
   45.8469   14.8941  -14.1889 F   0  0  0  0  0  0  0  0  0  0  0  0
   43.6333   14.1706  -14.6177 C   0  0  0  0  0  0  0  0  0  0  0  0
   42.7124   13.4223  -15.3219 C   0  0  0  0  0  0  0  0  0  0  0  0
   41.9955   11.2806  -17.6992 H   0  0  0  0  0  0  0  0  0  0  0  0
   35.7931   13.8381  -12.5633 C   0  0  0  0  0  0  0  0  0  0  0  0
   35.4361   12.7955  -11.9201 O   0  0  0  0  0  0  0  0  0  0  0  0
   35.0413   14.9932  -12.3300 N   0  0  0  0  0  0  0  0  0  0  0  0
   35.2075   15.9064  -12.7967 H   0  0  0  0  0  0  0  0  0  0  0  0
   33.9232   14.9578  -11.3831 C   0  0  0  0  0  0  0  0  0  0  0  0
   34.2642   15.7228  -10.1365 C   0  0  0  0  0  0  0  0  0  0  0  0
   33.1101   15.8027   -9.1902 C   0  0  0  0  0  0  0  0  0  0  0  0
   31.9124   16.3611   -9.9316 C   0  0  0  0  0  0  0  0  0  0  0  0
   31.5651   15.3300  -10.9886 C   0  0  0  0  0  0  0  0  0  0  0  0
   32.6513   15.4498  -12.0565 C   0  0  0  0  0  0  0  0  0  0  0  0
   30.7793   16.5467   -9.0937 N   0  0  0  0  0  0  0  0  0  0  0  0
   31.0864   17.0411   -7.7704 C   0  0  0  0  0  0  0  0  0  0  0  0
   29.8211   17.7768   -7.3095 C   0  0  0  0  0  0  0  0  0  0  0  0
   28.7426   16.9545   -7.5959 O   0  0  0  0  0  0  0  0  0  0  0  0
   29.0796   15.6134   -7.7172 C   0  0  0  0  0  0  0  0  0  0  0  0
   29.9906   15.3448   -8.9033 C   0  0  0  0  0  0  0  0  0  0  0  0
  1  2  1  0  0  0
  2  3  1  0  0  0
  3  4  1  0  0  0
  4  9  1  0  0  0
  9 10  2  0  0  0
 10 11  1  0  0  0
 11 12  2  0  0  0
 11 13  1  0  0  0
 13 14  1  0  0  0
 14 15  2  0  0  0
 15 16  1  0  0  0
 16 17  2  0  0  0
 17 18  1  0  0  0
 17 19  1  0  0  0
 19 20  2  0  0  0
  4  5  2  0  0  0
  5  6  1  0  0  0
  5  7  1  0  0  0
  7 22  1  0  0  0
 22 23  2  0  0  0
 22 24  1  0  0  0
 24 26  1  0  0  0
 26 27  1  0  0  0
 27 28  1  0  0  0
 28 29  1  0  0  0
 29 30  1  0  0  0
 30 31  1  0  0  0
 29 32  1  0  0  0
 32 33  1  0  0  0
 33 34  1  0  0  0
 34 35  1  0  0  0
 35 36  1  0  0  0
 36 37  1  0  0  0
  7  2  2  0  0  0
 31 26  1  0  0  0
 37 32  1  0  0  0
 20 10  1  0  0  0
 20 14  1  0  0  0
  3  8  1  0  0  0
 13 21  1  0  0  0
 24 25  1  0  0  0
M  END
> <minimizedAffinity>
-8.43280

> <CNNscore>
0.3078948855

> <CNNaffinity>
6.5153388977

> <CNN_VS>
2.0060396194

> <CNNaffinity_variance>
0.1750751138

$$$$
[H]/C(=C1/C(=O)N([H])c2c([H])c([H])c(F)c([H])c21)c1c(C([H])([H])[H])c(C(=O)N([H])[C@]2([H])C([H])([H])C([H])([H])[C@@]([H])(N3C([H])([H])C([H])([H])OC([H])([H])C3([H])[H])C([H])([H])C2([H])[H])c(C([H])([H])[H])n1[H]


 37 41  0  0  0  0  0  0  0  0999 V2000
   32.8477   14.9432  -12.3452 C   0  0  0  0  0  0  0  0  0  0  0  0
   34.3158   14.7088  -12.4632 C   0  0  0  0  0  0  0  0  0  0  0  0
   34.9036   14.1522  -13.5632 N   0  0  0  0  0  0  0  0  0  0  0  0
   36.2226   14.0868  -13.3871 C   0  0  0  0  0  0  0  0  0  0  0  0
   36.5093   14.6103  -12.1510 C   0  0  0  0  0  0  0  0  0  0  0  0
   37.8233   14.7969  -11.4895 C   0  0  0  0  0  0  0  0  0  0  0  0
   35.2859   15.0100  -11.5530 C   0  0  0  0  0  0  0  0  0  0  0  0
   34.3597   13.8440  -14.3844 H   0  0  0  0  0  0  0  0  0  0  0  0
   37.1744   13.5894  -14.3718 C   0  0  0  0  0  0  0  0  0  0  0  0
   36.8691   12.6876  -15.2854 C   0  0  0  0  0  0  0  0  0  0  0  0
   35.5793   12.0486  -15.4831 C   0  0  0  0  0  0  0  0  0  0  0  0
   34.5048   12.2453  -14.8447 O   0  0  0  0  0  0  0  0  0  0  0  0
   35.7645   11.1272  -16.5762 N   0  0  0  0  0  0  0  0  0  0  0  0
   37.1057   11.1870  -17.0413 C   0  0  0  0  0  0  0  0  0  0  0  0
   37.8103   10.5369  -18.0393 C   0  0  0  0  0  0  0  0  0  0  0  0
   39.1421   10.7793  -18.2978 C   0  0  0  0  0  0  0  0  0  0  0  0
   39.8084   11.7122  -17.5291 C   0  0  0  0  0  0  0  0  0  0  0  0
   41.1289   11.9922  -17.7432 F   0  0  0  0  0  0  0  0  0  0  0  0
   39.1275   12.3674  -16.5346 C   0  0  0  0  0  0  0  0  0  0  0  0
   37.7940   12.1195  -16.2815 C   0  0  0  0  0  0  0  0  0  0  0  0
   35.0123   10.5179  -16.9520 H   0  0  0  0  0  0  0  0  0  0  0  0
   35.1698   15.5784  -10.2268 C   0  0  0  0  0  0  0  0  0  0  0  0
   35.4992   16.8036  -10.0904 O   0  0  0  0  0  0  0  0  0  0  0  0
   34.7360   14.9248   -9.0700 N   0  0  0  0  0  0  0  0  0  0  0  0
   34.4548   13.9254   -9.0303 H   0  0  0  0  0  0  0  0  0  0  0  0
   34.6718   15.6537   -7.8001 C   0  0  0  0  0  0  0  0  0  0  0  0
   35.9437   16.4174   -7.5662 C   0  0  0  0  0  0  0  0  0  0  0  0
   35.8767   17.2609   -6.3342 C   0  0  0  0  0  0  0  0  0  0  0  0
   34.6492   18.1453   -6.4177 C   0  0  0  0  0  0  0  0  0  0  0  0
   33.4605   17.2034   -6.3907 C   0  0  0  0  0  0  0  0  0  0  0  0
   33.4316   16.5336   -7.7638 C   0  0  0  0  0  0  0  0  0  0  0  0
   34.5376   19.0432   -5.3215 N   0  0  0  0  0  0  0  0  0  0  0  0
   35.2670   18.6409   -4.1400 C   0  0  0  0  0  0  0  0  0  0  0  0
   35.5757   19.9444   -3.3915 C   0  0  0  0  0  0  0  0  0  0  0  0
   34.4049   20.6859   -3.3614 O   0  0  0  0  0  0  0  0  0  0  0  0
   33.2564   19.9230   -3.5216 C   0  0  0  0  0  0  0  0  0  0  0  0
   33.1715   19.2756   -4.8937 C   0  0  0  0  0  0  0  0  0  0  0  0
  1  2  1  0  0  0
  2  3  1  0  0  0
  3  4  1  0  0  0
  4  9  1  0  0  0
  9 10  2  0  0  0
 10 11  1  0  0  0
 11 12  2  0  0  0
 11 13  1  0  0  0
 13 14  1  0  0  0
 14 15  2  0  0  0
 15 16  1  0  0  0
 16 17  2  0  0  0
 17 18  1  0  0  0
 17 19  1  0  0  0
 19 20  2  0  0  0
  4  5  2  0  0  0
  5  6  1  0  0  0
  5  7  1  0  0  0
  7 22  1  0  0  0
 22 23  2  0  0  0
 22 24  1  0  0  0
 24 26  1  0  0  0
 26 27  1  0  0  0
 27 28  1  0  0  0
 28 29  1  0  0  0
 29 30  1  0  0  0
 30 31  1  0  0  0
 29 32  1  0  0  0
 32 33  1  0  0  0
 33 34  1  0  0  0
 34 35  1  0  0  0
 35 36  1  0  0  0
 36 37  1  0  0  0
  7  2  2  0  0  0
 31 26  1  0  0  0
 37 32  1  0  0  0
 20 10  1  0  0  0
 20 14  1  0  0  0
  3  8  1  0  0  0
 13 21  1  0  0  0
 24 25  1  0  0  0
M  END
> <minimizedAffinity>
-9.37761

> <CNNscore>
0.2631233037

> <CNNaffinity>
6.3599848747

> <CNN_VS>
1.6734602451

> <CNNaffinity_variance>
0.1870627105

$$$$
[H]/C(=C1/C(=O)N([H])c2c([H])c([H])c(F)c([H])c21)c1c(C([H])([H])[H])c(C(=O)N([H])[C@]2([H])C([H])([H])C([H])([H])[C@@]([H])(N3C([H])([H])C([H])([H])OC([H])([H])C3([H])[H])C([H])([H])C2([H])[H])c(C([H])([H])[H])n1[H]


 37 41  0  0  0  0  0  0  0  0999 V2000
   41.0382   16.3489  -11.4068 C   0  0  0  0  0  0  0  0  0  0  0  0
   39.7040   15.7684  -11.7340 C   0  0  0  0  0  0  0  0  0  0  0  0
   39.4771   14.9637  -12.8139 N   0  0  0  0  0  0  0  0  0  0  0  0
   38.1999   14.5850  -12.8356 C   0  0  0  0  0  0  0  0  0  0  0  0
   37.5748   15.1484  -11.7512 C   0  0  0  0  0  0  0  0  0  0  0  0
   36.1676   15.0163  -11.3024 C   0  0  0  0  0  0  0  0  0  0  0  0
   38.5380   15.9112  -11.0410 C   0  0  0  0  0  0  0  0  0  0  0  0
   40.2212   14.7160  -13.4849 H   0  0  0  0  0  0  0  0  0  0  0  0
   37.6100   13.6882  -13.8209 C   0  0  0  0  0  0  0  0  0  0  0  0
   38.3104   13.0762  -14.7568 C   0  0  0  0  0  0  0  0  0  0  0  0
   39.7443   13.1677  -14.9729 C   0  0  0  0  0  0  0  0  0  0  0  0
   40.5944   13.8222  -14.3023 O   0  0  0  0  0  0  0  0  0  0  0  0
   40.0178   12.3458  -16.1252 N   0  0  0  0  0  0  0  0  0  0  0  0
   38.8131   11.7667  -16.6070 C   0  0  0  0  0  0  0  0  0  0  0  0
   38.5026   10.9191  -17.6559 C   0  0  0  0  0  0  0  0  0  0  0  0
   37.2196   10.4908  -17.9203 C   0  0  0  0  0  0  0  0  0  0  0  0
   36.1939   10.9241  -17.1048 C   0  0  0  0  0  0  0  0  0  0  0  0
   34.9033   10.5294  -17.3211 F   0  0  0  0  0  0  0  0  0  0  0  0
   36.4811   11.7649  -16.0595 C   0  0  0  0  0  0  0  0  0  0  0  0
   37.7681   12.1896  -15.8009 C   0  0  0  0  0  0  0  0  0  0  0  0
   40.9657   12.2116  -16.5273 H   0  0  0  0  0  0  0  0  0  0  0  0
   38.2538   16.6874   -9.8527 C   0  0  0  0  0  0  0  0  0  0  0  0
   38.6479   16.2067   -8.7384 O   0  0  0  0  0  0  0  0  0  0  0  0
   37.5863   17.9140   -9.7928 N   0  0  0  0  0  0  0  0  0  0  0  0
   37.1960   18.4113  -10.6172 H   0  0  0  0  0  0  0  0  0  0  0  0
   37.3857   18.5736   -8.4994 C   0  0  0  0  0  0  0  0  0  0  0  0
   37.6766   20.0432   -8.6068 C   0  0  0  0  0  0  0  0  0  0  0  0
   37.3791   20.7714   -7.3360 C   0  0  0  0  0  0  0  0  0  0  0  0
   35.9527   20.4677   -6.9250 C   0  0  0  0  0  0  0  0  0  0  0  0
   35.9200   18.9826   -6.6180 C   0  0  0  0  0  0  0  0  0  0  0  0
   35.9899   18.2782   -7.9722 C   0  0  0  0  0  0  0  0  0  0  0  0
   35.5482   21.1773   -5.7617 N   0  0  0  0  0  0  0  0  0  0  0  0
   34.1343   21.0970   -5.4715 C   0  0  0  0  0  0  0  0  0  0  0  0
   34.0200   21.3031   -3.9553 C   0  0  0  0  0  0  0  0  0  0  0  0
   34.8148   22.3909   -3.6293 O   0  0  0  0  0  0  0  0  0  0  0  0
   35.0566   23.2455   -4.6961 C   0  0  0  0  0  0  0  0  0  0  0  0
   35.8742   22.5899   -5.7964 C   0  0  0  0  0  0  0  0  0  0  0  0
  1  2  1  0  0  0
  2  3  1  0  0  0
  3  4  1  0  0  0
  4  9  1  0  0  0
  9 10  2  0  0  0
 10 11  1  0  0  0
 11 12  2  0  0  0
 11 13  1  0  0  0
 13 14  1  0  0  0
 14 15  2  0  0  0
 15 16  1  0  0  0
 16 17  2  0  0  0
 17 18  1  0  0  0
 17 19  1  0  0  0
 19 20  2  0  0  0
  4  5  2  0  0  0
  5  6  1  0  0  0
  5  7  1  0  0  0
  7 22  1  0  0  0
 22 23  2  0  0  0
 22 24  1  0  0  0
 24 26  1  0  0  0
 26 27  1  0  0  0
 27 28  1  0  0  0
 28 29  1  0  0  0
 29 30  1  0  0  0
 30 31  1  0  0  0
 29 32  1  0  0  0
 32 33  1  0  0  0
 33 34  1  0  0  0
 34 35  1  0  0  0
 35 36  1  0  0  0
 36 37  1  0  0  0
  7  2  2  0  0  0
 31 26  1  0  0  0
 37 32  1  0  0  0
 20 10  1  0  0  0
 20 14  1  0  0  0
  3  8  1  0  0  0
 13 21  1  0  0  0
 24 25  1  0  0  0
M  END
> <minimizedAffinity>
-9.69861

> <CNNscore>
0.2621926963

> <CNNaffinity>
6.4194579124

> <CNN_VS>
1.6831350327

> <CNNaffinity_variance>
0.3065500557

$$$$
[H]/C(=C1/C(=O)N([H])c2c([H])c([H])c(F)c([H])c21)c1c(C([H])([H])[H])c(C(=O)N([H])[C@]2([H])C([H])([H])C([H])([H])[C@@]([H])(N3C([H])([H])C([H])([H])OC([H])([H])C3([H])[H])C([H])([H])C2([H])[H])c(C([H])([H])[H])n1[H]


 37 41  0  0  0  0  0  0  0  0999 V2000
   39.9949   16.6036  -11.2004 C   0  0  0  0  0  0  0  0  0  0  0  0
   39.0911   15.5988  -11.8311 C   0  0  0  0  0  0  0  0  0  0  0  0
   39.3203   15.0453  -13.0585 N   0  0  0  0  0  0  0  0  0  0  0  0
   38.3571   14.1714  -13.3477 C   0  0  0  0  0  0  0  0  0  0  0  0
   37.4790   14.1475  -12.2929 C   0  0  0  0  0  0  0  0  0  0  0  0
   36.2594   13.3258  -12.1019 C   0  0  0  0  0  0  0  0  0  0  0  0
   37.9465   15.0650  -11.3163 C   0  0  0  0  0  0  0  0  0  0  0  0
   40.1357   15.3015  -13.6370 H   0  0  0  0  0  0  0  0  0  0  0  0
   38.2992   13.3600  -14.5566 C   0  0  0  0  0  0  0  0  0  0  0  0
   39.3604   13.0597  -15.2808 C   0  0  0  0  0  0  0  0  0  0  0  0
   40.7339   13.4561  -15.0211 C   0  0  0  0  0  0  0  0  0  0  0  0
   41.1801   14.1358  -14.0518 O   0  0  0  0  0  0  0  0  0  0  0  0
   41.5091   12.9088  -16.1064 N   0  0  0  0  0  0  0  0  0  0  0  0
   40.6618   12.2027  -17.0021 C   0  0  0  0  0  0  0  0  0  0  0  0
   40.8704   11.5026  -18.1774 C   0  0  0  0  0  0  0  0  0  0  0  0
   39.8531   10.8907  -18.8773 C   0  0  0  0  0  0  0  0  0  0  0  0
   38.5653   10.9771  -18.3881 C   0  0  0  0  0  0  0  0  0  0  0  0
   37.5193   10.3881  -19.0415 F   0  0  0  0  0  0  0  0  0  0  0  0
   38.3376   11.6669  -17.2243 C   0  0  0  0  0  0  0  0  0  0  0  0
   39.3613   12.2771  -16.5289 C   0  0  0  0  0  0  0  0  0  0  0  0
   42.5366   13.0266  -16.1994 H   0  0  0  0  0  0  0  0  0  0  0  0
   37.2690   15.3495  -10.0692 C   0  0  0  0  0  0  0  0  0  0  0  0
   37.5273   14.5842   -9.0814 O   0  0  0  0  0  0  0  0  0  0  0  0
   36.3529   16.3775   -9.8288 N   0  0  0  0  0  0  0  0  0  0  0  0
   36.0367   17.0617  -10.5438 H   0  0  0  0  0  0  0  0  0  0  0  0
   35.7595   16.5301   -8.4974 C   0  0  0  0  0  0  0  0  0  0  0  0
   35.9354   17.9364   -8.0003 C   0  0  0  0  0  0  0  0  0  0  0  0
   35.2488   18.1623   -6.6921 C   0  0  0  0  0  0  0  0  0  0  0  0
   33.7977   17.7479   -6.8276 C   0  0  0  0  0  0  0  0  0  0  0  0
   33.8185   16.2522   -7.0795 C   0  0  0  0  0  0  0  0  0  0  0  0
   34.3064   16.0812   -8.5173 C   0  0  0  0  0  0  0  0  0  0  0  0
   33.0384   17.9963   -5.6519 N   0  0  0  0  0  0  0  0  0  0  0  0
   31.7116   18.5167   -5.8937 C   0  0  0  0  0  0  0  0  0  0  0  0
   30.8815   18.0903   -4.6756 C   0  0  0  0  0  0  0  0  0  0  0  0
   31.6317   18.3817   -3.5471 O   0  0  0  0  0  0  0  0  0  0  0  0
   32.5954   19.3590   -3.7541 C   0  0  0  0  0  0  0  0  0  0  0  0
   33.6731   18.9194   -4.7309 C   0  0  0  0  0  0  0  0  0  0  0  0
  1  2  1  0  0  0
  2  3  1  0  0  0
  3  4  1  0  0  0
  4  9  1  0  0  0
  9 10  2  0  0  0
 10 11  1  0  0  0
 11 12  2  0  0  0
 11 13  1  0  0  0
 13 14  1  0  0  0
 14 15  2  0  0  0
 15 16  1  0  0  0
 16 17  2  0  0  0
 17 18  1  0  0  0
 17 19  1  0  0  0
 19 20  2  0  0  0
  4  5  2  0  0  0
  5  6  1  0  0  0
  5  7  1  0  0  0
  7 22  1  0  0  0
 22 23  2  0  0  0
 22 24  1  0  0  0
 24 26  1  0  0  0
 26 27  1  0  0  0
 27 28  1  0  0  0
 28 29  1  0  0  0
 29 30  1  0  0  0
 30 31  1  0  0  0
 29 32  1  0  0  0
 32 33  1  0  0  0
 33 34  1  0  0  0
 34 35  1  0  0  0
 35 36  1  0  0  0
 36 37  1  0  0  0
  7  2  2  0  0  0
 31 26  1  0  0  0
 37 32  1  0  0  0
 20 10  1  0  0  0
 20 14  1  0  0  0
  3  8  1  0  0  0
 13 21  1  0  0  0
 24 25  1  0  0  0
M  END
> <minimizedAffinity>
-9.25985

> <CNNscore>
0.2605136037

> <CNNaffinity>
6.1765618324

> <CNN_VS>
1.6090784073

> <CNNaffinity_variance>
0.1266562045

$$$$
[H]/C(=C1/C(=O)N([H])c2c([H])c([H])c(F)c([H])c21)c1c(C([H])([H])[H])c(C(=O)N([H])[C@]2([H])C([H])([H])C([H])([H])[C@@]([H])(N3C([H])([H])C([H])([H])OC([H])([H])C3([H])[H])C([H])([H])C2([H])[H])c(C([H])([H])[H])n1[H]


 37 41  0  0  0  0  0  0  0  0999 V2000
   38.8750   15.4427  -10.1439 C   0  0  0  0  0  0  0  0  0  0  0  0
   38.0551   14.9016  -11.2660 C   0  0  0  0  0  0  0  0  0  0  0  0
   38.5760   14.1690  -12.2942 N   0  0  0  0  0  0  0  0  0  0  0  0
   37.6040   13.8094  -13.1315 C   0  0  0  0  0  0  0  0  0  0  0  0
   36.4224   14.3122  -12.6464 C   0  0  0  0  0  0  0  0  0  0  0  0
   35.0479   14.1712  -13.1848 C   0  0  0  0  0  0  0  0  0  0  0  0
   36.7083   15.0164  -11.4479 C   0  0  0  0  0  0  0  0  0  0  0  0
   39.5829   13.9537  -12.3652 H   0  0  0  0  0  0  0  0  0  0  0  0
   37.7851   12.9838  -14.3183 C   0  0  0  0  0  0  0  0  0  0  0  0
   38.7798   13.1453  -15.1700 C   0  0  0  0  0  0  0  0  0  0  0  0
   39.8453   14.1299  -15.0898 C   0  0  0  0  0  0  0  0  0  0  0  0
   40.0408   14.9967  -14.1892 O   0  0  0  0  0  0  0  0  0  0  0  0
   40.6583   13.9204  -16.2618 N   0  0  0  0  0  0  0  0  0  0  0  0
   40.1279   12.8552  -17.0381 C   0  0  0  0  0  0  0  0  0  0  0  0
   40.4984   12.2502  -18.2263 C   0  0  0  0  0  0  0  0  0  0  0  0
   39.7966   11.2052  -18.7873 C   0  0  0  0  0  0  0  0  0  0  0  0
   38.6720   10.7367  -18.1385 C   0  0  0  0  0  0  0  0  0  0  0  0
   37.9396    9.7022  -18.6499 F   0  0  0  0  0  0  0  0  0  0  0  0
   38.2880   11.3232  -16.9593 C   0  0  0  0  0  0  0  0  0  0  0  0
   38.9956   12.3693  -16.4036 C   0  0  0  0  0  0  0  0  0  0  0  0
   41.5042   14.4795  -16.4856 H   0  0  0  0  0  0  0  0  0  0  0  0
   35.7217   15.7206  -10.6566 C   0  0  0  0  0  0  0  0  0  0  0  0
   35.8494   16.9868  -10.5637 O   0  0  0  0  0  0  0  0  0  0  0  0
   34.6379   15.1592   -9.9754 N   0  0  0  0  0  0  0  0  0  0  0  0
   34.4233   14.1431   -9.9488 H   0  0  0  0  0  0  0  0  0  0  0  0
   33.7242   16.0214   -9.2205 C   0  0  0  0  0  0  0  0  0  0  0  0
   32.3082   15.8159   -9.6769 C   0  0  0  0  0  0  0  0  0  0  0  0
   31.3324   16.5971   -8.8575 C   0  0  0  0  0  0  0  0  0  0  0  0
   31.5490   16.2627   -7.3956 C   0  0  0  0  0  0  0  0  0  0  0  0
   32.9378   16.7712   -7.0584 C   0  0  0  0  0  0  0  0  0  0  0  0
   33.9085   15.7988   -7.7271 C   0  0  0  0  0  0  0  0  0  0  0  0
   30.6143   16.9020   -6.5365 N   0  0  0  0  0  0  0  0  0  0  0  0
   30.1313   18.1765   -7.0182 C   0  0  0  0  0  0  0  0  0  0  0  0
   28.7483   18.3536   -6.3774 C   0  0  0  0  0  0  0  0  0  0  0  0
   28.8755   18.0331   -5.0349 O   0  0  0  0  0  0  0  0  0  0  0  0
   30.1737   18.1413   -4.5554 C   0  0  0  0  0  0  0  0  0  0  0  0
   31.1193   17.1406   -5.1982 C   0  0  0  0  0  0  0  0  0  0  0  0
  1  2  1  0  0  0
  2  3  1  0  0  0
  3  4  1  0  0  0
  4  9  1  0  0  0
  9 10  2  0  0  0
 10 11  1  0  0  0
 11 12  2  0  0  0
 11 13  1  0  0  0
 13 14  1  0  0  0
 14 15  2  0  0  0
 15 16  1  0  0  0
 16 17  2  0  0  0
 17 18  1  0  0  0
 17 19  1  0  0  0
 19 20  2  0  0  0
  4  5  2  0  0  0
  5  6  1  0  0  0
  5  7  1  0  0  0
  7 22  1  0  0  0
 22 23  2  0  0  0
 22 24  1  0  0  0
 24 26  1  0  0  0
 26 27  1  0  0  0
 27 28  1  0  0  0
 28 29  1  0  0  0
 29 30  1  0  0  0
 30 31  1  0  0  0
 29 32  1  0  0  0
 32 33  1  0  0  0
 33 34  1  0  0  0
 34 35  1  0  0  0
 35 36  1  0  0  0
 36 37  1  0  0  0
  7  2  2  0  0  0
 31 26  1  0  0  0
 37 32  1  0  0  0
 20 10  1  0  0  0
 20 14  1  0  0  0
  3  8  1  0  0  0
 13 21  1  0  0  0
 24 25  1  0  0  0
M  END
> <minimizedAffinity>
-9.57481

> <CNNscore>
0.2583733499

> <CNNaffinity>
6.2452583313

> <CNN_VS>
1.6136083603

> <CNNaffinity_variance>
0.1385666430

$$$$
[H]/C(=C1/C(=O)N([H])c2c([H])c([H])c(F)c([H])c21)c1c(C([H])([H])[H])c(C(=O)N([H])[C@]2([H])C([H])([H])C([H])([H])[C@@]([H])(N3C([H])([H])C([H])([H])OC([H])([H])C3([H])[H])C([H])([H])C2([H])[H])c(C([H])([H])[H])n1[H]


 37 41  0  0  0  0  0  0  0  0999 V2000
   41.3571   16.4342  -12.4473 C   0  0  0  0  0  0  0  0  0  0  0  0
   41.6485   16.0904  -11.0257 C   0  0  0  0  0  0  0  0  0  0  0  0
   42.8716   15.6684  -10.5884 N   0  0  0  0  0  0  0  0  0  0  0  0
   42.8337   15.4565   -9.2736 C   0  0  0  0  0  0  0  0  0  0  0  0
   41.5648   15.7449   -8.8366 C   0  0  0  0  0  0  0  0  0  0  0  0
   41.0104   15.7026   -7.4619 C   0  0  0  0  0  0  0  0  0  0  0  0
   40.7992   16.1515   -9.9603 C   0  0  0  0  0  0  0  0  0  0  0  0
   43.6749   15.5475  -11.2251 H   0  0  0  0  0  0  0  0  0  0  0  0
   43.9689   15.0410   -8.4602 C   0  0  0  0  0  0  0  0  0  0  0  0
   44.6083   13.9001   -8.6349 C   0  0  0  0  0  0  0  0  0  0  0  0
   44.3219   12.8841   -9.6334 C   0  0  0  0  0  0  0  0  0  0  0  0
   43.4332   12.9031  -10.5336 O   0  0  0  0  0  0  0  0  0  0  0  0
   45.2718   11.8260   -9.3959 N   0  0  0  0  0  0  0  0  0  0  0  0
   46.1132   12.1636   -8.3019 C   0  0  0  0  0  0  0  0  0  0  0  0
   47.1658   11.5313   -7.6637 C   0  0  0  0  0  0  0  0  0  0  0  0
   47.8364   12.0843   -6.5943 C   0  0  0  0  0  0  0  0  0  0  0  0
   47.4443   13.3253   -6.1347 C   0  0  0  0  0  0  0  0  0  0  0  0
   48.0753   13.9203   -5.0783 F   0  0  0  0  0  0  0  0  0  0  0  0
   46.4027   13.9685   -6.7538 C   0  0  0  0  0  0  0  0  0  0  0  0
   45.7358   13.4086   -7.8241 C   0  0  0  0  0  0  0  0  0  0  0  0
   45.3157   10.9526   -9.9558 H   0  0  0  0  0  0  0  0  0  0  0  0
   39.3966   16.5060   -9.9107 C   0  0  0  0  0  0  0  0  0  0  0  0
   39.1062   17.7418  -10.0389 O   0  0  0  0  0  0  0  0  0  0  0  0
   38.3179   15.6350   -9.7329 N   0  0  0  0  0  0  0  0  0  0  0  0
   38.4076   14.6088   -9.5979 H   0  0  0  0  0  0  0  0  0  0  0  0
   36.9502   16.1613   -9.7127 C   0  0  0  0  0  0  0  0  0  0  0  0
   36.0400   15.2943  -10.5346 C   0  0  0  0  0  0  0  0  0  0  0  0
   34.6143   15.7353  -10.4515 C   0  0  0  0  0  0  0  0  0  0  0  0
   34.2152   15.8149   -8.9920 C   0  0  0  0  0  0  0  0  0  0  0  0
   35.0687   16.9157   -8.3913 C   0  0  0  0  0  0  0  0  0  0  0  0
   36.4765   16.3325   -8.2775 C   0  0  0  0  0  0  0  0  0  0  0  0
   32.8472   16.1552   -8.8095 N   0  0  0  0  0  0  0  0  0  0  0  0
   32.2848   15.7237   -7.5496 C   0  0  0  0  0  0  0  0  0  0  0  0
   31.1355   16.6994   -7.2641 C   0  0  0  0  0  0  0  0  0  0  0  0
   30.4036   16.8231   -8.4347 O   0  0  0  0  0  0  0  0  0  0  0  0
   30.5565   15.7523   -9.3047 C   0  0  0  0  0  0  0  0  0  0  0  0
   31.9728   15.6338   -9.8422 C   0  0  0  0  0  0  0  0  0  0  0  0
  1  2  1  0  0  0
  2  3  1  0  0  0
  3  4  1  0  0  0
  4  9  1  0  0  0
  9 10  2  0  0  0
 10 11  1  0  0  0
 11 12  2  0  0  0
 11 13  1  0  0  0
 13 14  1  0  0  0
 14 15  2  0  0  0
 15 16  1  0  0  0
 16 17  2  0  0  0
 17 18  1  0  0  0
 17 19  1  0  0  0
 19 20  2  0  0  0
  4  5  2  0  0  0
  5  6  1  0  0  0
  5  7  1  0  0  0
  7 22  1  0  0  0
 22 23  2  0  0  0
 22 24  1  0  0  0
 24 26  1  0  0  0
 26 27  1  0  0  0
 27 28  1  0  0  0
 28 29  1  0  0  0
 29 30  1  0  0  0
 30 31  1  0  0  0
 29 32  1  0  0  0
 32 33  1  0  0  0
 33 34  1  0  0  0
 34 35  1  0  0  0
 35 36  1  0  0  0
 36 37  1  0  0  0
  7  2  2  0  0  0
 31 26  1  0  0  0
 37 32  1  0  0  0
 20 10  1  0  0  0
 20 14  1  0  0  0
  3  8  1  0  0  0
 13 21  1  0  0  0
 24 25  1  0  0  0
M  END
> <minimizedAffinity>
-6.00709

> <CNNscore>
0.2571956217

> <CNNaffinity>
5.5080962181

> <CNN_VS>
1.4166582823

> <CNNaffinity_variance>
0.6901677847

$$$$
[H]/C(=C1/C(=O)N([H])c2c([H])c([H])c(F)c([H])c21)c1c(C([H])([H])[H])c(C(=O)N([H])[C@]2([H])C([H])([H])C([H])([H])[C@@]([H])(N3C([H])([H])C([H])([H])OC([H])([H])C3([H])[H])C([H])([H])C2([H])[H])c(C([H])([H])[H])n1[H]


 37 41  0  0  0  0  0  0  0  0999 V2000
   40.2096   16.0410  -10.6461 C   0  0  0  0  0  0  0  0  0  0  0  0
   39.1665   15.4881  -11.5574 C   0  0  0  0  0  0  0  0  0  0  0  0
   39.4383   14.6131  -12.5701 N   0  0  0  0  0  0  0  0  0  0  0  0
   38.3102   14.2822  -13.1972 C   0  0  0  0  0  0  0  0  0  0  0  0
   37.2775   14.9494  -12.5868 C   0  0  0  0  0  0  0  0  0  0  0  0
   35.8245   14.9048  -12.8799 C   0  0  0  0  0  0  0  0  0  0  0  0
   37.8239   15.7270  -11.5328 C   0  0  0  0  0  0  0  0  0  0  0  0
   40.3954   14.2874  -12.7774 H   0  0  0  0  0  0  0  0  0  0  0  0
   38.2134   13.3363  -14.3012 C   0  0  0  0  0  0  0  0  0  0  0  0
   39.0982   13.2670  -15.2775 C   0  0  0  0  0  0  0  0  0  0  0  0
   40.2927   14.0799  -15.4311 C   0  0  0  0  0  0  0  0  0  0  0  0
   40.7265   14.9833  -14.6589 O   0  0  0  0  0  0  0  0  0  0  0  0
   40.9043   13.6449  -16.6620 N   0  0  0  0  0  0  0  0  0  0  0  0
   40.1305   12.6087  -17.2503 C   0  0  0  0  0  0  0  0  0  0  0  0
   40.2503   11.8507  -18.4019 C   0  0  0  0  0  0  0  0  0  0  0  0
   39.3400   10.8797  -18.7596 C   0  0  0  0  0  0  0  0  0  0  0  0
   38.2575   10.6487  -17.9350 C   0  0  0  0  0  0  0  0  0  0  0  0
   37.3253    9.6973  -18.2413 F   0  0  0  0  0  0  0  0  0  0  0  0
   38.1207   11.3898  -16.7887 C   0  0  0  0  0  0  0  0  0  0  0  0
   39.0361   12.3604  -16.4370 C   0  0  0  0  0  0  0  0  0  0  0  0
   41.7829   14.0457  -17.0437 H   0  0  0  0  0  0  0  0  0  0  0  0
   37.0522   16.6011  -10.6751 C   0  0  0  0  0  0  0  0  0  0  0  0
   36.6799   17.7171  -11.1690 O   0  0  0  0  0  0  0  0  0  0  0  0
   36.6707   16.3548   -9.3531 N   0  0  0  0  0  0  0  0  0  0  0  0
   36.9190   15.4983   -8.8200 H   0  0  0  0  0  0  0  0  0  0  0  0
   35.8797   17.3501   -8.6239 C   0  0  0  0  0  0  0  0  0  0  0  0
   34.8938   16.6754   -7.7138 C   0  0  0  0  0  0  0  0  0  0  0  0
   34.1420   17.6548   -6.8715 C   0  0  0  0  0  0  0  0  0  0  0  0
   35.1384   18.5296   -6.1382 C   0  0  0  0  0  0  0  0  0  0  0  0
   35.8650   19.3158   -7.2129 C   0  0  0  0  0  0  0  0  0  0  0  0
   36.7995   18.3180   -7.8954 C   0  0  0  0  0  0  0  0  0  0  0  0
   34.5190   19.4490   -5.2486 N   0  0  0  0  0  0  0  0  0  0  0  0
   33.8447   20.5506   -5.8980 C   0  0  0  0  0  0  0  0  0  0  0  0
   32.7513   20.9915   -4.9159 C   0  0  0  0  0  0  0  0  0  0  0  0
   33.3371   21.0755   -3.6624 O   0  0  0  0  0  0  0  0  0  0  0  0
   34.7146   21.2429   -3.6998 C   0  0  0  0  0  0  0  0  0  0  0  0
   35.4333   20.0422   -4.2919 C   0  0  0  0  0  0  0  0  0  0  0  0
  1  2  1  0  0  0
  2  3  1  0  0  0
  3  4  1  0  0  0
  4  9  1  0  0  0
  9 10  2  0  0  0
 10 11  1  0  0  0
 11 12  2  0  0  0
 11 13  1  0  0  0
 13 14  1  0  0  0
 14 15  2  0  0  0
 15 16  1  0  0  0
 16 17  2  0  0  0
 17 18  1  0  0  0
 17 19  1  0  0  0
 19 20  2  0  0  0
  4  5  2  0  0  0
  5  6  1  0  0  0
  5  7  1  0  0  0
  7 22  1  0  0  0
 22 23  2  0  0  0
 22 24  1  0  0  0
 24 26  1  0  0  0
 26 27  1  0  0  0
 27 28  1  0  0  0
 28 29  1  0  0  0
 29 30  1  0  0  0
 30 31  1  0  0  0
 29 32  1  0  0  0
 32 33  1  0  0  0
 33 34  1  0  0  0
 34 35  1  0  0  0
 35 36  1  0  0  0
 36 37  1  0  0  0
  7  2  2  0  0  0
 31 26  1  0  0  0
 37 32  1  0  0  0
 20 10  1  0  0  0
 20 14  1  0  0  0
  3  8  1  0  0  0
 13 21  1  0  0  0
 24 25  1  0  0  0
M  END
> <minimizedAffinity>
-8.96778

> <CNNscore>
0.2549163401

> <CNNaffinity>
6.3535966873

> <CNN_VS>
1.6196355820

> <CNNaffinity_variance>
0.1934515387

$$$$
[H]/C(=C1/C(=O)N([H])c2c([H])c([H])c(F)c([H])c21)c1c(C([H])([H])[H])c(C(=O)N([H])C([H])([H])[C@]2([H])C([H])([H])C([H])([H])[C@]([H])(N3C([H])([H])C([H])([H])OC([H])([H])C3([H])[H])C([H])([H])C2([H])[H])c(C([H])([H])[H])n1[H]


 38 42  0  0  0  0  0  0  0  0999 V2000
   34.7249   11.2918  -15.7137 C   0  0  0  0  0  0  0  0  0  0  0  0
   35.7245   12.2035  -15.0401 C   0  0  0  0  0  0  0  0  0  0  0  0
   37.0565   12.0772  -15.0568 N   0  0  0  0  0  0  0  0  0  0  0  0
   37.6799   13.0370  -14.3662 C   0  0  0  0  0  0  0  0  0  0  0  0
   36.6465   13.8402  -13.8714 C   0  0  0  0  0  0  0  0  0  0  0  0
   36.9426   15.0485  -13.0639 C   0  0  0  0  0  0  0  0  0  0  0  0
   35.4367   13.3384  -14.2787 C   0  0  0  0  0  0  0  0  0  0  0  0
   37.5287   11.2811  -15.5958 H   0  0  0  0  0  0  0  0  0  0  0  0
   39.1023   13.2093  -14.1591 C   0  0  0  0  0  0  0  0  0  0  0  0
   40.0030   13.0022  -15.0849 C   0  0  0  0  0  0  0  0  0  0  0  0
   39.8036   12.5712  -16.4506 C   0  0  0  0  0  0  0  0  0  0  0  0
   38.7260   12.2728  -16.9954 O   0  0  0  0  0  0  0  0  0  0  0  0
   41.1098   12.5465  -17.0796 N   0  0  0  0  0  0  0  0  0  0  0  0
   42.0724   12.9477  -16.1272 C   0  0  0  0  0  0  0  0  0  0  0  0
   43.4389   13.0984  -16.2023 C   0  0  0  0  0  0  0  0  0  0  0  0
   44.2202   13.5167  -15.1310 C   0  0  0  0  0  0  0  0  0  0  0  0
   43.5659   13.7891  -13.9406 C   0  0  0  0  0  0  0  0  0  0  0  0
   44.2758   14.2037  -12.8461 F   0  0  0  0  0  0  0  0  0  0  0  0
   42.2043   13.6474  -13.8361 C   0  0  0  0  0  0  0  0  0  0  0  0
   41.4748   13.2315  -14.9206 C   0  0  0  0  0  0  0  0  0  0  0  0
   41.2360   12.2659  -18.0747 H   0  0  0  0  0  0  0  0  0  0  0  0
   34.0911   13.8232  -14.0586 C   0  0  0  0  0  0  0  0  0  0  0  0
   33.4951   14.2609  -15.0988 O   0  0  0  0  0  0  0  0  0  0  0  0
   33.3946   13.8540  -12.8294 N   0  0  0  0  0  0  0  0  0  0  0  0
   33.9038   13.4243  -11.9797 H   0  0  0  0  0  0  0  0  0  0  0  0
   32.1040   14.3541  -12.5405 C   0  0  0  0  0  0  0  0  0  0  0  0
   31.6484   14.5653  -11.1661 C   0  0  0  0  0  0  0  0  0  0  0  0
   30.2145   14.5596  -10.8564 C   0  0  0  0  0  0  0  0  0  0  0  0
   29.9841   14.6937   -9.3450 C   0  0  0  0  0  0  0  0  0  0  0  0
   31.2262   14.8447   -8.5534 C   0  0  0  0  0  0  0  0  0  0  0  0
   32.1695   15.8384   -9.1346 C   0  0  0  0  0  0  0  0  0  0  0  0
   32.3148   15.8422  -10.6164 C   0  0  0  0  0  0  0  0  0  0  0  0
   30.9820   15.1420   -7.1626 N   0  0  0  0  0  0  0  0  0  0  0  0
   31.5747   14.2566   -6.2268 C   0  0  0  0  0  0  0  0  0  0  0  0
   32.7820   14.9075   -5.6403 C   0  0  0  0  0  0  0  0  0  0  0  0
   32.3510   15.9176   -4.7904 O   0  0  0  0  0  0  0  0  0  0  0  0
   31.4627   16.7868   -5.3950 C   0  0  0  0  0  0  0  0  0  0  0  0
   31.2291   16.5091   -6.8446 C   0  0  0  0  0  0  0  0  0  0  0  0
  1  2  1  0  0  0
  2  3  1  0  0  0
  3  4  1  0  0  0
  4  9  1  0  0  0
  9 10  2  0  0  0
 10 11  1  0  0  0
 11 12  2  0  0  0
 11 13  1  0  0  0
 13 14  1  0  0  0
 14 15  2  0  0  0
 15 16  1  0  0  0
 16 17  2  0  0  0
 17 18  1  0  0  0
 17 19  1  0  0  0
 19 20  2  0  0  0
  4  5  2  0  0  0
  5  6  1  0  0  0
  5  7  1  0  0  0
  7 22  1  0  0  0
 22 23  2  0  0  0
 22 24  1  0  0  0
 24 26  1  0  0  0
 26 27  1  0  0  0
 27 28  1  0  0  0
 28 29  1  0  0  0
 29 30  1  0  0  0
 30 31  1  0  0  0
 31 32  1  0  0  0
 30 33  1  0  0  0
 33 34  1  0  0  0
 34 35  1  0  0  0
 35 36  1  0  0  0
 36 37  1  0  0  0
 37 38  1  0  0  0
  7  2  2  0  0  0
 32 27  1  0  0  0
 38 33  1  0  0  0
 20 10  1  0  0  0
 20 14  1  0  0  0
  3  8  1  0  0  0
 13 21  1  0  0  0
 24 25  1  0  0  0
M  END
> <minimizedAffinity>
-9.29660

> <CNNscore>
0.3357832432

> <CNNaffinity>
6.7785787582

> <CNN_VS>
2.2761330605

> <CNNaffinity_variance>
0.0866692811

$$$$
[H]/C(=C1/C(=O)N([H])c2c([H])c([H])c(F)c([H])c21)c1c(C([H])([H])[H])c(C(=O)N([H])C([H])([H])[C@]2([H])C([H])([H])C([H])([H])[C@]([H])(N3C([H])([H])C([H])([H])OC([H])([H])C3([H])[H])C([H])([H])C2([H])[H])c(C([H])([H])[H])n1[H]


 38 42  0  0  0  0  0  0  0  0999 V2000
   32.8109   15.1258  -12.1908 C   0  0  0  0  0  0  0  0  0  0  0  0
   34.2803   14.8278  -12.3815 C   0  0  0  0  0  0  0  0  0  0  0  0
   34.8521   14.2990  -13.4696 N   0  0  0  0  0  0  0  0  0  0  0  0
   36.1742   14.1489  -13.3430 C   0  0  0  0  0  0  0  0  0  0  0  0
   36.4599   14.6275  -12.0596 C   0  0  0  0  0  0  0  0  0  0  0  0
   37.8528   14.6543  -11.5506 C   0  0  0  0  0  0  0  0  0  0  0  0
   35.3026   15.0488  -11.4560 C   0  0  0  0  0  0  0  0  0  0  0  0
   34.2701   14.0530  -14.3345 H   0  0  0  0  0  0  0  0  0  0  0  0
   37.1083   13.6031  -14.3050 C   0  0  0  0  0  0  0  0  0  0  0  0
   36.7998   12.6739  -15.1726 C   0  0  0  0  0  0  0  0  0  0  0  0
   35.5308   12.0068  -15.3602 C   0  0  0  0  0  0  0  0  0  0  0  0
   34.4921   12.1652  -14.6945 O   0  0  0  0  0  0  0  0  0  0  0  0
   35.6920   11.1024  -16.4820 N   0  0  0  0  0  0  0  0  0  0  0  0
   37.0162   11.2143  -16.9599 C   0  0  0  0  0  0  0  0  0  0  0  0
   37.6812   10.5918  -17.9924 C   0  0  0  0  0  0  0  0  0  0  0  0
   39.0100   10.8501  -18.3096 C   0  0  0  0  0  0  0  0  0  0  0  0
   39.6745   11.7850  -17.5325 C   0  0  0  0  0  0  0  0  0  0  0  0
   40.9849   12.0852  -17.7900 F   0  0  0  0  0  0  0  0  0  0  0  0
   39.0371   12.4214  -16.4963 C   0  0  0  0  0  0  0  0  0  0  0  0
   37.7248   12.1336  -16.2207 C   0  0  0  0  0  0  0  0  0  0  0  0
   34.9121   10.5002  -16.8196 H   0  0  0  0  0  0  0  0  0  0  0  0
   35.0787   15.6472  -10.1576 C   0  0  0  0  0  0  0  0  0  0  0  0
   35.6034   16.7989   -9.9932 O   0  0  0  0  0  0  0  0  0  0  0  0
   34.3500   15.0879   -9.0837 N   0  0  0  0  0  0  0  0  0  0  0  0
   33.8705   14.1392   -9.2732 H   0  0  0  0  0  0  0  0  0  0  0  0
   34.1344   15.5973   -7.7825 C   0  0  0  0  0  0  0  0  0  0  0  0
   35.1473   15.4850   -6.7325 C   0  0  0  0  0  0  0  0  0  0  0  0
   34.8151   14.8470   -5.4539 C   0  0  0  0  0  0  0  0  0  0  0  0
   36.0561   14.7496   -4.5562 C   0  0  0  0  0  0  0  0  0  0  0  0
   37.2765   15.3494   -5.1418 C   0  0  0  0  0  0  0  0  0  0  0  0
   37.0370   16.6922   -5.7371 C   0  0  0  0  0  0  0  0  0  0  0  0
   35.7697   16.8756   -6.4968 C   0  0  0  0  0  0  0  0  0  0  0  0
   38.3838   15.4029   -4.2179 N   0  0  0  0  0  0  0  0  0  0  0  0
   39.4966   14.5840   -4.5370 C   0  0  0  0  0  0  0  0  0  0  0  0
   40.5783   15.4367   -5.1096 C   0  0  0  0  0  0  0  0  0  0  0  0
   41.1141   16.1956   -4.0773 O   0  0  0  0  0  0  0  0  0  0  0  0
   40.1535   16.8847   -3.3616 C   0  0  0  0  0  0  0  0  0  0  0  0
   38.7683   16.7386   -3.9029 C   0  0  0  0  0  0  0  0  0  0  0  0
  1  2  1  0  0  0
  2  3  1  0  0  0
  3  4  1  0  0  0
  4  9  1  0  0  0
  9 10  2  0  0  0
 10 11  1  0  0  0
 11 12  2  0  0  0
 11 13  1  0  0  0
 13 14  1  0  0  0
 14 15  2  0  0  0
 15 16  1  0  0  0
 16 17  2  0  0  0
 17 18  1  0  0  0
 17 19  1  0  0  0
 19 20  2  0  0  0
  4  5  2  0  0  0
  5  6  1  0  0  0
  5  7  1  0  0  0
  7 22  1  0  0  0
 22 23  2  0  0  0
 22 24  1  0  0  0
 24 26  1  0  0  0
 26 27  1  0  0  0
 27 28  1  0  0  0
 28 29  1  0  0  0
 29 30  1  0  0  0
 30 31  1  0  0  0
 31 32  1  0  0  0
 30 33  1  0  0  0
 33 34  1  0  0  0
 34 35  1  0  0  0
 35 36  1  0  0  0
 36 37  1  0  0  0
 37 38  1  0  0  0
  7  2  2  0  0  0
 32 27  1  0  0  0
 38 33  1  0  0  0
 20 10  1  0  0  0
 20 14  1  0  0  0
  3  8  1  0  0  0
 13 21  1  0  0  0
 24 25  1  0  0  0
M  END
> <minimizedAffinity>
-9.21018

> <CNNscore>
0.2315205634

> <CNNaffinity>
6.2382135391

> <CNN_VS>
1.4442746639

> <CNNaffinity_variance>
0.2922333181

$$$$
[H]/C(=C1/C(=O)N([H])c2c([H])c([H])c(F)c([H])c21)c1c(C([H])([H])[H])c(C(=O)N([H])C([H])([H])[C@]2([H])C([H])([H])C([H])([H])[C@]([H])(N3C([H])([H])C([H])([H])OC([H])([H])C3([H])[H])C([H])([H])C2([H])[H])c(C([H])([H])[H])n1[H]


 38 42  0  0  0  0  0  0  0  0999 V2000
   36.1088   12.3234  -14.7644 C   0  0  0  0  0  0  0  0  0  0  0  0
   37.3930   13.0142  -14.3672 C   0  0  0  0  0  0  0  0  0  0  0  0
   38.6356   12.6283  -14.6794 N   0  0  0  0  0  0  0  0  0  0  0  0
   39.5740   13.4402  -14.1825 C   0  0  0  0  0  0  0  0  0  0  0  0
   38.8566   14.4264  -13.4966 C   0  0  0  0  0  0  0  0  0  0  0  0
   39.5576   15.5453  -12.8210 C   0  0  0  0  0  0  0  0  0  0  0  0
   37.5121   14.1765  -13.6020 C   0  0  0  0  0  0  0  0  0  0  0  0
   38.8087   11.7598  -15.2820 H   0  0  0  0  0  0  0  0  0  0  0  0
   41.0118   13.3272  -14.3081 C   0  0  0  0  0  0  0  0  0  0  0  0
   41.6164   12.8893  -15.3823 C   0  0  0  0  0  0  0  0  0  0  0  0
   41.0268   12.4350  -16.6219 C   0  0  0  0  0  0  0  0  0  0  0  0
   39.8156   12.3356  -16.8867 O   0  0  0  0  0  0  0  0  0  0  0  0
   42.1218   12.1080  -17.5143 N   0  0  0  0  0  0  0  0  0  0  0  0
   43.3376   12.3537  -16.8391 C   0  0  0  0  0  0  0  0  0  0  0  0
   44.6522   12.2158  -17.2244 C   0  0  0  0  0  0  0  0  0  0  0  0
   45.7261   12.5219  -16.3959 C   0  0  0  0  0  0  0  0  0  0  0  0
   45.4305   12.9873  -15.1249 C   0  0  0  0  0  0  0  0  0  0  0  0
   46.4408   13.3057  -14.2581 F   0  0  0  0  0  0  0  0  0  0  0  0
   44.1291   13.1346  -14.7131 C   0  0  0  0  0  0  0  0  0  0  0  0
   43.1021   12.8195  -15.5658 C   0  0  0  0  0  0  0  0  0  0  0  0
   41.9575   11.7539  -18.4800 H   0  0  0  0  0  0  0  0  0  0  0  0
   36.3725   14.9146  -13.1016 C   0  0  0  0  0  0  0  0  0  0  0  0
   35.8697   15.7562  -13.9187 O   0  0  0  0  0  0  0  0  0  0  0  0
   35.7801   14.7908  -11.8245 N   0  0  0  0  0  0  0  0  0  0  0  0
   36.1918   14.0307  -11.1776 H   0  0  0  0  0  0  0  0  0  0  0  0
   34.7012   15.5102  -11.2612 C   0  0  0  0  0  0  0  0  0  0  0  0
   34.5418   15.6539   -9.8138 C   0  0  0  0  0  0  0  0  0  0  0  0
   33.2163   15.9126   -9.2407 C   0  0  0  0  0  0  0  0  0  0  0  0
   33.2786   15.9187   -7.7073 C   0  0  0  0  0  0  0  0  0  0  0  0
   34.6371   15.7154   -7.1549 C   0  0  0  0  0  0  0  0  0  0  0  0
   35.6697   16.5497   -7.8277 C   0  0  0  0  0  0  0  0  0  0  0  0
   35.5621   16.6921   -9.3058 C   0  0  0  0  0  0  0  0  0  0  0  0
   34.7028   15.8965   -5.7247 N   0  0  0  0  0  0  0  0  0  0  0  0
   35.1916   17.1516   -5.2813 C   0  0  0  0  0  0  0  0  0  0  0  0
   34.0415   17.9902   -4.8352 C   0  0  0  0  0  0  0  0  0  0  0  0
   33.5721   17.4674   -3.6374 O   0  0  0  0  0  0  0  0  0  0  0  0
   33.3056   16.1132   -3.7093 C   0  0  0  0  0  0  0  0  0  0  0  0
   33.4914   15.5267   -5.0711 C   0  0  0  0  0  0  0  0  0  0  0  0
  1  2  1  0  0  0
  2  3  1  0  0  0
  3  4  1  0  0  0
  4  9  1  0  0  0
  9 10  2  0  0  0
 10 11  1  0  0  0
 11 12  2  0  0  0
 11 13  1  0  0  0
 13 14  1  0  0  0
 14 15  2  0  0  0
 15 16  1  0  0  0
 16 17  2  0  0  0
 17 18  1  0  0  0
 17 19  1  0  0  0
 19 20  2  0  0  0
  4  5  2  0  0  0
  5  6  1  0  0  0
  5  7  1  0  0  0
  7 22  1  0  0  0
 22 23  2  0  0  0
 22 24  1  0  0  0
 24 26  1  0  0  0
 26 27  1  0  0  0
 27 28  1  0  0  0
 28 29  1  0  0  0
 29 30  1  0  0  0
 30 31  1  0  0  0
 31 32  1  0  0  0
 30 33  1  0  0  0
 33 34  1  0  0  0
 34 35  1  0  0  0
 35 36  1  0  0  0
 36 37  1  0  0  0
 37 38  1  0  0  0
  7  2  2  0  0  0
 32 27  1  0  0  0
 38 33  1  0  0  0
 20 10  1  0  0  0
 20 14  1  0  0  0
  3  8  1  0  0  0
 13 21  1  0  0  0
 24 25  1  0  0  0
M  END
> <minimizedAffinity>
-7.74118

> <CNNscore>
0.2028987557

> <CNNaffinity>
6.1189317703

> <CNN_VS>
1.2415236235

> <CNNaffinity_variance>
0.1706236303

$$$$
[H]/C(=C1/C(=O)N([H])c2c([H])c([H])c(F)c([H])c21)c1c(C([H])([H])[H])c(C(=O)N([H])C([H])([H])[C@]2([H])C([H])([H])C([H])([H])[C@]([H])(N3C([H])([H])C([H])([H])OC([H])([H])C3([H])[H])C([H])([H])C2([H])[H])c(C([H])([H])[H])n1[H]


 38 42  0  0  0  0  0  0  0  0999 V2000
   40.8753   16.6034  -11.2784 C   0  0  0  0  0  0  0  0  0  0  0  0
   39.6302   15.8190  -11.6225 C   0  0  0  0  0  0  0  0  0  0  0  0
   39.4027   15.1393  -12.7524 N   0  0  0  0  0  0  0  0  0  0  0  0
   38.2054   14.5454  -12.7716 C   0  0  0  0  0  0  0  0  0  0  0  0
   37.6280   14.8812  -11.5421 C   0  0  0  0  0  0  0  0  0  0  0  0
   36.2840   14.3763  -11.1699 C   0  0  0  0  0  0  0  0  0  0  0  0
   38.4945   15.6654  -10.8241 C   0  0  0  0  0  0  0  0  0  0  0  0
   40.1418   15.0920  -13.5263 H   0  0  0  0  0  0  0  0  0  0  0  0
   37.6215   13.7441  -13.8266 C   0  0  0  0  0  0  0  0  0  0  0  0
   38.3200   13.1400  -14.7531 C   0  0  0  0  0  0  0  0  0  0  0  0
   39.7543   13.1357  -14.9361 C   0  0  0  0  0  0  0  0  0  0  0  0
   40.6005   13.7484  -14.2611 O   0  0  0  0  0  0  0  0  0  0  0  0
   40.0317   12.2758  -16.0701 N   0  0  0  0  0  0  0  0  0  0  0  0
   38.8062   11.7748  -16.5618 C   0  0  0  0  0  0  0  0  0  0  0  0
   38.5069   10.9267  -17.6043 C   0  0  0  0  0  0  0  0  0  0  0  0
   37.2099   10.5446  -17.9285 C   0  0  0  0  0  0  0  0  0  0  0  0
   36.1868   11.0569  -17.1474 C   0  0  0  0  0  0  0  0  0  0  0  0
   34.8864   10.7222  -17.4133 F   0  0  0  0  0  0  0  0  0  0  0  0
   36.4552   11.9050  -16.1016 C   0  0  0  0  0  0  0  0  0  0  0  0
   37.7512   12.2541  -15.8196 C   0  0  0  0  0  0  0  0  0  0  0  0
   41.0025   12.1062  -16.4074 H   0  0  0  0  0  0  0  0  0  0  0  0
   38.3766   16.2334   -9.4984 C   0  0  0  0  0  0  0  0  0  0  0  0
   38.3670   15.3861   -8.5440 O   0  0  0  0  0  0  0  0  0  0  0  0
   38.2751   17.6047   -9.1726 N   0  0  0  0  0  0  0  0  0  0  0  0
   38.3439   18.2989   -9.9968 H   0  0  0  0  0  0  0  0  0  0  0  0
   38.1121   18.2182   -7.9093 C   0  0  0  0  0  0  0  0  0  0  0  0
   37.2481   19.3844   -7.7238 C   0  0  0  0  0  0  0  0  0  0  0  0
   37.7351   20.7244   -8.0697 C   0  0  0  0  0  0  0  0  0  0  0  0
   36.6249   21.7691   -7.8921 C   0  0  0  0  0  0  0  0  0  0  0  0
   35.3508   21.2182   -7.3770 C   0  0  0  0  0  0  0  0  0  0  0  0
   35.5389   20.3003   -6.2207 C   0  0  0  0  0  0  0  0  0  0  0  0
   36.6958   19.3652   -6.2846 C   0  0  0  0  0  0  0  0  0  0  0  0
   34.3801   22.2360   -7.0540 N   0  0  0  0  0  0  0  0  0  0  0  0
   33.2217   22.2683   -7.8712 C   0  0  0  0  0  0  0  0  0  0  0  0
   32.0857   21.6508   -7.1273 C   0  0  0  0  0  0  0  0  0  0  0  0
   31.7068   22.5300   -6.1214 O   0  0  0  0  0  0  0  0  0  0  0  0
   32.7663   22.9300   -5.3293 C   0  0  0  0  0  0  0  0  0  0  0  0
   34.0627   22.2670   -5.6649 C   0  0  0  0  0  0  0  0  0  0  0  0
  1  2  1  0  0  0
  2  3  1  0  0  0
  3  4  1  0  0  0
  4  9  1  0  0  0
  9 10  2  0  0  0
 10 11  1  0  0  0
 11 12  2  0  0  0
 11 13  1  0  0  0
 13 14  1  0  0  0
 14 15  2  0  0  0
 15 16  1  0  0  0
 16 17  2  0  0  0
 17 18  1  0  0  0
 17 19  1  0  0  0
 19 20  2  0  0  0
  4  5  2  0  0  0
  5  6  1  0  0  0
  5  7  1  0  0  0
  7 22  1  0  0  0
 22 23  2  0  0  0
 22 24  1  0  0  0
 24 26  1  0  0  0
 26 27  1  0  0  0
 27 28  1  0  0  0
 28 29  1  0  0  0
 29 30  1  0  0  0
 30 31  1  0  0  0
 31 32  1  0  0  0
 30 33  1  0  0  0
 33 34  1  0  0  0
 34 35  1  0  0  0
 35 36  1  0  0  0
 36 37  1  0  0  0
 37 38  1  0  0  0
  7  2  2  0  0  0
 32 27  1  0  0  0
 38 33  1  0  0  0
 20 10  1  0  0  0
 20 14  1  0  0  0
  3  8  1  0  0  0
 13 21  1  0  0  0
 24 25  1  0  0  0
M  END
> <minimizedAffinity>
-9.91048

> <CNNscore>
0.2027637511

> <CNNaffinity>
6.3785476685

> <CNN_VS>
1.2933382988

> <CNNaffinity_variance>
0.1483054608

$$$$
[H]/C(=C1/C(=O)N([H])c2c([H])c([H])c(F)c([H])c21)c1c(C([H])([H])[H])c(C(=O)N([H])C([H])([H])[C@]2([H])C([H])([H])C([H])([H])[C@]([H])(N3C([H])([H])C([H])([H])OC([H])([H])C3([H])[H])C([H])([H])C2([H])[H])c(C([H])([H])[H])n1[H]


 38 42  0  0  0  0  0  0  0  0999 V2000
   32.9334   15.4808  -11.9335 C   0  0  0  0  0  0  0  0  0  0  0  0
   34.3995   15.1265  -12.0296 C   0  0  0  0  0  0  0  0  0  0  0  0
   35.0372   14.6561  -13.1078 N   0  0  0  0  0  0  0  0  0  0  0  0
   36.3365   14.4317  -12.8885 C   0  0  0  0  0  0  0  0  0  0  0  0
   36.5340   14.7948  -11.5517 C   0  0  0  0  0  0  0  0  0  0  0  0
   37.8793   14.7135  -10.9324 C   0  0  0  0  0  0  0  0  0  0  0  0
   35.3493   15.2245  -11.0103 C   0  0  0  0  0  0  0  0  0  0  0  0
   34.5197   14.5068  -14.0337 H   0  0  0  0  0  0  0  0  0  0  0  0
   37.3236   13.9168  -13.8139 C   0  0  0  0  0  0  0  0  0  0  0  0
   37.0760   12.9856  -14.6986 C   0  0  0  0  0  0  0  0  0  0  0  0
   35.8337   12.2869  -14.9424 C   0  0  0  0  0  0  0  0  0  0  0  0
   34.7646   12.4137  -14.3195 O   0  0  0  0  0  0  0  0  0  0  0  0
   36.0650   11.3943  -16.0614 N   0  0  0  0  0  0  0  0  0  0  0  0
   37.4045   11.5440  -16.4833 C   0  0  0  0  0  0  0  0  0  0  0  0
   38.1277   10.9458  -17.4907 C   0  0  0  0  0  0  0  0  0  0  0  0
   39.4613   11.2407  -17.7510 C   0  0  0  0  0  0  0  0  0  0  0  0
   40.0682   12.1875  -16.9419 C   0  0  0  0  0  0  0  0  0  0  0  0
   41.3798   12.5235  -17.1431 F   0  0  0  0  0  0  0  0  0  0  0  0
   39.3719   12.8003  -15.9296 C   0  0  0  0  0  0  0  0  0  0  0  0
   38.0573   12.4765  -15.7103 C   0  0  0  0  0  0  0  0  0  0  0  0
   35.3159   10.7742  -16.4344 H   0  0  0  0  0  0  0  0  0  0  0  0
   35.0433   15.7307   -9.6897 C   0  0  0  0  0  0  0  0  0  0  0  0
   35.4962   16.8969   -9.4372 O   0  0  0  0  0  0  0  0  0  0  0  0
   34.3069   15.0696   -8.6810 N   0  0  0  0  0  0  0  0  0  0  0  0
   33.8886   14.1097   -8.9449 H   0  0  0  0  0  0  0  0  0  0  0  0
   34.0140   15.4874   -7.3624 C   0  0  0  0  0  0  0  0  0  0  0  0
   34.1522   16.8836   -6.9470 C   0  0  0  0  0  0  0  0  0  0  0  0
   35.1825   17.2643   -5.9745 C   0  0  0  0  0  0  0  0  0  0  0  0
   35.2066   18.7859   -5.7753 C   0  0  0  0  0  0  0  0  0  0  0  0
   34.1784   19.5153   -6.5518 C   0  0  0  0  0  0  0  0  0  0  0  0
   32.8299   18.8923   -6.4611 C   0  0  0  0  0  0  0  0  0  0  0  0
   32.7710   17.4052   -6.5030 C   0  0  0  0  0  0  0  0  0  0  0  0
   34.1039   20.9179   -6.2205 N   0  0  0  0  0  0  0  0  0  0  0  0
   34.6317   21.8113   -7.1870 C   0  0  0  0  0  0  0  0  0  0  0  0
   33.5038   22.4376   -7.9359 C   0  0  0  0  0  0  0  0  0  0  0  0
   32.8730   23.3348   -7.0842 O   0  0  0  0  0  0  0  0  0  0  0  0
   32.5190   22.7695   -5.8738 C   0  0  0  0  0  0  0  0  0  0  0  0
   32.8063   21.3063   -5.7770 C   0  0  0  0  0  0  0  0  0  0  0  0
  1  2  1  0  0  0
  2  3  1  0  0  0
  3  4  1  0  0  0
  4  9  1  0  0  0
  9 10  2  0  0  0
 10 11  1  0  0  0
 11 12  2  0  0  0
 11 13  1  0  0  0
 13 14  1  0  0  0
 14 15  2  0  0  0
 15 16  1  0  0  0
 16 17  2  0  0  0
 17 18  1  0  0  0
 17 19  1  0  0  0
 19 20  2  0  0  0
  4  5  2  0  0  0
  5  6  1  0  0  0
  5  7  1  0  0  0
  7 22  1  0  0  0
 22 23  2  0  0  0
 22 24  1  0  0  0
 24 26  1  0  0  0
 26 27  1  0  0  0
 27 28  1  0  0  0
 28 29  1  0  0  0
 29 30  1  0  0  0
 30 31  1  0  0  0
 31 32  1  0  0  0
 30 33  1  0  0  0
 33 34  1  0  0  0
 34 35  1  0  0  0
 35 36  1  0  0  0
 36 37  1  0  0  0
 37 38  1  0  0  0
  7  2  2  0  0  0
 32 27  1  0  0  0
 38 33  1  0  0  0
 20 10  1  0  0  0
 20 14  1  0  0  0
  3  8  1  0  0  0
 13 21  1  0  0  0
 24 25  1  0  0  0
M  END
> <minimizedAffinity>
-9.58462

> <CNNscore>
0.2015154511

> <CNNaffinity>
6.3324437141

> <CNN_VS>
1.2760852575

> <CNNaffinity_variance>
0.1524116695

$$$$
[H]/C(=C1/C(=O)N([H])c2c([H])c([H])c(F)c([H])c21)c1c(C([H])([H])[H])c(C(=O)N([H])C([H])([H])[C@]2([H])C([H])([H])C([H])([H])[C@]([H])(N3C([H])([H])C([H])([H])OC([H])([H])C3([H])[H])C([H])([H])C2([H])[H])c(C([H])([H])[H])n1[H]


 38 42  0  0  0  0  0  0  0  0999 V2000
   34.9406   15.8014  -10.4431 C   0  0  0  0  0  0  0  0  0  0  0  0
   36.1693   15.4413  -11.2461 C   0  0  0  0  0  0  0  0  0  0  0  0
   36.2299   14.5792  -12.2676 N   0  0  0  0  0  0  0  0  0  0  0  0
   37.4587   14.4641  -12.7807 C   0  0  0  0  0  0  0  0  0  0  0  0
   38.2417   15.3334  -12.0131 C   0  0  0  0  0  0  0  0  0  0  0  0
   39.6860   15.5101  -12.3001 C   0  0  0  0  0  0  0  0  0  0  0  0
   37.4603   15.9419  -11.0640 C   0  0  0  0  0  0  0  0  0  0  0  0
   35.3529   14.0699  -12.6127 H   0  0  0  0  0  0  0  0  0  0  0  0
   37.8957   13.6232  -13.8751 C   0  0  0  0  0  0  0  0  0  0  0  0
   37.0808   12.9505  -14.6463 C   0  0  0  0  0  0  0  0  0  0  0  0
   35.6376   12.8859  -14.5872 C   0  0  0  0  0  0  0  0  0  0  0  0
   34.8936   13.4331  -13.7542 O   0  0  0  0  0  0  0  0  0  0  0  0
   35.2077   12.0508  -15.6920 N   0  0  0  0  0  0  0  0  0  0  0  0
   36.3521   11.6203  -16.3987 C   0  0  0  0  0  0  0  0  0  0  0  0
   36.5049   10.8257  -17.5127 C   0  0  0  0  0  0  0  0  0  0  0  0
   37.7426   10.5183  -18.0665 C   0  0  0  0  0  0  0  0  0  0  0  0
   38.8615   11.0514  -17.4473 C   0  0  0  0  0  0  0  0  0  0  0  0
   40.1107   10.7870  -17.9404 F   0  0  0  0  0  0  0  0  0  0  0  0
   38.7397   11.8468  -16.3348 C   0  0  0  0  0  0  0  0  0  0  0  0
   37.4971   12.1225  -15.8239 C   0  0  0  0  0  0  0  0  0  0  0  0
   34.2016   11.8472  -15.8686 H   0  0  0  0  0  0  0  0  0  0  0  0
   37.7903   16.9348  -10.0644 C   0  0  0  0  0  0  0  0  0  0  0  0
   38.2708   16.4710   -8.9768 O   0  0  0  0  0  0  0  0  0  0  0  0
   37.6345   18.3346  -10.1801 N   0  0  0  0  0  0  0  0  0  0  0  0
   37.2799   18.6997  -11.1323 H   0  0  0  0  0  0  0  0  0  0  0  0
   37.8929   19.3488   -9.2295 C   0  0  0  0  0  0  0  0  0  0  0  0
   36.8814   19.7748   -8.2618 C   0  0  0  0  0  0  0  0  0  0  0  0
   36.7077   21.1993   -7.9566 C   0  0  0  0  0  0  0  0  0  0  0  0
   35.5255   21.4104   -7.0010 C   0  0  0  0  0  0  0  0  0  0  0  0
   34.8649   20.1582   -6.5679 C   0  0  0  0  0  0  0  0  0  0  0  0
   35.8301   19.1060   -6.1483 C   0  0  0  0  0  0  0  0  0  0  0  0
   37.0672   18.9631   -6.9643 C   0  0  0  0  0  0  0  0  0  0  0  0
   33.8727   20.3643   -5.5404 N   0  0  0  0  0  0  0  0  0  0  0  0
   32.5334   20.0754   -5.9061 C   0  0  0  0  0  0  0  0  0  0  0  0
   32.1443   18.7589   -5.3225 C   0  0  0  0  0  0  0  0  0  0  0  0
   31.9986   18.9267   -3.9517 O   0  0  0  0  0  0  0  0  0  0  0  0
   33.1004   19.5167   -3.3619 C   0  0  0  0  0  0  0  0  0  0  0  0
   34.2366   19.7619   -4.3011 C   0  0  0  0  0  0  0  0  0  0  0  0
  1  2  1  0  0  0
  2  3  1  0  0  0
  3  4  1  0  0  0
  4  9  1  0  0  0
  9 10  2  0  0  0
 10 11  1  0  0  0
 11 12  2  0  0  0
 11 13  1  0  0  0
 13 14  1  0  0  0
 14 15  2  0  0  0
 15 16  1  0  0  0
 16 17  2  0  0  0
 17 18  1  0  0  0
 17 19  1  0  0  0
 19 20  2  0  0  0
  4  5  2  0  0  0
  5  6  1  0  0  0
  5  7  1  0  0  0
  7 22  1  0  0  0
 22 23  2  0  0  0
 22 24  1  0  0  0
 24 26  1  0  0  0
 26 27  1  0  0  0
 27 28  1  0  0  0
 28 29  1  0  0  0
 29 30  1  0  0  0
 30 31  1  0  0  0
 31 32  1  0  0  0
 30 33  1  0  0  0
 33 34  1  0  0  0
 34 35  1  0  0  0
 35 36  1  0  0  0
 36 37  1  0  0  0
 37 38  1  0  0  0
  7  2  2  0  0  0
 32 27  1  0  0  0
 38 33  1  0  0  0
 20 10  1  0  0  0
 20 14  1  0  0  0
  3  8  1  0  0  0
 13 21  1  0  0  0
 24 25  1  0  0  0
M  END
> <minimizedAffinity>
-9.73336

> <CNNscore>
0.1942182481

> <CNNaffinity>
5.9761495590

> <CNN_VS>
1.1606773138

> <CNNaffinity_variance>
0.2745184600

$$$$
[H]/C(=C1/C(=O)N([H])c2c([H])c([H])c(F)c([H])c21)c1c(C([H])([H])[H])c(C(=O)N([H])C([H])([H])[C@]2([H])C([H])([H])C([H])([H])[C@]([H])(N3C([H])([H])C([H])([H])OC([H])([H])C3([H])[H])C([H])([H])C2([H])[H])c(C([H])([H])[H])n1[H]


 38 42  0  0  0  0  0  0  0  0999 V2000
   40.3344   16.2397  -10.7180 C   0  0  0  0  0  0  0  0  0  0  0  0
   39.3036   15.5834  -11.6073 C   0  0  0  0  0  0  0  0  0  0  0  0
   39.5445   14.7600  -12.6341 N   0  0  0  0  0  0  0  0  0  0  0  0
   38.4287   14.3380  -13.2370 C   0  0  0  0  0  0  0  0  0  0  0  0
   37.3922   14.9506  -12.5241 C   0  0  0  0  0  0  0  0  0  0  0  0
   35.9739   14.7011  -12.8793 C   0  0  0  0  0  0  0  0  0  0  0  0
   37.9166   15.7207  -11.5175 C   0  0  0  0  0  0  0  0  0  0  0  0
   40.5456   14.4841  -12.8971 H   0  0  0  0  0  0  0  0  0  0  0  0
   38.3080   13.4564  -14.3790 C   0  0  0  0  0  0  0  0  0  0  0  0
   39.2323   13.3209  -15.2947 C   0  0  0  0  0  0  0  0  0  0  0  0
   40.5137   13.9851  -15.3816 C   0  0  0  0  0  0  0  0  0  0  0  0
   40.9650   14.8524  -14.6129 O   0  0  0  0  0  0  0  0  0  0  0  0
   41.1873   13.4499  -16.5489 N   0  0  0  0  0  0  0  0  0  0  0  0
   40.3425   12.4929  -17.1531 C   0  0  0  0  0  0  0  0  0  0  0  0
   40.4956   11.6980  -18.2668 C   0  0  0  0  0  0  0  0  0  0  0  0
   39.5280   10.7990  -18.7012 C   0  0  0  0  0  0  0  0  0  0  0  0
   38.3616   10.7186  -17.9579 C   0  0  0  0  0  0  0  0  0  0  0  0
   37.3676    9.8548  -18.3313 F   0  0  0  0  0  0  0  0  0  0  0  0
   38.1810   11.4991  -16.8429 C   0  0  0  0  0  0  0  0  0  0  0  0
   39.1641   12.3722  -16.4528 C   0  0  0  0  0  0  0  0  0  0  0  0
   42.1371   13.7707  -16.8312 H   0  0  0  0  0  0  0  0  0  0  0  0
   37.2644   16.5144  -10.4984 C   0  0  0  0  0  0  0  0  0  0  0  0
   36.9689   17.7065  -10.8455 O   0  0  0  0  0  0  0  0  0  0  0  0
   36.9322   16.1005   -9.1887 N   0  0  0  0  0  0  0  0  0  0  0  0
   37.1429   15.0700   -8.9445 H   0  0  0  0  0  0  0  0  0  0  0  0
   36.3401   16.8367   -8.1369 C   0  0  0  0  0  0  0  0  0  0  0  0
   34.9011   16.7882   -7.8761 C   0  0  0  0  0  0  0  0  0  0  0  0
   34.4040   16.7301   -6.4970 C   0  0  0  0  0  0  0  0  0  0  0  0
   32.8709   16.7940   -6.4685 C   0  0  0  0  0  0  0  0  0  0  0  0
   32.2414   16.8500   -7.8075 C   0  0  0  0  0  0  0  0  0  0  0  0
   32.8100   15.8577   -8.7598 C   0  0  0  0  0  0  0  0  0  0  0  0
   34.2846   15.6554   -8.7208 C   0  0  0  0  0  0  0  0  0  0  0  0
   30.8035   16.7348   -7.7654 N   0  0  0  0  0  0  0  0  0  0  0  0
   30.2590   15.5623   -8.3484 C   0  0  0  0  0  0  0  0  0  0  0  0
   29.8697   14.6164   -7.2626 C   0  0  0  0  0  0  0  0  0  0  0  0
   28.7428   15.1297   -6.6340 O   0  0  0  0  0  0  0  0  0  0  0  0
   28.9039   16.4407   -6.2274 C   0  0  0  0  0  0  0  0  0  0  0  0
   30.2728   16.9897   -6.4675 C   0  0  0  0  0  0  0  0  0  0  0  0
  1  2  1  0  0  0
  2  3  1  0  0  0
  3  4  1  0  0  0
  4  9  1  0  0  0
  9 10  2  0  0  0
 10 11  1  0  0  0
 11 12  2  0  0  0
 11 13  1  0  0  0
 13 14  1  0  0  0
 14 15  2  0  0  0
 15 16  1  0  0  0
 16 17  2  0  0  0
 17 18  1  0  0  0
 17 19  1  0  0  0
 19 20  2  0  0  0
  4  5  2  0  0  0
  5  6  1  0  0  0
  5  7  1  0  0  0
  7 22  1  0  0  0
 22 23  2  0  0  0
 22 24  1  0  0  0
 24 26  1  0  0  0
 26 27  1  0  0  0
 27 28  1  0  0  0
 28 29  1  0  0  0
 29 30  1  0  0  0
 30 31  1  0  0  0
 31 32  1  0  0  0
 30 33  1  0  0  0
 33 34  1  0  0  0
 34 35  1  0  0  0
 35 36  1  0  0  0
 36 37  1  0  0  0
 37 38  1  0  0  0
  7  2  2  0  0  0
 32 27  1  0  0  0
 38 33  1  0  0  0
 20 10  1  0  0  0
 20 14  1  0  0  0
  3  8  1  0  0  0
 13 21  1  0  0  0
 24 25  1  0  0  0
M  END
> <minimizedAffinity>
-9.63224

> <CNNscore>
0.1826646775

> <CNNaffinity>
6.1737527847

> <CNN_VS>
1.1277265549

> <CNNaffinity_variance>
0.1600935459

$$$$
[H]/C(=C1/C(=O)N([H])c2c([H])c([H])c(F)c([H])c21)c1c(C([H])([H])[H])c(C(=O)N([H])C([H])([H])[C@]2([H])C([H])([H])C([H])([H])[C@]([H])(N3C([H])([H])C([H])([H])OC([H])([H])C3([H])[H])C([H])([H])C2([H])[H])c(C([H])([H])[H])n1[H]


 38 42  0  0  0  0  0  0  0  0999 V2000
   32.3028   15.5631  -12.0472 C   0  0  0  0  0  0  0  0  0  0  0  0
   33.7859   15.3448  -11.8558 C   0  0  0  0  0  0  0  0  0  0  0  0
   34.6786   15.0529  -12.8089 N   0  0  0  0  0  0  0  0  0  0  0  0
   35.9207   14.9140  -12.3350 C   0  0  0  0  0  0  0  0  0  0  0  0
   35.7983   15.1399  -10.9596 C   0  0  0  0  0  0  0  0  0  0  0  0
   36.9873   15.1017  -10.0738 C   0  0  0  0  0  0  0  0  0  0  0  0
   34.4888   15.4064  -10.6504 C   0  0  0  0  0  0  0  0  0  0  0  0
   34.3823   14.9660  -13.8345 H   0  0  0  0  0  0  0  0  0  0  0  0
   37.1263   14.5899  -13.0680 C   0  0  0  0  0  0  0  0  0  0  0  0
   37.2318   13.5706  -13.8812 C   0  0  0  0  0  0  0  0  0  0  0  0
   36.2314   12.5816  -14.2151 C   0  0  0  0  0  0  0  0  0  0  0  0
   35.0802   12.4903  -13.7529 O   0  0  0  0  0  0  0  0  0  0  0  0
   36.8243   11.6986  -15.2007 N   0  0  0  0  0  0  0  0  0  0  0  0
   38.1427   12.1353  -15.4566 C   0  0  0  0  0  0  0  0  0  0  0  0
   39.1256   11.6622  -16.2967 C   0  0  0  0  0  0  0  0  0  0  0  0
   40.3812   12.2489  -16.4083 C   0  0  0  0  0  0  0  0  0  0  0  0
   40.6292   13.3639  -15.6243 C   0  0  0  0  0  0  0  0  0  0  0  0
   41.8454   13.9890  -15.6844 F   0  0  0  0  0  0  0  0  0  0  0  0
   39.6682   13.8579  -14.7771 C   0  0  0  0  0  0  0  0  0  0  0  0
   38.4436   13.2452  -14.7007 C   0  0  0  0  0  0  0  0  0  0  0  0
   36.2999   10.8948  -15.6053 H   0  0  0  0  0  0  0  0  0  0  0  0
   33.8649   15.7341   -9.3865 C   0  0  0  0  0  0  0  0  0  0  0  0
   34.4790   16.6089   -8.6891 O   0  0  0  0  0  0  0  0  0  0  0  0
   32.6684   15.1892   -8.8684 N   0  0  0  0  0  0  0  0  0  0  0  0
   32.1428   14.4950   -9.5067 H   0  0  0  0  0  0  0  0  0  0  0  0
   32.0343   15.4314   -7.6281 C   0  0  0  0  0  0  0  0  0  0  0  0
   32.7343   16.0765   -6.5168 C   0  0  0  0  0  0  0  0  0  0  0  0
   32.9131   15.3649   -5.2464 C   0  0  0  0  0  0  0  0  0  0  0  0
   33.7630   16.1938   -4.2738 C   0  0  0  0  0  0  0  0  0  0  0  0
   34.1663   17.5183   -4.7983 C   0  0  0  0  0  0  0  0  0  0  0  0
   33.0437   18.2577   -5.4370 C   0  0  0  0  0  0  0  0  0  0  0  0
   32.1045   17.4629   -6.2755 C   0  0  0  0  0  0  0  0  0  0  0  0
   34.8134   18.3483   -3.8109 N   0  0  0  0  0  0  0  0  0  0  0  0
   36.1865   18.0798   -3.5802 C   0  0  0  0  0  0  0  0  0  0  0  0
   37.0064   19.1191   -4.2677 C   0  0  0  0  0  0  0  0  0  0  0  0
   36.8628   20.3085   -3.5655 O   0  0  0  0  0  0  0  0  0  0  0  0
   35.5409   20.6570   -3.3623 C   0  0  0  0  0  0  0  0  0  0  0  0
   34.5606   19.7362   -4.0136 C   0  0  0  0  0  0  0  0  0  0  0  0
  1  2  1  0  0  0
  2  3  1  0  0  0
  3  4  1  0  0  0
  4  9  1  0  0  0
  9 10  2  0  0  0
 10 11  1  0  0  0
 11 12  2  0  0  0
 11 13  1  0  0  0
 13 14  1  0  0  0
 14 15  2  0  0  0
 15 16  1  0  0  0
 16 17  2  0  0  0
 17 18  1  0  0  0
 17 19  1  0  0  0
 19 20  2  0  0  0
  4  5  2  0  0  0
  5  6  1  0  0  0
  5  7  1  0  0  0
  7 22  1  0  0  0
 22 23  2  0  0  0
 22 24  1  0  0  0
 24 26  1  0  0  0
 26 27  1  0  0  0
 27 28  1  0  0  0
 28 29  1  0  0  0
 29 30  1  0  0  0
 30 31  1  0  0  0
 31 32  1  0  0  0
 30 33  1  0  0  0
 33 34  1  0  0  0
 34 35  1  0  0  0
 35 36  1  0  0  0
 36 37  1  0  0  0
 37 38  1  0  0  0
  7  2  2  0  0  0
 32 27  1  0  0  0
 38 33  1  0  0  0
 20 10  1  0  0  0
 20 14  1  0  0  0
  3  8  1  0  0  0
 13 21  1  0  0  0
 24 25  1  0  0  0
M  END
> <minimizedAffinity>
-8.07808

> <CNNscore>
0.1692185998

> <CNNaffinity>
5.9487562180

> <CNN_VS>
1.0066401958

> <CNNaffinity_variance>
0.2790708244

$$$$
[H]/C(=C1/C(=O)N([H])c2c([H])c([H])c(F)c([H])c21)c1c(C([H])([H])[H])c(C(=O)N([H])C([H])([H])[C@]2([H])C([H])([H])C([H])([H])[C@]([H])(N3C([H])([H])C([H])([H])OC([H])([H])C3([H])[H])C([H])([H])C2([H])[H])c(C([H])([H])[H])n1[H]


 38 42  0  0  0  0  0  0  0  0999 V2000
   34.5103   15.6129  -11.3855 C   0  0  0  0  0  0  0  0  0  0  0  0
   35.8807   15.3223  -11.9527 C   0  0  0  0  0  0  0  0  0  0  0  0
   36.1549   14.5984  -13.0442 N   0  0  0  0  0  0  0  0  0  0  0  0
   37.4644   14.5131  -13.2979 C   0  0  0  0  0  0  0  0  0  0  0  0
   38.0685   15.2510  -12.2739 C   0  0  0  0  0  0  0  0  0  0  0  0
   39.5413   15.4189  -12.2246 C   0  0  0  0  0  0  0  0  0  0  0  0
   37.1048   15.7551  -11.4381 C   0  0  0  0  0  0  0  0  0  0  0  0
   35.3701   14.1654  -13.6307 H   0  0  0  0  0  0  0  0  0  0  0  0
   38.1219   13.8080  -14.3779 C   0  0  0  0  0  0  0  0  0  0  0  0
   37.5397   12.8951  -15.1120 C   0  0  0  0  0  0  0  0  0  0  0  0
   36.1848   12.3987  -15.0194 C   0  0  0  0  0  0  0  0  0  0  0  0
   35.3205   12.7225  -14.1856 O   0  0  0  0  0  0  0  0  0  0  0  0
   36.0145   11.4367  -16.0908 N   0  0  0  0  0  0  0  0  0  0  0  0
   37.2266   11.3495  -16.8103 C   0  0  0  0  0  0  0  0  0  0  0  0
   37.5990   10.6020  -17.9050 C   0  0  0  0  0  0  0  0  0  0  0  0
   38.8646   10.6654  -18.4772 C   0  0  0  0  0  0  0  0  0  0  0  0
   39.7769   11.5322  -17.8978 C   0  0  0  0  0  0  0  0  0  0  0  0
   41.0411   11.6421  -18.4107 F   0  0  0  0  0  0  0  0  0  0  0  0
   39.4337   12.2899  -16.8054 C   0  0  0  0  0  0  0  0  0  0  0  0
   38.1726   12.1934  -16.2751 C   0  0  0  0  0  0  0  0  0  0  0  0
   35.1153   10.9324  -16.2395 H   0  0  0  0  0  0  0  0  0  0  0  0
   37.2172   16.5995  -10.2683 C   0  0  0  0  0  0  0  0  0  0  0  0
   37.4337   17.8340  -10.5090 O   0  0  0  0  0  0  0  0  0  0  0  0
   37.1106   16.1927   -8.9192 N   0  0  0  0  0  0  0  0  0  0  0  0
   36.8705   15.1537   -8.7500 H   0  0  0  0  0  0  0  0  0  0  0  0
   37.2555   16.9547   -7.7371 C   0  0  0  0  0  0  0  0  0  0  0  0
   38.5174   16.9990   -6.9976 C   0  0  0  0  0  0  0  0  0  0  0  0
   39.0826   15.7695   -6.4309 C   0  0  0  0  0  0  0  0  0  0  0  0
   40.4532   16.0430   -5.7968 C   0  0  0  0  0  0  0  0  0  0  0  0
   40.8740   17.4616   -5.8508 C   0  0  0  0  0  0  0  0  0  0  0  0
   39.7961   18.4042   -5.4453 C   0  0  0  0  0  0  0  0  0  0  0  0
   38.4185   18.0957   -5.9186 C   0  0  0  0  0  0  0  0  0  0  0  0
   42.0779   17.7269   -5.1007 N   0  0  0  0  0  0  0  0  0  0  0  0
   43.1974   16.9170   -5.4198 C   0  0  0  0  0  0  0  0  0  0  0  0
   44.1422   17.7056   -6.2628 C   0  0  0  0  0  0  0  0  0  0  0  0
   44.7452   18.6572   -5.4508 O   0  0  0  0  0  0  0  0  0  0  0  0
   43.8329   19.4157   -4.7421 C   0  0  0  0  0  0  0  0  0  0  0  0
   42.4059   19.1134   -5.0667 C   0  0  0  0  0  0  0  0  0  0  0  0
  1  2  1  0  0  0
  2  3  1  0  0  0
  3  4  1  0  0  0
  4  9  1  0  0  0
  9 10  2  0  0  0
 10 11  1  0  0  0
 11 12  2  0  0  0
 11 13  1  0  0  0
 13 14  1  0  0  0
 14 15  2  0  0  0
 15 16  1  0  0  0
 16 17  2  0  0  0
 17 18  1  0  0  0
 17 19  1  0  0  0
 19 20  2  0  0  0
  4  5  2  0  0  0
  5  6  1  0  0  0
  5  7  1  0  0  0
  7 22  1  0  0  0
 22 23  2  0  0  0
 22 24  1  0  0  0
 24 26  1  0  0  0
 26 27  1  0  0  0
 27 28  1  0  0  0
 28 29  1  0  0  0
 29 30  1  0  0  0
 30 31  1  0  0  0
 31 32  1  0  0  0
 30 33  1  0  0  0
 33 34  1  0  0  0
 34 35  1  0  0  0
 35 36  1  0  0  0
 36 37  1  0  0  0
 37 38  1  0  0  0
  7  2  2  0  0  0
 32 27  1  0  0  0
 38 33  1  0  0  0
 20 10  1  0  0  0
 20 14  1  0  0  0
  3  8  1  0  0  0
 13 21  1  0  0  0
 24 25  1  0  0  0
M  END
> <minimizedAffinity>
-8.84830

> <CNNscore>
0.1616726518

> <CNNaffinity>
5.8954291344

> <CNN_VS>
0.9531296492

> <CNNaffinity_variance>
0.2312283516

$$$$
