[H]c1sc([H])c2c1N([H])C(=O)C(c1c([H])c([H])c(-c3c([H])c([H])c4nc(-c5c([H])c([H])c([H])c([H])c5[H])sc4c3[H])c([H])c1[H])=C(C([H])([H])[H])N2[H]


 35 40  0  0  0  0  0  0  0  0999 V2000
   37.8802   17.9602   -6.5744 C   0  0  0  0  0  0  0  0  0  0  0  0
   39.1055   18.2197   -6.0184 C   0  0  0  0  0  0  0  0  0  0  0  0
   40.0756   17.2489   -6.0314 C   0  0  0  0  0  0  0  0  0  0  0  0
   39.8533   16.0102   -6.5907 C   0  0  0  0  0  0  0  0  0  0  0  0
   38.6144   15.7724   -7.1426 C   0  0  0  0  0  0  0  0  0  0  0  0
   37.6281   16.7386   -7.1374 C   0  0  0  0  0  0  0  0  0  0  0  0
   37.7296   19.5782   -8.7098 C   0  0  0  0  0  0  0  0  0  0  0  0
   36.7665   19.7604   -7.5656 C   0  0  0  0  0  0  0  0  0  0  0  0
   36.8647   18.9837   -6.5046 C   0  0  0  0  0  0  0  0  0  0  0  0
   36.0687   18.9534   -5.2680 C   0  0  0  0  0  0  0  0  0  0  0  0
   36.4882   18.1603   -4.3753 O   0  0  0  0  0  0  0  0  0  0  0  0
   34.9053   19.7100   -4.9912 N   0  0  0  0  0  0  0  0  0  0  0  0
   34.1023   20.5401   -5.8894 C   0  0  0  0  0  0  0  0  0  0  0  0
   32.8386   20.8693   -5.4794 C   0  0  0  0  0  0  0  0  0  0  0  0
   32.2377   21.8218   -6.7509 S   0  0  0  0  0  0  0  0  0  0  0  0
   33.5948   21.7861   -7.7771 C   0  0  0  0  0  0  0  0  0  0  0  0
   34.5021   21.0192   -7.0947 C   0  0  0  0  0  0  0  0  0  0  0  0
   35.7915   20.8031   -7.7352 N   0  0  0  0  0  0  0  0  0  0  0  0
   34.5880   19.6603   -4.0161 H   0  0  0  0  0  0  0  0  0  0  0  0
   36.0695   21.5178   -8.4400 H   0  0  0  0  0  0  0  0  0  0  0  0
   40.8274   14.9631   -6.6433 C   0  0  0  0  0  0  0  0  0  0  0  0
   40.7816   13.7959   -5.9100 C   0  0  0  0  0  0  0  0  0  0  0  0
   41.6986   12.8013   -5.9488 C   0  0  0  0  0  0  0  0  0  0  0  0
   42.8219   12.9206   -6.8006 C   0  0  0  0  0  0  0  0  0  0  0  0
   43.7870   12.0509   -6.9457 N   0  0  0  0  0  0  0  0  0  0  0  0
   44.7758   12.2956   -7.7779 C   0  0  0  0  0  0  0  0  0  0  0  0
   44.3564   13.8251   -8.4087 S   0  0  0  0  0  0  0  0  0  0  0  0
   42.8929   14.0702   -7.5416 C   0  0  0  0  0  0  0  0  0  0  0  0
   41.9266   15.0865   -7.4816 C   0  0  0  0  0  0  0  0  0  0  0  0
   45.9254   11.4301   -8.0572 C   0  0  0  0  0  0  0  0  0  0  0  0
   45.8737   10.5757   -9.1381 C   0  0  0  0  0  0  0  0  0  0  0  0
   46.9384    9.7516   -9.4364 C   0  0  0  0  0  0  0  0  0  0  0  0
   48.0661    9.7948   -8.6303 C   0  0  0  0  0  0  0  0  0  0  0  0
   48.1120   10.6489   -7.5536 C   0  0  0  0  0  0  0  0  0  0  0  0
   47.0359   11.4601   -7.2786 C   0  0  0  0  0  0  0  0  0  0  0  0
  7  8  1  0  0  0
  8  9  2  0  0  0
  9 10  1  0  0  0
 10 11  2  0  0  0
 10 12  1  0  0  0
 12 13  1  0  0  0
 13 14  2  0  0  0
 14 15  1  0  0  0
 15 16  1  0  0  0
 16 17  2  0  0  0
 17 18  1  0  0  0
  9  1  1  0  0  0
  1  2  2  0  0  0
  2  3  1  0  0  0
  3  4  2  0  0  0
  4  5  1  0  0  0
  5  6  2  0  0  0
  4 21  1  0  0  0
 21 22  2  0  0  0
 22 23  1  0  0  0
 23 24  2  0  0  0
 24 25  1  0  0  0
 25 26  2  0  0  0
 26 27  1  0  0  0
 27 28  1  0  0  0
 28 29  2  0  0  0
 26 30  1  0  0  0
 30 31  2  0  0  0
 31 32  1  0  0  0
 32 33  2  0  0  0
 33 34  1  0  0  0
 34 35  2  0  0  0
 18  8  1  0  0  0
  6  1  1  0  0  0
 29 21  1  0  0  0
 35 30  1  0  0  0
 17 13  1  0  0  0
 28 24  1  0  0  0
 12 19  1  0  0  0
 18 20  1  0  0  0
M  END
> <minimizedAffinity>
-6.10347

> <CNNscore>
0.5256907940

> <CNNaffinity>
5.6952567101

> <CNN_VS>
2.9939439297

> <CNNaffinity_variance>
0.4839197695

$$$$
[H]c1sc([H])c2c1N([H])C(=O)C(c1c([H])c([H])c(-c3c([H])c([H])c4nc(-c5c([H])c([H])c([H])c([H])c5[H])sc4c3[H])c([H])c1[H])=C(C([H])([H])[H])N2[H]


 35 40  0  0  0  0  0  0  0  0999 V2000
   35.3490   15.2476   -6.2116 C   0  0  0  0  0  0  0  0  0  0  0  0
   36.1419   15.3870   -5.1027 C   0  0  0  0  0  0  0  0  0  0  0  0
   37.4263   14.9034   -5.1222 C   0  0  0  0  0  0  0  0  0  0  0  0
   37.9475   14.2764   -6.2320 C   0  0  0  0  0  0  0  0  0  0  0  0
   37.1318   14.1474   -7.3340 C   0  0  0  0  0  0  0  0  0  0  0  0
   35.8376   14.6284   -7.3299 C   0  0  0  0  0  0  0  0  0  0  0  0
   34.9909   17.8080   -6.9307 C   0  0  0  0  0  0  0  0  0  0  0  0
   33.8034   16.9722   -6.5290 C   0  0  0  0  0  0  0  0  0  0  0  0
   33.9880   15.7241   -6.1458 C   0  0  0  0  0  0  0  0  0  0  0  0
   33.0191   14.7085   -5.7057 C   0  0  0  0  0  0  0  0  0  0  0  0
   33.5244   13.6267   -5.2859 O   0  0  0  0  0  0  0  0  0  0  0  0
   31.6090   14.8261   -5.7089 N   0  0  0  0  0  0  0  0  0  0  0  0
   30.7651   15.8611   -6.3065 C   0  0  0  0  0  0  0  0  0  0  0  0
   29.4412   15.5653   -6.4886 C   0  0  0  0  0  0  0  0  0  0  0  0
   28.8035   16.9797   -7.1798 S   0  0  0  0  0  0  0  0  0  0  0  0
   30.2220   17.9187   -7.2259 C   0  0  0  0  0  0  0  0  0  0  0  0
   31.1782   17.0950   -6.6925 C   0  0  0  0  0  0  0  0  0  0  0  0
   32.5281   17.6320   -6.5987 N   0  0  0  0  0  0  0  0  0  0  0  0
   31.1182   14.0691   -5.2190 H   0  0  0  0  0  0  0  0  0  0  0  0
   32.5989   18.6709   -6.5777 H   0  0  0  0  0  0  0  0  0  0  0  0
   39.2802   13.7617   -6.3155 C   0  0  0  0  0  0  0  0  0  0  0  0
   39.6562   12.6361   -7.0182 C   0  0  0  0  0  0  0  0  0  0  0  0
   40.9120   12.1383   -7.1008 C   0  0  0  0  0  0  0  0  0  0  0  0
   41.9682   12.7936   -6.4251 C   0  0  0  0  0  0  0  0  0  0  0  0
   43.2252   12.4352   -6.4087 N   0  0  0  0  0  0  0  0  0  0  0  0
   44.1041   13.1426   -5.7324 C   0  0  0  0  0  0  0  0  0  0  0  0
   43.1433   14.3887   -5.0711 S   0  0  0  0  0  0  0  0  0  0  0  0
   41.6235   13.9155   -5.7192 C   0  0  0  0  0  0  0  0  0  0  0  0
   40.3116   14.4099   -5.6505 C   0  0  0  0  0  0  0  0  0  0  0  0
   45.5414   12.8806   -5.6148 C   0  0  0  0  0  0  0  0  0  0  0  0
   45.9634   11.6398   -5.1864 C   0  0  0  0  0  0  0  0  0  0  0  0
   47.3074   11.3540   -5.0700 C   0  0  0  0  0  0  0  0  0  0  0  0
   48.2320   12.3364   -5.3913 C   0  0  0  0  0  0  0  0  0  0  0  0
   47.8054   13.5721   -5.8180 C   0  0  0  0  0  0  0  0  0  0  0  0
   46.4589   13.8306   -5.9251 C   0  0  0  0  0  0  0  0  0  0  0  0
  7  8  1  0  0  0
  8  9  2  0  0  0
  9 10  1  0  0  0
 10 11  2  0  0  0
 10 12  1  0  0  0
 12 13  1  0  0  0
 13 14  2  0  0  0
 14 15  1  0  0  0
 15 16  1  0  0  0
 16 17  2  0  0  0
 17 18  1  0  0  0
  9  1  1  0  0  0
  1  2  2  0  0  0
  2  3  1  0  0  0
  3  4  2  0  0  0
  4  5  1  0  0  0
  5  6  2  0  0  0
  4 21  1  0  0  0
 21 22  2  0  0  0
 22 23  1  0  0  0
 23 24  2  0  0  0
 24 25  1  0  0  0
 25 26  2  0  0  0
 26 27  1  0  0  0
 27 28  1  0  0  0
 28 29  2  0  0  0
 26 30  1  0  0  0
 30 31  2  0  0  0
 31 32  1  0  0  0
 32 33  2  0  0  0
 33 34  1  0  0  0
 34 35  2  0  0  0
 18  8  1  0  0  0
  6  1  1  0  0  0
 29 21  1  0  0  0
 35 30  1  0  0  0
 17 13  1  0  0  0
 28 24  1  0  0  0
 12 19  1  0  0  0
 18 20  1  0  0  0
M  END
> <minimizedAffinity>
-6.42719

> <CNNscore>
0.4598381221

> <CNNaffinity>
5.6846184731

> <CNN_VS>
2.6140043736

> <CNNaffinity_variance>
0.1236644164

$$$$
[H]c1sc([H])c2c1N([H])C(=O)C(c1c([H])c([H])c(-c3c([H])c([H])c4nc(-c5c([H])c([H])c([H])c([H])c5[H])sc4c3[H])c([H])c1[H])=C(C([H])([H])[H])N2[H]


 35 40  0  0  0  0  0  0  0  0999 V2000
   41.6244   13.9864   -6.5393 C   0  0  0  0  0  0  0  0  0  0  0  0
   40.6704   13.7854   -7.5024 C   0  0  0  0  0  0  0  0  0  0  0  0
   39.3837   14.2087   -7.2813 C   0  0  0  0  0  0  0  0  0  0  0  0
   39.0182   14.8347   -6.1103 C   0  0  0  0  0  0  0  0  0  0  0  0
   39.9936   15.0250   -5.1572 C   0  0  0  0  0  0  0  0  0  0  0  0
   41.2924   14.6048   -5.3646 C   0  0  0  0  0  0  0  0  0  0  0  0
   42.1234   11.5263   -5.5906 C   0  0  0  0  0  0  0  0  0  0  0  0
   43.1969   12.2680   -6.3440 C   0  0  0  0  0  0  0  0  0  0  0  0
   42.9578   13.4890   -6.7805 C   0  0  0  0  0  0  0  0  0  0  0  0
   43.8180   14.4205   -7.5264 C   0  0  0  0  0  0  0  0  0  0  0  0
   43.3369   15.5782   -7.6998 O   0  0  0  0  0  0  0  0  0  0  0  0
   45.1020   14.1483   -8.0553 N   0  0  0  0  0  0  0  0  0  0  0  0
   45.8061   12.8712   -8.1724 C   0  0  0  0  0  0  0  0  0  0  0  0
   46.8646   12.8140   -9.0382 C   0  0  0  0  0  0  0  0  0  0  0  0
   47.4157   11.2136   -8.8960 S   0  0  0  0  0  0  0  0  0  0  0  0
   46.2978   10.6465   -7.7450 C   0  0  0  0  0  0  0  0  0  0  0  0
   45.5058   11.7356   -7.4925 C   0  0  0  0  0  0  0  0  0  0  0  0
   44.4323   11.5558   -6.5256 N   0  0  0  0  0  0  0  0  0  0  0  0
   45.6011   14.9742   -8.4056 H   0  0  0  0  0  0  0  0  0  0  0  0
   44.5676   10.7822   -5.8414 H   0  0  0  0  0  0  0  0  0  0  0  0
   37.6972   15.3067   -5.8271 C   0  0  0  0  0  0  0  0  0  0  0  0
   37.3582   16.1475   -4.7876 C   0  0  0  0  0  0  0  0  0  0  0  0
   36.1126   16.5966   -4.5081 C   0  0  0  0  0  0  0  0  0  0  0  0
   35.0276   16.1981   -5.3240 C   0  0  0  0  0  0  0  0  0  0  0  0
   33.7753   16.5448   -5.1810 N   0  0  0  0  0  0  0  0  0  0  0  0
   32.8665   16.0946   -6.0186 C   0  0  0  0  0  0  0  0  0  0  0  0
   33.7901   15.1275   -7.0793 S   0  0  0  0  0  0  0  0  0  0  0  0
   35.3354   15.3631   -6.3649 C   0  0  0  0  0  0  0  0  0  0  0  0
   36.6376   14.9121   -6.6319 C   0  0  0  0  0  0  0  0  0  0  0  0
   31.4305   16.3876   -5.9998 C   0  0  0  0  0  0  0  0  0  0  0  0
   30.9837   17.5065   -5.3293 C   0  0  0  0  0  0  0  0  0  0  0  0
   29.6409   17.8185   -5.2955 C   0  0  0  0  0  0  0  0  0  0  0  0
   28.7429   16.9873   -5.9482 C   0  0  0  0  0  0  0  0  0  0  0  0
   29.1941   15.8727   -6.6153 C   0  0  0  0  0  0  0  0  0  0  0  0
   30.5388   15.5848   -6.6330 C   0  0  0  0  0  0  0  0  0  0  0  0
  7  8  1  0  0  0
  8  9  2  0  0  0
  9 10  1  0  0  0
 10 11  2  0  0  0
 10 12  1  0  0  0
 12 13  1  0  0  0
 13 14  2  0  0  0
 14 15  1  0  0  0
 15 16  1  0  0  0
 16 17  2  0  0  0
 17 18  1  0  0  0
  9  1  1  0  0  0
  1  2  2  0  0  0
  2  3  1  0  0  0
  3  4  2  0  0  0
  4  5  1  0  0  0
  5  6  2  0  0  0
  4 21  1  0  0  0
 21 22  2  0  0  0
 22 23  1  0  0  0
 23 24  2  0  0  0
 24 25  1  0  0  0
 25 26  2  0  0  0
 26 27  1  0  0  0
 27 28  1  0  0  0
 28 29  2  0  0  0
 26 30  1  0  0  0
 30 31  2  0  0  0
 31 32  1  0  0  0
 32 33  2  0  0  0
 33 34  1  0  0  0
 34 35  2  0  0  0
 18  8  1  0  0  0
  6  1  1  0  0  0
 29 21  1  0  0  0
 35 30  1  0  0  0
 17 13  1  0  0  0
 28 24  1  0  0  0
 12 19  1  0  0  0
 18 20  1  0  0  0
M  END
> <minimizedAffinity>
-5.93105

> <CNNscore>
0.4428760707

> <CNNaffinity>
5.5115265846

> <CNN_VS>
2.4409232140

> <CNNaffinity_variance>
0.5168002248

$$$$
[H]c1sc([H])c2c1N([H])C(=O)C(c1c([H])c([H])c(-c3c([H])c([H])c4nc(-c5c([H])c([H])c([H])c([H])c5[H])sc4c3[H])c([H])c1[H])=C(C([H])([H])[H])N2[H]


 35 40  0  0  0  0  0  0  0  0999 V2000
   35.2109   15.9443   -6.5354 C   0  0  0  0  0  0  0  0  0  0  0  0
   36.1392   16.0223   -5.5304 C   0  0  0  0  0  0  0  0  0  0  0  0
   37.3755   15.4518   -5.7033 C   0  0  0  0  0  0  0  0  0  0  0  0
   37.7150   14.7970   -6.8663 C   0  0  0  0  0  0  0  0  0  0  0  0
   36.7657   14.7310   -7.8616 C   0  0  0  0  0  0  0  0  0  0  0  0
   35.5176   15.2997   -7.7029 C   0  0  0  0  0  0  0  0  0  0  0  0
   34.9646   18.5448   -7.1500 C   0  0  0  0  0  0  0  0  0  0  0  0
   33.7702   17.7822   -6.6382 C   0  0  0  0  0  0  0  0  0  0  0  0
   33.9038   16.5128   -6.3073 C   0  0  0  0  0  0  0  0  0  0  0  0
   32.9172   15.5543   -5.7859 C   0  0  0  0  0  0  0  0  0  0  0  0
   33.3849   14.4272   -5.4504 O   0  0  0  0  0  0  0  0  0  0  0  0
   31.5276   15.7706   -5.6292 N   0  0  0  0  0  0  0  0  0  0  0  0
   30.7014   16.8805   -6.1048 C   0  0  0  0  0  0  0  0  0  0  0  0
   29.3475   16.6841   -6.1453 C   0  0  0  0  0  0  0  0  0  0  0  0
   28.7431   18.1607   -6.7278 S   0  0  0  0  0  0  0  0  0  0  0  0
   30.2130   18.9989   -6.9096 C   0  0  0  0  0  0  0  0  0  0  0  0
   31.1589   18.0939   -6.5055 C   0  0  0  0  0  0  0  0  0  0  0  0
   32.5467   18.5316   -6.5500 N   0  0  0  0  0  0  0  0  0  0  0  0
   31.0393   15.0349   -5.1056 H   0  0  0  0  0  0  0  0  0  0  0  0
   32.6952   19.5619   -6.5127 H   0  0  0  0  0  0  0  0  0  0  0  0
   38.9893   14.1926   -7.1084 C   0  0  0  0  0  0  0  0  0  0  0  0
   39.3481   12.9146   -6.7340 C   0  0  0  0  0  0  0  0  0  0  0  0
   40.5508   12.3345   -6.9541 C   0  0  0  0  0  0  0  0  0  0  0  0
   41.5637   13.0606   -7.6236 C   0  0  0  0  0  0  0  0  0  0  0  0
   42.7686   12.6396   -7.9060 N   0  0  0  0  0  0  0  0  0  0  0  0
   43.6123   13.4283   -8.5356 C   0  0  0  0  0  0  0  0  0  0  0  0
   42.6923   14.8486   -8.7585 S   0  0  0  0  0  0  0  0  0  0  0  0
   41.2347   14.3333   -8.0078 C   0  0  0  0  0  0  0  0  0  0  0  0
   39.9782   14.9106   -7.7662 C   0  0  0  0  0  0  0  0  0  0  0  0
   44.9888   13.1111   -8.9269 C   0  0  0  0  0  0  0  0  0  0  0  0
   46.0310   13.7437   -8.2830 C   0  0  0  0  0  0  0  0  0  0  0  0
   47.3394   13.4661   -8.6190 C   0  0  0  0  0  0  0  0  0  0  0  0
   47.5925   12.5377   -9.6176 C   0  0  0  0  0  0  0  0  0  0  0  0
   46.5491   11.9098  -10.2564 C   0  0  0  0  0  0  0  0  0  0  0  0
   45.2536   12.2056   -9.9017 C   0  0  0  0  0  0  0  0  0  0  0  0
  7  8  1  0  0  0
  8  9  2  0  0  0
  9 10  1  0  0  0
 10 11  2  0  0  0
 10 12  1  0  0  0
 12 13  1  0  0  0
 13 14  2  0  0  0
 14 15  1  0  0  0
 15 16  1  0  0  0
 16 17  2  0  0  0
 17 18  1  0  0  0
  9  1  1  0  0  0
  1  2  2  0  0  0
  2  3  1  0  0  0
  3  4  2  0  0  0
  4  5  1  0  0  0
  5  6  2  0  0  0
  4 21  1  0  0  0
 21 22  2  0  0  0
 22 23  1  0  0  0
 23 24  2  0  0  0
 24 25  1  0  0  0
 25 26  2  0  0  0
 26 27  1  0  0  0
 27 28  1  0  0  0
 28 29  2  0  0  0
 26 30  1  0  0  0
 30 31  2  0  0  0
 31 32  1  0  0  0
 32 33  2  0  0  0
 33 34  1  0  0  0
 34 35  2  0  0  0
 18  8  1  0  0  0
  6  1  1  0  0  0
 29 21  1  0  0  0
 35 30  1  0  0  0
 17 13  1  0  0  0
 28 24  1  0  0  0
 12 19  1  0  0  0
 18 20  1  0  0  0
M  END
> <minimizedAffinity>
-5.93785

> <CNNscore>
0.4025806189

> <CNNaffinity>
5.6877384186

> <CNN_VS>
2.2897732258

> <CNNaffinity_variance>
0.3369955122

$$$$
[H]c1sc([H])c2c1N([H])C(=O)C(c1c([H])c([H])c(-c3c([H])c([H])c4nc(-c5c([H])c([H])c([H])c([H])c5[H])sc4c3[H])c([H])c1[H])=C(C([H])([H])[H])N2[H]


 35 40  0  0  0  0  0  0  0  0999 V2000
   36.6465   14.4682   -6.6405 C   0  0  0  0  0  0  0  0  0  0  0  0
   37.3072   15.5923   -6.2186 C   0  0  0  0  0  0  0  0  0  0  0  0
   38.6383   15.5148   -5.8934 C   0  0  0  0  0  0  0  0  0  0  0  0
   39.3371   14.3311   -5.9786 C   0  0  0  0  0  0  0  0  0  0  0  0
   38.6520   13.2150   -6.4043 C   0  0  0  0  0  0  0  0  0  0  0  0
   37.3128   13.2767   -6.7349 C   0  0  0  0  0  0  0  0  0  0  0  0
   35.0063   13.7743   -4.6332 C   0  0  0  0  0  0  0  0  0  0  0  0
   34.4273   14.2605   -5.9364 C   0  0  0  0  0  0  0  0  0  0  0  0
   35.2362   14.5700   -6.9307 C   0  0  0  0  0  0  0  0  0  0  0  0
   34.9379   15.0564   -8.2865 C   0  0  0  0  0  0  0  0  0  0  0  0
   35.9369   15.1517   -9.0576 O   0  0  0  0  0  0  0  0  0  0  0  0
   33.6685   15.4193   -8.7956 N   0  0  0  0  0  0  0  0  0  0  0  0
   32.3992   15.5911   -8.0885 C   0  0  0  0  0  0  0  0  0  0  0  0
   31.4124   16.2906   -8.7290 C   0  0  0  0  0  0  0  0  0  0  0  0
   30.1225   16.2715   -7.6239 S   0  0  0  0  0  0  0  0  0  0  0  0
   30.8546   15.3798   -6.3729 C   0  0  0  0  0  0  0  0  0  0  0  0
   32.1099   15.1121   -6.8520 C   0  0  0  0  0  0  0  0  0  0  0  0
   32.9931   14.3455   -5.9849 N   0  0  0  0  0  0  0  0  0  0  0  0
   33.6482   15.5846   -9.8086 H   0  0  0  0  0  0  0  0  0  0  0  0
   32.5198   13.7520   -5.2716 H   0  0  0  0  0  0  0  0  0  0  0  0
   40.7260   14.1906   -5.6637 C   0  0  0  0  0  0  0  0  0  0  0  0
   41.5300   15.1860   -5.1489 C   0  0  0  0  0  0  0  0  0  0  0  0
   42.8448   15.0655   -4.8514 C   0  0  0  0  0  0  0  0  0  0  0  0
   43.4992   13.8302   -5.0687 C   0  0  0  0  0  0  0  0  0  0  0  0
   44.7566   13.5614   -4.8336 N   0  0  0  0  0  0  0  0  0  0  0  0
   45.2332   12.3617   -5.0865 C   0  0  0  0  0  0  0  0  0  0  0  0
   43.8634   11.5408   -5.6889 S   0  0  0  0  0  0  0  0  0  0  0  0
   42.7242   12.8229   -5.5790 C   0  0  0  0  0  0  0  0  0  0  0  0
   41.3615   12.9757   -5.8790 C   0  0  0  0  0  0  0  0  0  0  0  0
   46.6085   11.8995   -4.8786 C   0  0  0  0  0  0  0  0  0  0  0  0
   47.0250   11.5886   -3.6015 C   0  0  0  0  0  0  0  0  0  0  0  0
   48.3093   11.1440   -3.3677 C   0  0  0  0  0  0  0  0  0  0  0  0
   49.1792   11.0135   -4.4399 C   0  0  0  0  0  0  0  0  0  0  0  0
   48.7583   11.3250   -5.7115 C   0  0  0  0  0  0  0  0  0  0  0  0
   47.4720   11.7664   -5.9165 C   0  0  0  0  0  0  0  0  0  0  0  0
  7  8  1  0  0  0
  8  9  2  0  0  0
  9 10  1  0  0  0
 10 11  2  0  0  0
 10 12  1  0  0  0
 12 13  1  0  0  0
 13 14  2  0  0  0
 14 15  1  0  0  0
 15 16  1  0  0  0
 16 17  2  0  0  0
 17 18  1  0  0  0
  9  1  1  0  0  0
  1  2  2  0  0  0
  2  3  1  0  0  0
  3  4  2  0  0  0
  4  5  1  0  0  0
  5  6  2  0  0  0
  4 21  1  0  0  0
 21 22  2  0  0  0
 22 23  1  0  0  0
 23 24  2  0  0  0
 24 25  1  0  0  0
 25 26  2  0  0  0
 26 27  1  0  0  0
 27 28  1  0  0  0
 28 29  2  0  0  0
 26 30  1  0  0  0
 30 31  2  0  0  0
 31 32  1  0  0  0
 32 33  2  0  0  0
 33 34  1  0  0  0
 34 35  2  0  0  0
 18  8  1  0  0  0
  6  1  1  0  0  0
 29 21  1  0  0  0
 35 30  1  0  0  0
 17 13  1  0  0  0
 28 24  1  0  0  0
 12 19  1  0  0  0
 18 20  1  0  0  0
M  END
> <minimizedAffinity>
-6.38032

> <CNNscore>
0.3427269161

> <CNNaffinity>
5.2714204788

> <CNN_VS>
1.8066576719

> <CNNaffinity_variance>
0.2609345615

$$$$
[H]c1sc([H])c2c1N([H])C(=O)C(c1c([H])c([H])c(-c3c([H])c([H])c4nc(-c5c([H])c([H])c([H])c([H])c5[H])sc4c3[H])c([H])c1[H])=C(C([H])([H])[H])N2[H]


 35 40  0  0  0  0  0  0  0  0999 V2000
   36.2682   15.3434   -6.7000 C   0  0  0  0  0  0  0  0  0  0  0  0
   36.3602   13.9777   -6.7657 C   0  0  0  0  0  0  0  0  0  0  0  0
   37.5958   13.3803   -6.7632 C   0  0  0  0  0  0  0  0  0  0  0  0
   38.7570   14.1178   -6.6964 C   0  0  0  0  0  0  0  0  0  0  0  0
   38.6394   15.4883   -6.6318 C   0  0  0  0  0  0  0  0  0  0  0  0
   37.4037   16.1043   -6.6336 C   0  0  0  0  0  0  0  0  0  0  0  0
   35.4235   16.0521   -9.1465 C   0  0  0  0  0  0  0  0  0  0  0  0
   34.5257   16.2660   -7.9555 C   0  0  0  0  0  0  0  0  0  0  0  0
   34.9574   15.9457   -6.7515 C   0  0  0  0  0  0  0  0  0  0  0  0
   34.2970   16.0544   -5.4415 C   0  0  0  0  0  0  0  0  0  0  0  0
   35.0242   15.7705   -4.4454 O   0  0  0  0  0  0  0  0  0  0  0  0
   32.9566   16.4372   -5.1983 N   0  0  0  0  0  0  0  0  0  0  0  0
   31.8589   16.6274   -6.1465 C   0  0  0  0  0  0  0  0  0  0  0  0
   30.5868   16.6397   -5.6415 C   0  0  0  0  0  0  0  0  0  0  0  0
   29.6118   16.8854   -7.0105 S   0  0  0  0  0  0  0  0  0  0  0  0
   30.8301   16.9679   -8.1959 C   0  0  0  0  0  0  0  0  0  0  0  0
   31.9900   16.7990   -7.4865 C   0  0  0  0  0  0  0  0  0  0  0  0
   33.2322   16.8221   -8.2455 N   0  0  0  0  0  0  0  0  0  0  0  0
   32.7342   16.6010   -4.2096 H   0  0  0  0  0  0  0  0  0  0  0  0
   33.1932   17.3235   -9.1576 H   0  0  0  0  0  0  0  0  0  0  0  0
   40.0713   13.5521   -6.6799 C   0  0  0  0  0  0  0  0  0  0  0  0
   40.5772   12.7432   -5.6838 C   0  0  0  0  0  0  0  0  0  0  0  0
   41.8192   12.2063   -5.6558 C   0  0  0  0  0  0  0  0  0  0  0  0
   42.7162   12.4670   -6.7183 C   0  0  0  0  0  0  0  0  0  0  0  0
   43.9409   12.0241   -6.8320 N   0  0  0  0  0  0  0  0  0  0  0  0
   44.6655   12.3499   -7.8803 C   0  0  0  0  0  0  0  0  0  0  0  0
   43.5958   13.3326   -8.7765 S   0  0  0  0  0  0  0  0  0  0  0  0
   42.2399   13.2674   -7.7224 C   0  0  0  0  0  0  0  0  0  0  0  0
   40.9460   13.8115   -7.7257 C   0  0  0  0  0  0  0  0  0  0  0  0
   46.0443   11.9381   -8.1592 C   0  0  0  0  0  0  0  0  0  0  0  0
   46.9271   12.8610   -8.6789 C   0  0  0  0  0  0  0  0  0  0  0  0
   48.2340   12.5124   -8.9478 C   0  0  0  0  0  0  0  0  0  0  0  0
   48.6491   11.2152   -8.6868 C   0  0  0  0  0  0  0  0  0  0  0  0
   47.7643   10.2989   -8.1684 C   0  0  0  0  0  0  0  0  0  0  0  0
   46.4664   10.6732   -7.9097 C   0  0  0  0  0  0  0  0  0  0  0  0
  7  8  1  0  0  0
  8  9  2  0  0  0
  9 10  1  0  0  0
 10 11  2  0  0  0
 10 12  1  0  0  0
 12 13  1  0  0  0
 13 14  2  0  0  0
 14 15  1  0  0  0
 15 16  1  0  0  0
 16 17  2  0  0  0
 17 18  1  0  0  0
  9  1  1  0  0  0
  1  2  2  0  0  0
  2  3  1  0  0  0
  3  4  2  0  0  0
  4  5  1  0  0  0
  5  6  2  0  0  0
  4 21  1  0  0  0
 21 22  2  0  0  0
 22 23  1  0  0  0
 23 24  2  0  0  0
 24 25  1  0  0  0
 25 26  2  0  0  0
 26 27  1  0  0  0
 27 28  1  0  0  0
 28 29  2  0  0  0
 26 30  1  0  0  0
 30 31  2  0  0  0
 31 32  1  0  0  0
 32 33  2  0  0  0
 33 34  1  0  0  0
 34 35  2  0  0  0
 18  8  1  0  0  0
  6  1  1  0  0  0
 29 21  1  0  0  0
 35 30  1  0  0  0
 17 13  1  0  0  0
 28 24  1  0  0  0
 12 19  1  0  0  0
 18 20  1  0  0  0
M  END
> <minimizedAffinity>
-6.35384

> <CNNscore>
0.3425748348

> <CNNaffinity>
5.5070848465

> <CNN_VS>
1.8865886927

> <CNNaffinity_variance>
0.2929822505

$$$$
[H]c1sc([H])c2c1N([H])C(=O)C(c1c([H])c([H])c(-c3c([H])c([H])c4nc(-c5c([H])c([H])c([H])c([H])c5[H])sc4c3[H])c([H])c1[H])=C(C([H])([H])[H])N2[H]


 35 40  0  0  0  0  0  0  0  0999 V2000
   37.6686   17.8378   -7.3458 C   0  0  0  0  0  0  0  0  0  0  0  0
   37.6450   17.2214   -8.5695 C   0  0  0  0  0  0  0  0  0  0  0  0
   38.6958   16.4235   -8.9475 C   0  0  0  0  0  0  0  0  0  0  0  0
   39.7836   16.2216   -8.1273 C   0  0  0  0  0  0  0  0  0  0  0  0
   39.7852   16.8518   -6.9029 C   0  0  0  0  0  0  0  0  0  0  0  0
   38.7357   17.6576   -6.5084 C   0  0  0  0  0  0  0  0  0  0  0  0
   37.8786   20.3647   -8.2241 C   0  0  0  0  0  0  0  0  0  0  0  0
   36.6559   19.9418   -7.4519 C   0  0  0  0  0  0  0  0  0  0  0  0
   36.5715   18.7078   -6.9949 C   0  0  0  0  0  0  0  0  0  0  0  0
   35.5087   18.0482   -6.2210 C   0  0  0  0  0  0  0  0  0  0  0  0
   35.7766   16.8759   -5.8264 O   0  0  0  0  0  0  0  0  0  0  0  0
   34.2451   18.5897   -5.8856 N   0  0  0  0  0  0  0  0  0  0  0  0
   33.6045   19.8157   -6.3620 C   0  0  0  0  0  0  0  0  0  0  0  0
   32.2534   19.9323   -6.1760 C   0  0  0  0  0  0  0  0  0  0  0  0
   31.8857   21.4542   -6.8346 S   0  0  0  0  0  0  0  0  0  0  0  0
   33.4464   21.9148   -7.3330 C   0  0  0  0  0  0  0  0  0  0  0  0
   34.2334   20.8540   -6.9691 C   0  0  0  0  0  0  0  0  0  0  0  0
   35.6536   20.9566   -7.2725 N   0  0  0  0  0  0  0  0  0  0  0  0
   33.7093   18.0319   -5.2106 H   0  0  0  0  0  0  0  0  0  0  0  0
   36.0219   21.9247   -7.3816 H   0  0  0  0  0  0  0  0  0  0  0  0
   40.9024   15.3941   -8.4615 C   0  0  0  0  0  0  0  0  0  0  0  0
   41.3255   14.2981   -7.7391 C   0  0  0  0  0  0  0  0  0  0  0  0
   42.3838   13.5113   -8.0433 C   0  0  0  0  0  0  0  0  0  0  0  0
   43.1567   13.7954   -9.1937 C   0  0  0  0  0  0  0  0  0  0  0  0
   44.2019   13.1327   -9.6147 N   0  0  0  0  0  0  0  0  0  0  0  0
   44.8282   13.5132  -10.7070 C   0  0  0  0  0  0  0  0  0  0  0  0
   43.9230   14.8755  -11.1949 S   0  0  0  0  0  0  0  0  0  0  0  0
   42.7586   14.8788   -9.9308 C   0  0  0  0  0  0  0  0  0  0  0  0
   41.6559   15.6784   -9.5917 C   0  0  0  0  0  0  0  0  0  0  0  0
   46.0052   12.8825  -11.3115 C   0  0  0  0  0  0  0  0  0  0  0  0
   46.2207   13.0256  -12.6658 C   0  0  0  0  0  0  0  0  0  0  0  0
   47.3206   12.4525  -13.2687 C   0  0  0  0  0  0  0  0  0  0  0  0
   48.2103   11.7275  -12.4901 C   0  0  0  0  0  0  0  0  0  0  0  0
   47.9903   11.5882  -11.1399 C   0  0  0  0  0  0  0  0  0  0  0  0
   46.8851   12.1700  -10.5641 C   0  0  0  0  0  0  0  0  0  0  0  0
  7  8  1  0  0  0
  8  9  2  0  0  0
  9 10  1  0  0  0
 10 11  2  0  0  0
 10 12  1  0  0  0
 12 13  1  0  0  0
 13 14  2  0  0  0
 14 15  1  0  0  0
 15 16  1  0  0  0
 16 17  2  0  0  0
 17 18  1  0  0  0
  9  1  1  0  0  0
  1  2  2  0  0  0
  2  3  1  0  0  0
  3  4  2  0  0  0
  4  5  1  0  0  0
  5  6  2  0  0  0
  4 21  1  0  0  0
 21 22  2  0  0  0
 22 23  1  0  0  0
 23 24  2  0  0  0
 24 25  1  0  0  0
 25 26  2  0  0  0
 26 27  1  0  0  0
 27 28  1  0  0  0
 28 29  2  0  0  0
 26 30  1  0  0  0
 30 31  2  0  0  0
 31 32  1  0  0  0
 32 33  2  0  0  0
 33 34  1  0  0  0
 34 35  2  0  0  0
 18  8  1  0  0  0
  6  1  1  0  0  0
 29 21  1  0  0  0
 35 30  1  0  0  0
 17 13  1  0  0  0
 28 24  1  0  0  0
 12 19  1  0  0  0
 18 20  1  0  0  0
M  END
> <minimizedAffinity>
-5.87782

> <CNNscore>
0.3217326999

> <CNNaffinity>
5.4998373985

> <CNN_VS>
1.7694774866

> <CNNaffinity_variance>
0.5098971128

$$$$
[H]c1sc([H])c2c1N([H])C(=O)C(c1c([H])c([H])c(-c3c([H])c([H])c4nc(-c5c([H])c([H])c([H])c([H])c5[H])sc4c3[H])c([H])c1[H])=C(C([H])([H])[H])N2[H]


 35 40  0  0  0  0  0  0  0  0999 V2000
   35.7309   15.6501   -9.0068 C   0  0  0  0  0  0  0  0  0  0  0  0
   36.5065   16.7709   -9.1491 C   0  0  0  0  0  0  0  0  0  0  0  0
   37.8268   16.7339   -8.7760 C   0  0  0  0  0  0  0  0  0  0  0  0
   38.4015   15.5947   -8.2579 C   0  0  0  0  0  0  0  0  0  0  0  0
   37.6024   14.4813   -8.1238 C   0  0  0  0  0  0  0  0  0  0  0  0
   36.2725   14.5026   -8.4944 C   0  0  0  0  0  0  0  0  0  0  0  0
   35.1856   15.2820  -11.6083 C   0  0  0  0  0  0  0  0  0  0  0  0
   34.0597   15.5203  -10.6358 C   0  0  0  0  0  0  0  0  0  0  0  0
   34.3347   15.7324   -9.3638 C   0  0  0  0  0  0  0  0  0  0  0  0
   33.4402   15.9915   -8.2252 C   0  0  0  0  0  0  0  0  0  0  0  0
   34.0204   16.2747   -7.1366 O   0  0  0  0  0  0  0  0  0  0  0  0
   32.0257   15.9539   -8.2341 N   0  0  0  0  0  0  0  0  0  0  0  0
   31.1163   15.4761   -9.2759 C   0  0  0  0  0  0  0  0  0  0  0  0
   29.8256   15.2068   -8.9086 C   0  0  0  0  0  0  0  0  0  0  0  0
   29.0933   14.6966  -10.3539 S   0  0  0  0  0  0  0  0  0  0  0  0
   30.4322   14.8330  -11.3954 C   0  0  0  0  0  0  0  0  0  0  0  0
   31.4380   15.2807  -10.5799 C   0  0  0  0  0  0  0  0  0  0  0  0
   32.7375   15.4971  -11.1996 N   0  0  0  0  0  0  0  0  0  0  0  0
   31.5855   16.3156   -7.3801 H   0  0  0  0  0  0  0  0  0  0  0  0
   32.7237   15.6650  -12.2275 H   0  0  0  0  0  0  0  0  0  0  0  0
   39.7728   15.4924   -7.8615 C   0  0  0  0  0  0  0  0  0  0  0  0
   40.7965   16.2934   -8.3227 C   0  0  0  0  0  0  0  0  0  0  0  0
   42.0966   16.2031   -7.9581 C   0  0  0  0  0  0  0  0  0  0  0  0
   42.4926   15.2170   -7.0241 C   0  0  0  0  0  0  0  0  0  0  0  0
   43.7031   15.0062   -6.5779 N   0  0  0  0  0  0  0  0  0  0  0  0
   43.9271   14.0468   -5.7064 C   0  0  0  0  0  0  0  0  0  0  0  0
   42.3705   13.3846   -5.4794 S   0  0  0  0  0  0  0  0  0  0  0  0
   41.4958   14.4072   -6.5485 C   0  0  0  0  0  0  0  0  0  0  0  0
   40.1541   14.5230   -6.9445 C   0  0  0  0  0  0  0  0  0  0  0  0
   45.2155   13.6840   -5.1090 C   0  0  0  0  0  0  0  0  0  0  0  0
   45.2901   12.5667   -4.3045 C   0  0  0  0  0  0  0  0  0  0  0  0
   46.4861   12.1901   -3.7305 C   0  0  0  0  0  0  0  0  0  0  0  0
   47.6172   12.9543   -3.9754 C   0  0  0  0  0  0  0  0  0  0  0  0
   47.5369   14.0676   -4.7786 C   0  0  0  0  0  0  0  0  0  0  0  0
   46.3313   14.4208   -5.3383 C   0  0  0  0  0  0  0  0  0  0  0  0
  7  8  1  0  0  0
  8  9  2  0  0  0
  9 10  1  0  0  0
 10 11  2  0  0  0
 10 12  1  0  0  0
 12 13  1  0  0  0
 13 14  2  0  0  0
 14 15  1  0  0  0
 15 16  1  0  0  0
 16 17  2  0  0  0
 17 18  1  0  0  0
  9  1  1  0  0  0
  1  2  2  0  0  0
  2  3  1  0  0  0
  3  4  2  0  0  0
  4  5  1  0  0  0
  5  6  2  0  0  0
  4 21  1  0  0  0
 21 22  2  0  0  0
 22 23  1  0  0  0
 23 24  2  0  0  0
 24 25  1  0  0  0
 25 26  2  0  0  0
 26 27  1  0  0  0
 27 28  1  0  0  0
 28 29  2  0  0  0
 26 30  1  0  0  0
 30 31  2  0  0  0
 31 32  1  0  0  0
 32 33  2  0  0  0
 33 34  1  0  0  0
 34 35  2  0  0  0
 18  8  1  0  0  0
  6  1  1  0  0  0
 29 21  1  0  0  0
 35 30  1  0  0  0
 17 13  1  0  0  0
 28 24  1  0  0  0
 12 19  1  0  0  0
 18 20  1  0  0  0
M  END
> <minimizedAffinity>
-5.75798

> <CNNscore>
0.3186075091

> <CNNaffinity>
5.7108492851

> <CNN_VS>
1.8195195198

> <CNNaffinity_variance>
0.2836144567

$$$$
[H]c1sc([H])c2c1N([H])C(=O)C(c1c([H])c([H])c(-c3c([H])c([H])c4nc(-c5c([H])c([H])c([H])c([H])c5[H])sc4c3[H])c([H])c1[H])=C(C([H])([H])[H])N2[H]


 35 40  0  0  0  0  0  0  0  0999 V2000
   37.8862   18.0858   -7.6439 C   0  0  0  0  0  0  0  0  0  0  0  0
   38.1793   17.3028   -8.7297 C   0  0  0  0  0  0  0  0  0  0  0  0
   39.1970   16.3854   -8.6494 C   0  0  0  0  0  0  0  0  0  0  0  0
   39.9398   16.2262   -7.5008 C   0  0  0  0  0  0  0  0  0  0  0  0
   39.6274   17.0244   -6.4231 C   0  0  0  0  0  0  0  0  0  0  0  0
   38.6067   17.9520   -6.4882 C   0  0  0  0  0  0  0  0  0  0  0  0
   35.4478   17.2914   -6.8540 C   0  0  0  0  0  0  0  0  0  0  0  0
   35.6488   18.6979   -7.3558 C   0  0  0  0  0  0  0  0  0  0  0  0
   36.8419   19.0739   -7.7727 C   0  0  0  0  0  0  0  0  0  0  0  0
   37.3023   20.3650   -8.3064 C   0  0  0  0  0  0  0  0  0  0  0  0
   38.4930   20.3782   -8.7349 O   0  0  0  0  0  0  0  0  0  0  0  0
   36.5553   21.5645   -8.3825 N   0  0  0  0  0  0  0  0  0  0  0  0
   35.2529   21.8857   -7.7985 C   0  0  0  0  0  0  0  0  0  0  0  0
   34.9144   23.2087   -7.7060 C   0  0  0  0  0  0  0  0  0  0  0  0
   33.3686   23.1810   -7.0025 S   0  0  0  0  0  0  0  0  0  0  0  0
   33.1790   21.4978   -6.8381 C   0  0  0  0  0  0  0  0  0  0  0  0
   34.3447   20.9854   -7.3437 C   0  0  0  0  0  0  0  0  0  0  0  0
   34.4810   19.5360   -7.3376 N   0  0  0  0  0  0  0  0  0  0  0  0
   37.0030   22.3101   -8.9280 H   0  0  0  0  0  0  0  0  0  0  0  0
   33.5882   18.9999   -7.3163 H   0  0  0  0  0  0  0  0  0  0  0  0
   41.0043   15.2810   -7.3538 C   0  0  0  0  0  0  0  0  0  0  0  0
   41.3692   14.6706   -6.1721 C   0  0  0  0  0  0  0  0  0  0  0  0
   42.3760   13.7789   -6.0209 C   0  0  0  0  0  0  0  0  0  0  0  0
   43.1526   13.4063   -7.1431 C   0  0  0  0  0  0  0  0  0  0  0  0
   44.1524   12.5642   -7.1552 N   0  0  0  0  0  0  0  0  0  0  0  0
   44.7890   12.3121   -8.2784 C   0  0  0  0  0  0  0  0  0  0  0  0
   43.9610   13.2969   -9.4000 S   0  0  0  0  0  0  0  0  0  0  0  0
   42.8118   13.9969   -8.3308 C   0  0  0  0  0  0  0  0  0  0  0  0
   41.7618   14.9196   -8.4592 C   0  0  0  0  0  0  0  0  0  0  0  0
   45.9204   11.3987   -8.4627 C   0  0  0  0  0  0  0  0  0  0  0  0
   46.9790   11.4570   -7.5812 C   0  0  0  0  0  0  0  0  0  0  0  0
   48.0579   10.6091   -7.7184 C   0  0  0  0  0  0  0  0  0  0  0  0
   48.0625    9.6933   -8.7598 C   0  0  0  0  0  0  0  0  0  0  0  0
   47.0040    9.6396   -9.6359 C   0  0  0  0  0  0  0  0  0  0  0  0
   45.9407   10.4971   -9.4761 C   0  0  0  0  0  0  0  0  0  0  0  0
  7  8  1  0  0  0
  8  9  2  0  0  0
  9 10  1  0  0  0
 10 11  2  0  0  0
 10 12  1  0  0  0
 12 13  1  0  0  0
 13 14  2  0  0  0
 14 15  1  0  0  0
 15 16  1  0  0  0
 16 17  2  0  0  0
 17 18  1  0  0  0
  9  1  1  0  0  0
  1  2  2  0  0  0
  2  3  1  0  0  0
  3  4  2  0  0  0
  4  5  1  0  0  0
  5  6  2  0  0  0
  4 21  1  0  0  0
 21 22  2  0  0  0
 22 23  1  0  0  0
 23 24  2  0  0  0
 24 25  1  0  0  0
 25 26  2  0  0  0
 26 27  1  0  0  0
 27 28  1  0  0  0
 28 29  2  0  0  0
 26 30  1  0  0  0
 30 31  2  0  0  0
 31 32  1  0  0  0
 32 33  2  0  0  0
 33 34  1  0  0  0
 34 35  2  0  0  0
 18  8  1  0  0  0
  6  1  1  0  0  0
 29 21  1  0  0  0
 35 30  1  0  0  0
 17 13  1  0  0  0
 28 24  1  0  0  0
 12 19  1  0  0  0
 18 20  1  0  0  0
M  END
> <minimizedAffinity>
-7.00771

> <CNNscore>
0.3156680763

> <CNNaffinity>
5.4744157791

> <CNN_VS>
1.7280982733

> <CNNaffinity_variance>
0.2385231704

$$$$
[H]c1c([H])c(C(=O)N([H])[H])c(N([H])C(=O)N([H])c2c([H])c([H])c3c([H])c([H])c(C(F)(F)F)c([H])c3c2[H])c([H])c1Cl


 32 34  0  0  0  0  0  0  0  0999 V2000
   37.0928   14.1983  -14.1465 N   0  0  0  0  0  0  0  0  0  0  0  0
   38.4170   13.7950  -14.4713 C   0  0  0  0  0  0  0  0  0  0  0  0
   38.6935   12.7172  -15.0759 O   0  0  0  0  0  0  0  0  0  0  0  0
   39.5492   14.5914  -14.1365 N   0  0  0  0  0  0  0  0  0  0  0  0
   36.9683   15.0853  -13.6370 H   0  0  0  0  0  0  0  0  0  0  0  0
   39.4032   15.4641  -13.6130 H   0  0  0  0  0  0  0  0  0  0  0  0
   40.8569   14.1338  -14.5384 C   0  0  0  0  0  0  0  0  0  0  0  0
   40.9900   13.6389  -15.8349 C   0  0  0  0  0  0  0  0  0  0  0  0
   42.2077   13.1260  -16.2155 C   0  0  0  0  0  0  0  0  0  0  0  0
   43.2918   13.0839  -15.3714 C   0  0  0  0  0  0  0  0  0  0  0  0
   44.4803   12.5291  -15.8151 C   0  0  0  0  0  0  0  0  0  0  0  0
   45.5708   12.4624  -14.9588 C   0  0  0  0  0  0  0  0  0  0  0  0
   45.4590   12.9579  -13.6523 C   0  0  0  0  0  0  0  0  0  0  0  0
   44.2572   13.4908  -13.2819 C   0  0  0  0  0  0  0  0  0  0  0  0
   43.1586   13.5791  -14.0840 C   0  0  0  0  0  0  0  0  0  0  0  0
   41.9232   14.0993  -13.6990 C   0  0  0  0  0  0  0  0  0  0  0  0
   46.6449   12.8644  -12.7590 C   0  0  0  0  0  0  0  0  0  0  0  0
   46.2444   13.2335  -11.4971 F   0  0  0  0  0  0  0  0  0  0  0  0
   47.1022   11.5621  -12.8151 F   0  0  0  0  0  0  0  0  0  0  0  0
   47.5918   13.7705  -13.1756 F   0  0  0  0  0  0  0  0  0  0  0  0
   34.7786   13.4596  -13.7507 C   0  0  0  0  0  0  0  0  0  0  0  0
   33.7614   12.5683  -14.0962 C   0  0  0  0  0  0  0  0  0  0  0  0
   33.9086   11.6529  -15.1056 C   0  0  0  0  0  0  0  0  0  0  0  0
   35.0846   11.6049  -15.7992 C   0  0  0  0  0  0  0  0  0  0  0  0
   35.2936   10.4311  -17.1044 Cl  0  0  0  0  0  0  0  0  0  0  0  0
   36.1070   12.4797  -15.4716 C   0  0  0  0  0  0  0  0  0  0  0  0
   35.9651   13.4015  -14.4597 C   0  0  0  0  0  0  0  0  0  0  0  0
   33.3075   15.1674  -12.7886 N   0  0  0  0  0  0  0  0  0  0  0  0
   34.5647   14.4436  -12.6902 C   0  0  0  0  0  0  0  0  0  0  0  0
   35.3466   14.6871  -11.7744 O   0  0  0  0  0  0  0  0  0  0  0  0
   33.1832   15.7245  -13.6454 H   0  0  0  0  0  0  0  0  0  0  0  0
   32.5885   15.1400  -12.0573 H   0  0  0  0  0  0  0  0  0  0  0  0
 28 29  1  0  0  0
 29 30  2  0  0  0
 29 21  1  0  0  0
 21 22  2  0  0  0
 22 23  1  0  0  0
 23 24  2  0  0  0
 24 25  1  0  0  0
 24 26  1  0  0  0
 26 27  2  0  0  0
 27  1  1  0  0  0
  1  2  1  0  0  0
  2  3  2  0  0  0
  2  4  1  0  0  0
  4  7  1  0  0  0
  7  8  2  0  0  0
  8  9  1  0  0  0
  9 10  2  0  0  0
 10 11  1  0  0  0
 11 12  2  0  0  0
 12 13  1  0  0  0
 13 14  2  0  0  0
 14 15  1  0  0  0
 15 16  2  0  0  0
 13 17  1  0  0  0
 17 18  1  0  0  0
 17 19  1  0  0  0
 17 20  1  0  0  0
 27 21  1  0  0  0
 16  7  1  0  0  0
 15 10  1  0  0  0
 28 31  1  0  0  0
 28 32  1  0  0  0
  1  5  1  0  0  0
  4  6  1  0  0  0
M  END
> <minimizedAffinity>
-8.76070

> <CNNscore>
0.3583144546

> <CNNaffinity>
6.1938734055

> <CNN_VS>
2.2193543911

> <CNNaffinity_variance>
0.0608883202

$$$$
[H]c1c([H])c(C(=O)N([H])[H])c(N([H])C(=O)N([H])c2c([H])c([H])c3c([H])c([H])c(C(F)(F)F)c([H])c3c2[H])c([H])c1Cl


 32 34  0  0  0  0  0  0  0  0999 V2000
   43.8220   13.9868  -15.3583 N   0  0  0  0  0  0  0  0  0  0  0  0
   42.5760   13.3249  -15.5355 C   0  0  0  0  0  0  0  0  0  0  0  0
   41.8798   12.8727  -14.5793 O   0  0  0  0  0  0  0  0  0  0  0  0
   42.0091   13.1222  -16.8262 N   0  0  0  0  0  0  0  0  0  0  0  0
   44.3249   14.3050  -16.1996 H   0  0  0  0  0  0  0  0  0  0  0  0
   42.5361   13.4323  -17.6526 H   0  0  0  0  0  0  0  0  0  0  0  0
   40.7208   12.4800  -16.9199 C   0  0  0  0  0  0  0  0  0  0  0  0
   40.5455   11.5454  -17.9394 C   0  0  0  0  0  0  0  0  0  0  0  0
   39.3034   10.9769  -18.0967 C   0  0  0  0  0  0  0  0  0  0  0  0
   38.2353   11.2928  -17.2912 C   0  0  0  0  0  0  0  0  0  0  0  0
   37.0063   10.6993  -17.5245 C   0  0  0  0  0  0  0  0  0  0  0  0
   35.9186   11.0329  -16.7293 C   0  0  0  0  0  0  0  0  0  0  0  0
   36.0745   11.9678  -15.6964 C   0  0  0  0  0  0  0  0  0  0  0  0
   37.3145   12.5137  -15.5235 C   0  0  0  0  0  0  0  0  0  0  0  0
   38.4120   12.2198  -16.2764 C   0  0  0  0  0  0  0  0  0  0  0  0
   39.6723   12.7957  -16.1175 C   0  0  0  0  0  0  0  0  0  0  0  0
   34.8867   12.3074  -14.8676 C   0  0  0  0  0  0  0  0  0  0  0  0
   34.7546   13.6754  -14.8720 F   0  0  0  0  0  0  0  0  0  0  0  0
   33.7981   11.6635  -15.4233 F   0  0  0  0  0  0  0  0  0  0  0  0
   35.1198   11.9169  -13.5698 F   0  0  0  0  0  0  0  0  0  0  0  0
   45.5637   13.5444  -13.6765 C   0  0  0  0  0  0  0  0  0  0  0  0
   45.9965   13.7386  -12.3637 C   0  0  0  0  0  0  0  0  0  0  0  0
   45.3064   14.5265  -11.4797 C   0  0  0  0  0  0  0  0  0  0  0  0
   44.1581   15.1436  -11.8886 C   0  0  0  0  0  0  0  0  0  0  0  0
   43.2538   16.1636  -10.7629 Cl  0  0  0  0  0  0  0  0  0  0  0  0
   43.7108   14.9631  -13.1868 C   0  0  0  0  0  0  0  0  0  0  0  0
   44.3996   14.1740  -14.0792 C   0  0  0  0  0  0  0  0  0  0  0  0
   47.7848   12.7632  -14.3571 N   0  0  0  0  0  0  0  0  0  0  0  0
   46.3511   12.7239  -14.5960 C   0  0  0  0  0  0  0  0  0  0  0  0
   45.8972   12.0457  -15.5145 O   0  0  0  0  0  0  0  0  0  0  0  0
   48.2233   13.6905  -14.4460 H   0  0  0  0  0  0  0  0  0  0  0  0
   48.3352   11.9295  -14.1234 H   0  0  0  0  0  0  0  0  0  0  0  0
 28 29  1  0  0  0
 29 30  2  0  0  0
 29 21  1  0  0  0
 21 22  2  0  0  0
 22 23  1  0  0  0
 23 24  2  0  0  0
 24 25  1  0  0  0
 24 26  1  0  0  0
 26 27  2  0  0  0
 27  1  1  0  0  0
  1  2  1  0  0  0
  2  3  2  0  0  0
  2  4  1  0  0  0
  4  7  1  0  0  0
  7  8  2  0  0  0
  8  9  1  0  0  0
  9 10  2  0  0  0
 10 11  1  0  0  0
 11 12  2  0  0  0
 12 13  1  0  0  0
 13 14  2  0  0  0
 14 15  1  0  0  0
 15 16  2  0  0  0
 13 17  1  0  0  0
 17 18  1  0  0  0
 17 19  1  0  0  0
 17 20  1  0  0  0
 27 21  1  0  0  0
 16  7  1  0  0  0
 15 10  1  0  0  0
 28 31  1  0  0  0
 28 32  1  0  0  0
  1  5  1  0  0  0
  4  6  1  0  0  0
M  END
> <minimizedAffinity>
-9.68980

> <CNNscore>
0.2709697485

> <CNNaffinity>
6.1991972923

> <CNN_VS>
1.6797949076

> <CNNaffinity_variance>
0.0890856832

$$$$
[H]c1c([H])c(C(=O)N([H])[H])c(N([H])C(=O)N([H])c2c([H])c([H])c3c([H])c([H])c(C(F)(F)F)c([H])c3c2[H])c([H])c1Cl


 32 34  0  0  0  0  0  0  0  0999 V2000
   35.2128   14.6946  -14.0388 N   0  0  0  0  0  0  0  0  0  0  0  0
   34.2102   14.5112  -13.0474 C   0  0  0  0  0  0  0  0  0  0  0  0
   34.0918   13.4565  -12.3565 O   0  0  0  0  0  0  0  0  0  0  0  0
   33.2509   15.5215  -12.7520 N   0  0  0  0  0  0  0  0  0  0  0  0
   35.2187   15.5821  -14.5626 H   0  0  0  0  0  0  0  0  0  0  0  0
   33.2645   16.3920  -13.2986 H   0  0  0  0  0  0  0  0  0  0  0  0
   32.2922   15.2757  -11.7024 C   0  0  0  0  0  0  0  0  0  0  0  0
   31.1800   14.4983  -12.0223 C   0  0  0  0  0  0  0  0  0  0  0  0
   30.2144   14.3144  -11.0608 C   0  0  0  0  0  0  0  0  0  0  0  0
   30.3043   14.8641   -9.8041 C   0  0  0  0  0  0  0  0  0  0  0  0
   29.2808   14.6576   -8.8947 C   0  0  0  0  0  0  0  0  0  0  0  0
   29.3554   15.2304   -7.6325 C   0  0  0  0  0  0  0  0  0  0  0  0
   30.4669   16.0126   -7.2896 C   0  0  0  0  0  0  0  0  0  0  0  0
   31.4386   16.1745   -8.2358 C   0  0  0  0  0  0  0  0  0  0  0  0
   31.4119   15.6341   -9.4868 C   0  0  0  0  0  0  0  0  0  0  0  0
   32.3909   15.8199  -10.4627 C   0  0  0  0  0  0  0  0  0  0  0  0
   30.5116   16.6171   -5.9311 C   0  0  0  0  0  0  0  0  0  0  0  0
   29.2392   16.5705   -5.4137 F   0  0  0  0  0  0  0  0  0  0  0  0
   31.4188   15.8896   -5.1853 F   0  0  0  0  0  0  0  0  0  0  0  0
   30.8667   17.9411   -6.0416 F   0  0  0  0  0  0  0  0  0  0  0  0
   37.3815   13.5765  -13.7161 C   0  0  0  0  0  0  0  0  0  0  0  0
   38.2674   12.5942  -14.1621 C   0  0  0  0  0  0  0  0  0  0  0  0
   37.9564   11.7499  -15.1959 C   0  0  0  0  0  0  0  0  0  0  0  0
   36.7440   11.8675  -15.8145 C   0  0  0  0  0  0  0  0  0  0  0  0
   36.3247   10.7879  -17.1500 Cl  0  0  0  0  0  0  0  0  0  0  0  0
   35.8509   12.8363  -15.3881 C   0  0  0  0  0  0  0  0  0  0  0  0
   36.1569   13.6865  -14.3502 C   0  0  0  0  0  0  0  0  0  0  0  0
   38.8342   15.3523  -12.8542 N   0  0  0  0  0  0  0  0  0  0  0  0
   37.7411   14.4320  -12.5858 C   0  0  0  0  0  0  0  0  0  0  0  0
   37.2073   14.4143  -11.4794 O   0  0  0  0  0  0  0  0  0  0  0  0
   39.7317   14.9133  -13.1028 H   0  0  0  0  0  0  0  0  0  0  0  0
   38.7336   16.3715  -12.7953 H   0  0  0  0  0  0  0  0  0  0  0  0
 28 29  1  0  0  0
 29 30  2  0  0  0
 29 21  1  0  0  0
 21 22  2  0  0  0
 22 23  1  0  0  0
 23 24  2  0  0  0
 24 25  1  0  0  0
 24 26  1  0  0  0
 26 27  2  0  0  0
 27  1  1  0  0  0
  1  2  1  0  0  0
  2  3  2  0  0  0
  2  4  1  0  0  0
  4  7  1  0  0  0
  7  8  2  0  0  0
  8  9  1  0  0  0
  9 10  2  0  0  0
 10 11  1  0  0  0
 11 12  2  0  0  0
 12 13  1  0  0  0
 13 14  2  0  0  0
 14 15  1  0  0  0
 15 16  2  0  0  0
 13 17  1  0  0  0
 17 18  1  0  0  0
 17 19  1  0  0  0
 17 20  1  0  0  0
 27 21  1  0  0  0
 16  7  1  0  0  0
 15 10  1  0  0  0
 28 31  1  0  0  0
 28 32  1  0  0  0
  1  5  1  0  0  0
  4  6  1  0  0  0
M  END
> <minimizedAffinity>
-8.59471

> <CNNscore>
0.2361442447

> <CNNaffinity>
5.7461767197

> <CNN_VS>
1.3569265604

> <CNNaffinity_variance>
0.2494318038

$$$$
[H]c1c([H])c(C(=O)N([H])[H])c(N([H])C(=O)N([H])c2c([H])c([H])c3c([H])c([H])c(C(F)(F)F)c([H])c3c2[H])c([H])c1Cl


 32 34  0  0  0  0  0  0  0  0999 V2000
   36.2096   14.9517  -14.0996 N   0  0  0  0  0  0  0  0  0  0  0  0
   36.0668   15.0766  -12.6904 C   0  0  0  0  0  0  0  0  0  0  0  0
   36.3519   14.1534  -11.8719 O   0  0  0  0  0  0  0  0  0  0  0  0
   35.5866   16.2737  -12.0864 N   0  0  0  0  0  0  0  0  0  0  0  0
   35.9348   15.7527  -14.6867 H   0  0  0  0  0  0  0  0  0  0  0  0
   35.3020   17.0541  -12.6921 H   0  0  0  0  0  0  0  0  0  0  0  0
   35.5106   16.3370  -10.6472 C   0  0  0  0  0  0  0  0  0  0  0  0
   34.3530   15.8445  -10.0464 C   0  0  0  0  0  0  0  0  0  0  0  0
   34.2244   15.9641   -8.6826 C   0  0  0  0  0  0  0  0  0  0  0  0
   35.1884   16.5465   -7.8945 C   0  0  0  0  0  0  0  0  0  0  0  0
   34.9793   16.6557   -6.5302 C   0  0  0  0  0  0  0  0  0  0  0  0
   35.9390   17.2646   -5.7332 C   0  0  0  0  0  0  0  0  0  0  0  0
   37.1118   17.7633   -6.3172 C   0  0  0  0  0  0  0  0  0  0  0  0
   37.2514   17.6218   -7.6685 C   0  0  0  0  0  0  0  0  0  0  0  0
   36.3397   17.0329   -8.4930 C   0  0  0  0  0  0  0  0  0  0  0  0
   36.4693   16.9109   -9.8763 C   0  0  0  0  0  0  0  0  0  0  0  0
   38.1162   18.4159   -5.4350 C   0  0  0  0  0  0  0  0  0  0  0  0
   37.7028   19.7089   -5.2205 F   0  0  0  0  0  0  0  0  0  0  0  0
   38.1848   17.6764   -4.2701 F   0  0  0  0  0  0  0  0  0  0  0  0
   39.3226   18.4695   -6.0932 F   0  0  0  0  0  0  0  0  0  0  0  0
   38.0090   13.4540  -14.8590 C   0  0  0  0  0  0  0  0  0  0  0  0
   38.3454   12.2870  -15.5472 C   0  0  0  0  0  0  0  0  0  0  0  0
   37.3933   11.4487  -16.0658 C   0  0  0  0  0  0  0  0  0  0  0  0
   36.0719   11.7584  -15.9090 C   0  0  0  0  0  0  0  0  0  0  0  0
   34.8290   10.6898  -16.5711 Cl  0  0  0  0  0  0  0  0  0  0  0  0
   35.7168   12.9122  -15.2304 C   0  0  0  0  0  0  0  0  0  0  0  0
   36.6680   13.7576  -14.7067 C   0  0  0  0  0  0  0  0  0  0  0  0
   39.1803   14.2148  -12.8451 N   0  0  0  0  0  0  0  0  0  0  0  0
   39.0577   14.3006  -14.2913 C   0  0  0  0  0  0  0  0  0  0  0  0
   39.7966   15.0461  -14.9298 O   0  0  0  0  0  0  0  0  0  0  0  0
   38.3457   14.4971  -12.3124 H   0  0  0  0  0  0  0  0  0  0  0  0
   40.0372   13.9036  -12.3746 H   0  0  0  0  0  0  0  0  0  0  0  0
 28 29  1  0  0  0
 29 30  2  0  0  0
 29 21  1  0  0  0
 21 22  2  0  0  0
 22 23  1  0  0  0
 23 24  2  0  0  0
 24 25  1  0  0  0
 24 26  1  0  0  0
 26 27  2  0  0  0
 27  1  1  0  0  0
  1  2  1  0  0  0
  2  3  2  0  0  0
  2  4  1  0  0  0
  4  7  1  0  0  0
  7  8  2  0  0  0
  8  9  1  0  0  0
  9 10  2  0  0  0
 10 11  1  0  0  0
 11 12  2  0  0  0
 12 13  1  0  0  0
 13 14  2  0  0  0
 14 15  1  0  0  0
 15 16  2  0  0  0
 13 17  1  0  0  0
 17 18  1  0  0  0
 17 19  1  0  0  0
 17 20  1  0  0  0
 27 21  1  0  0  0
 16  7  1  0  0  0
 15 10  1  0  0  0
 28 31  1  0  0  0
 28 32  1  0  0  0
  1  5  1  0  0  0
  4  6  1  0  0  0
M  END
> <minimizedAffinity>
-7.88463

> <CNNscore>
0.2116642892

> <CNNaffinity>
5.5762872696

> <CNN_VS>
1.1803008318

> <CNNaffinity_variance>
0.4231139123

$$$$
[H]c1c([H])c(C(=O)N([H])[H])c(N([H])C(=O)N([H])c2c([H])c([H])c3c([H])c([H])c(C(F)(F)F)c([H])c3c2[H])c([H])c1Cl


 32 34  0  0  0  0  0  0  0  0999 V2000
   35.6177   15.7192  -10.4058 N   0  0  0  0  0  0  0  0  0  0  0  0
   35.6566   14.8024  -11.4920 C   0  0  0  0  0  0  0  0  0  0  0  0
   36.3536   13.7451  -11.4926 O   0  0  0  0  0  0  0  0  0  0  0  0
   34.8969   15.0097  -12.6787 N   0  0  0  0  0  0  0  0  0  0  0  0
   35.0333   16.5622  -10.5048 H   0  0  0  0  0  0  0  0  0  0  0  0
   34.3343   15.8660  -12.7630 H   0  0  0  0  0  0  0  0  0  0  0  0
   34.9571   14.0117  -13.7186 C   0  0  0  0  0  0  0  0  0  0  0  0
   33.8123   13.2464  -13.9366 C   0  0  0  0  0  0  0  0  0  0  0  0
   33.8699   12.2377  -14.8693 C   0  0  0  0  0  0  0  0  0  0  0  0
   35.0061   11.9579  -15.5906 C   0  0  0  0  0  0  0  0  0  0  0  0
   34.9985   10.9098  -16.4953 C   0  0  0  0  0  0  0  0  0  0  0  0
   36.1503   10.6079  -17.2087 C   0  0  0  0  0  0  0  0  0  0  0  0
   37.3111   11.3675  -17.0071 C   0  0  0  0  0  0  0  0  0  0  0  0
   37.2469   12.3859  -16.0992 C   0  0  0  0  0  0  0  0  0  0  0  0
   36.1421   12.7216  -15.3749 C   0  0  0  0  0  0  0  0  0  0  0  0
   36.0827   13.7446  -14.4288 C   0  0  0  0  0  0  0  0  0  0  0  0
   38.5296   11.0126  -17.7831 C   0  0  0  0  0  0  0  0  0  0  0  0
   39.2232   10.0719  -17.0599 F   0  0  0  0  0  0  0  0  0  0  0  0
   38.1129   10.5409  -19.0128 F   0  0  0  0  0  0  0  0  0  0  0  0
   39.3304   12.1252  -17.8929 F   0  0  0  0  0  0  0  0  0  0  0  0
   37.6464   16.0699   -9.0571 C   0  0  0  0  0  0  0  0  0  0  0  0
   38.3458   15.7470   -7.8930 C   0  0  0  0  0  0  0  0  0  0  0  0
   37.8200   14.9202   -6.9346 C   0  0  0  0  0  0  0  0  0  0  0  0
   36.5737   14.3913   -7.1176 C   0  0  0  0  0  0  0  0  0  0  0  0
   35.8786   13.3227   -5.8929 Cl  0  0  0  0  0  0  0  0  0  0  0  0
   35.8635   14.6982   -8.2661 C   0  0  0  0  0  0  0  0  0  0  0  0
   36.3855   15.5282   -9.2317 C   0  0  0  0  0  0  0  0  0  0  0  0
   38.3840   18.3515   -9.5637 N   0  0  0  0  0  0  0  0  0  0  0  0
   38.2318   16.9850  -10.0362 C   0  0  0  0  0  0  0  0  0  0  0  0
   38.5770   16.6846  -11.1764 O   0  0  0  0  0  0  0  0  0  0  0  0
   37.5107   18.8284   -9.2991 H   0  0  0  0  0  0  0  0  0  0  0  0
   39.2930   18.8230   -9.5011 H   0  0  0  0  0  0  0  0  0  0  0  0
 28 29  1  0  0  0
 29 30  2  0  0  0
 29 21  1  0  0  0
 21 22  2  0  0  0
 22 23  1  0  0  0
 23 24  2  0  0  0
 24 25  1  0  0  0
 24 26  1  0  0  0
 26 27  2  0  0  0
 27  1  1  0  0  0
  1  2  1  0  0  0
  2  3  2  0  0  0
  2  4  1  0  0  0
  4  7  1  0  0  0
  7  8  2  0  0  0
  8  9  1  0  0  0
  9 10  2  0  0  0
 10 11  1  0  0  0
 11 12  2  0  0  0
 12 13  1  0  0  0
 13 14  2  0  0  0
 14 15  1  0  0  0
 15 16  2  0  0  0
 13 17  1  0  0  0
 17 18  1  0  0  0
 17 19  1  0  0  0
 17 20  1  0  0  0
 27 21  1  0  0  0
 16  7  1  0  0  0
 15 10  1  0  0  0
 28 31  1  0  0  0
 28 32  1  0  0  0
  1  5  1  0  0  0
  4  6  1  0  0  0
M  END
> <minimizedAffinity>
-9.53588

> <CNNscore>
0.2110909373

> <CNNaffinity>
5.7194128036

> <CNN_VS>
1.2073161602

> <CNNaffinity_variance>
0.2472411096

$$$$
[H]c1c([H])c(C(=O)N([H])[H])c(N([H])C(=O)N([H])c2c([H])c([H])c3c([H])c([H])c(C(F)(F)F)c([H])c3c2[H])c([H])c1Cl


 32 34  0  0  0  0  0  0  0  0999 V2000
   45.3921   13.8112  -15.6829 N   0  0  0  0  0  0  0  0  0  0  0  0
   44.0228   13.6042  -15.3605 C   0  0  0  0  0  0  0  0  0  0  0  0
   43.5800   13.5628  -14.1748 O   0  0  0  0  0  0  0  0  0  0  0  0
   43.0313   13.4286  -16.3677 N   0  0  0  0  0  0  0  0  0  0  0  0
   45.6603   13.8118  -16.6779 H   0  0  0  0  0  0  0  0  0  0  0  0
   43.3237   13.4155  -17.3532 H   0  0  0  0  0  0  0  0  0  0  0  0
   41.6568   13.2664  -15.9608 C   0  0  0  0  0  0  0  0  0  0  0  0
   41.2972   13.7679  -14.7107 C   0  0  0  0  0  0  0  0  0  0  0  0
   40.0124   13.5575  -14.2685 C   0  0  0  0  0  0  0  0  0  0  0  0
   39.0751   12.8762  -15.0081 C   0  0  0  0  0  0  0  0  0  0  0  0
   37.8072   12.6798  -14.4878 C   0  0  0  0  0  0  0  0  0  0  0  0
   36.8645   11.9718  -15.2205 C   0  0  0  0  0  0  0  0  0  0  0  0
   37.2047   11.4622  -16.4813 C   0  0  0  0  0  0  0  0  0  0  0  0
   38.4732   11.6931  -16.9320 C   0  0  0  0  0  0  0  0  0  0  0  0
   39.4335   12.3810  -16.2518 C   0  0  0  0  0  0  0  0  0  0  0  0
   40.7368   12.5952  -16.6996 C   0  0  0  0  0  0  0  0  0  0  0  0
   36.1727   10.7025  -17.2367 C   0  0  0  0  0  0  0  0  0  0  0  0
   35.5972   11.5665  -18.1375 F   0  0  0  0  0  0  0  0  0  0  0  0
   36.8080    9.6386  -17.8474 F   0  0  0  0  0  0  0  0  0  0  0  0
   35.1894   10.2954  -16.3656 F   0  0  0  0  0  0  0  0  0  0  0  0
   46.7668   15.1990  -14.1856 C   0  0  0  0  0  0  0  0  0  0  0  0
   47.8147   15.2392  -13.2642 C   0  0  0  0  0  0  0  0  0  0  0  0
   48.4625   14.1046  -12.8501 C   0  0  0  0  0  0  0  0  0  0  0  0
   48.0768   12.8933  -13.3505 C   0  0  0  0  0  0  0  0  0  0  0  0
   48.9003   11.4186  -12.8287 Cl  0  0  0  0  0  0  0  0  0  0  0  0
   47.0399   12.8316  -14.2664 C   0  0  0  0  0  0  0  0  0  0  0  0
   46.3850   13.9670  -14.6857 C   0  0  0  0  0  0  0  0  0  0  0  0
   46.8597   17.3075  -15.4315 N   0  0  0  0  0  0  0  0  0  0  0  0
   46.0804   16.4312  -14.5719 C   0  0  0  0  0  0  0  0  0  0  0  0
   44.9473   16.7558  -14.2251 O   0  0  0  0  0  0  0  0  0  0  0  0
   47.7412   17.6542  -15.0280 H   0  0  0  0  0  0  0  0  0  0  0  0
   46.5589   17.5766  -16.3748 H   0  0  0  0  0  0  0  0  0  0  0  0
 28 29  1  0  0  0
 29 30  2  0  0  0
 29 21  1  0  0  0
 21 22  2  0  0  0
 22 23  1  0  0  0
 23 24  2  0  0  0
 24 25  1  0  0  0
 24 26  1  0  0  0
 26 27  2  0  0  0
 27  1  1  0  0  0
  1  2  1  0  0  0
  2  3  2  0  0  0
  2  4  1  0  0  0
  4  7  1  0  0  0
  7  8  2  0  0  0
  8  9  1  0  0  0
  9 10  2  0  0  0
 10 11  1  0  0  0
 11 12  2  0  0  0
 12 13  1  0  0  0
 13 14  2  0  0  0
 14 15  1  0  0  0
 15 16  2  0  0  0
 13 17  1  0  0  0
 17 18  1  0  0  0
 17 19  1  0  0  0
 17 20  1  0  0  0
 27 21  1  0  0  0
 16  7  1  0  0  0
 15 10  1  0  0  0
 28 31  1  0  0  0
 28 32  1  0  0  0
  1  5  1  0  0  0
  4  6  1  0  0  0
M  END
> <minimizedAffinity>
-9.23765

> <CNNscore>
0.2109064162

> <CNNaffinity>
5.7783379555

> <CNN_VS>
1.2186886072

> <CNNaffinity_variance>
0.1958727241

$$$$
[H]c1c([H])c(C(=O)N([H])[H])c(N([H])C(=O)N([H])c2c([H])c([H])c3c([H])c([H])c(C(F)(F)F)c([H])c3c2[H])c([H])c1Cl


 32 34  0  0  0  0  0  0  0  0999 V2000
   39.0061   13.9052  -14.4394 N   0  0  0  0  0  0  0  0  0  0  0  0
   38.0098   14.0987  -13.4435 C   0  0  0  0  0  0  0  0  0  0  0  0
   36.9708   13.3819  -13.3423 O   0  0  0  0  0  0  0  0  0  0  0  0
   38.1127   15.1306  -12.4674 N   0  0  0  0  0  0  0  0  0  0  0  0
   39.8089   14.5511  -14.4527 H   0  0  0  0  0  0  0  0  0  0  0  0
   38.9132   15.7743  -12.5099 H   0  0  0  0  0  0  0  0  0  0  0  0
   37.0817   15.2352  -11.4638 C   0  0  0  0  0  0  0  0  0  0  0  0
   35.9820   16.0397  -11.7591 C   0  0  0  0  0  0  0  0  0  0  0  0
   35.0239   16.2165  -10.7889 C   0  0  0  0  0  0  0  0  0  0  0  0
   35.1086   15.6330   -9.5471 C   0  0  0  0  0  0  0  0  0  0  0  0
   34.1185   15.8765   -8.6104 C   0  0  0  0  0  0  0  0  0  0  0  0
   34.2117   15.3091   -7.3470 C   0  0  0  0  0  0  0  0  0  0  0  0
   35.3075   14.4941   -7.0310 C   0  0  0  0  0  0  0  0  0  0  0  0
   36.2467   14.2975   -8.0030 C   0  0  0  0  0  0  0  0  0  0  0  0
   36.2009   14.8313   -9.2563 C   0  0  0  0  0  0  0  0  0  0  0  0
   37.1721   14.6524  -10.2411 C   0  0  0  0  0  0  0  0  0  0  0  0
   35.3795   13.9075   -5.6658 C   0  0  0  0  0  0  0  0  0  0  0  0
   35.9967   14.8263   -4.8510 F   0  0  0  0  0  0  0  0  0  0  0  0
   34.0866   13.6250   -5.2693 F   0  0  0  0  0  0  0  0  0  0  0  0
   36.1733   12.7852   -5.7019 F   0  0  0  0  0  0  0  0  0  0  0  0
   39.9845   12.4165  -16.1378 C   0  0  0  0  0  0  0  0  0  0  0  0
   39.7492   11.4768  -17.1428 C   0  0  0  0  0  0  0  0  0  0  0  0
   38.4890   11.0228  -17.4331 C   0  0  0  0  0  0  0  0  0  0  0  0
   37.4251   11.5005  -16.7216 C   0  0  0  0  0  0  0  0  0  0  0  0
   35.7920   10.9273  -17.0814 Cl  0  0  0  0  0  0  0  0  0  0  0  0
   37.6367   12.4342  -15.7208 C   0  0  0  0  0  0  0  0  0  0  0  0
   38.8996   12.8934  -15.4241 C   0  0  0  0  0  0  0  0  0  0  0  0
   42.2922   12.6523  -16.9284 N   0  0  0  0  0  0  0  0  0  0  0  0
   41.3500   12.8458  -15.8382 C   0  0  0  0  0  0  0  0  0  0  0  0
   41.7291   13.3276  -14.7735 O   0  0  0  0  0  0  0  0  0  0  0  0
   42.4213   11.6777  -17.2344 H   0  0  0  0  0  0  0  0  0  0  0  0
   42.8063   13.4247  -17.3663 H   0  0  0  0  0  0  0  0  0  0  0  0
 28 29  1  0  0  0
 29 30  2  0  0  0
 29 21  1  0  0  0
 21 22  2  0  0  0
 22 23  1  0  0  0
 23 24  2  0  0  0
 24 25  1  0  0  0
 24 26  1  0  0  0
 26 27  2  0  0  0
 27  1  1  0  0  0
  1  2  1  0  0  0
  2  3  2  0  0  0
  2  4  1  0  0  0
  4  7  1  0  0  0
  7  8  2  0  0  0
  8  9  1  0  0  0
  9 10  2  0  0  0
 10 11  1  0  0  0
 11 12  2  0  0  0
 12 13  1  0  0  0
 13 14  2  0  0  0
 14 15  1  0  0  0
 15 16  2  0  0  0
 13 17  1  0  0  0
 17 18  1  0  0  0
 17 19  1  0  0  0
 17 20  1  0  0  0
 27 21  1  0  0  0
 16  7  1  0  0  0
 15 10  1  0  0  0
 28 31  1  0  0  0
 28 32  1  0  0  0
  1  5  1  0  0  0
  4  6  1  0  0  0
M  END
> <minimizedAffinity>
-8.80220

> <CNNscore>
0.2091982514

> <CNNaffinity>
5.6910767555

> <CNN_VS>
1.1905633211

> <CNNaffinity_variance>
0.3473648429

$$$$
[H]c1c([H])c(C(=O)N([H])[H])c(N([H])C(=O)N([H])c2c([H])c([H])c3c([H])c([H])c(C(F)(F)F)c([H])c3c2[H])c([H])c1Cl


 32 34  0  0  0  0  0  0  0  0999 V2000
   43.4040   14.1866  -14.7505 N   0  0  0  0  0  0  0  0  0  0  0  0
   42.2170   13.4626  -15.0482 C   0  0  0  0  0  0  0  0  0  0  0  0
   41.5629   12.8035  -14.1871 O   0  0  0  0  0  0  0  0  0  0  0  0
   41.6659   13.4290  -16.3610 N   0  0  0  0  0  0  0  0  0  0  0  0
   43.8769   14.6791  -15.5224 H   0  0  0  0  0  0  0  0  0  0  0  0
   42.1635   13.9131  -17.1193 H   0  0  0  0  0  0  0  0  0  0  0  0
   40.4352   12.7071  -16.5736 C   0  0  0  0  0  0  0  0  0  0  0  0
   40.3867   11.8325  -17.6582 C   0  0  0  0  0  0  0  0  0  0  0  0
   39.2002   11.1914  -17.9266 C   0  0  0  0  0  0  0  0  0  0  0  0
   38.0678   11.3787  -17.1702 C   0  0  0  0  0  0  0  0  0  0  0  0
   36.9006   10.7186  -17.5152 C   0  0  0  0  0  0  0  0  0  0  0  0
   35.7480   10.9229  -16.7690 C   0  0  0  0  0  0  0  0  0  0  0  0
   35.7764   11.7954  -15.6723 C   0  0  0  0  0  0  0  0  0  0  0  0
   36.9615   12.4129  -15.3898 C   0  0  0  0  0  0  0  0  0  0  0  0
   38.1186   12.2461  -16.0907 C   0  0  0  0  0  0  0  0  0  0  0  0
   39.3226   12.8957  -15.8191 C   0  0  0  0  0  0  0  0  0  0  0  0
   34.5219   11.9964  -14.8985 C   0  0  0  0  0  0  0  0  0  0  0  0
   34.1092   13.2910  -15.1054 F   0  0  0  0  0  0  0  0  0  0  0  0
   33.6060   11.0651  -15.3483 F   0  0  0  0  0  0  0  0  0  0  0  0
   34.7953   11.8570  -13.5580 F   0  0  0  0  0  0  0  0  0  0  0  0
   43.4970   15.0230  -12.4376 C   0  0  0  0  0  0  0  0  0  0  0  0
   44.1818   15.0215  -11.2213 C   0  0  0  0  0  0  0  0  0  0  0  0
   45.2902   14.2429  -11.0119 C   0  0  0  0  0  0  0  0  0  0  0  0
   45.7452   13.4414  -12.0204 C   0  0  0  0  0  0  0  0  0  0  0  0
   47.1733   12.4301  -11.7697 Cl  0  0  0  0  0  0  0  0  0  0  0  0
   45.0807   13.4289  -13.2354 C   0  0  0  0  0  0  0  0  0  0  0  0
   43.9670   14.2077  -13.4516 C   0  0  0  0  0  0  0  0  0  0  0  0
   41.0669   15.2002  -12.1735 N   0  0  0  0  0  0  0  0  0  0  0  0
   42.2977   15.8430  -12.6047 C   0  0  0  0  0  0  0  0  0  0  0  0
   42.2695   16.9796  -13.0703 O   0  0  0  0  0  0  0  0  0  0  0  0
   40.8219   14.3332  -12.6720 H   0  0  0  0  0  0  0  0  0  0  0  0
   40.4697   15.5786  -11.4300 H   0  0  0  0  0  0  0  0  0  0  0  0
 28 29  1  0  0  0
 29 30  2  0  0  0
 29 21  1  0  0  0
 21 22  2  0  0  0
 22 23  1  0  0  0
 23 24  2  0  0  0
 24 25  1  0  0  0
 24 26  1  0  0  0
 26 27  2  0  0  0
 27  1  1  0  0  0
  1  2  1  0  0  0
  2  3  2  0  0  0
  2  4  1  0  0  0
  4  7  1  0  0  0
  7  8  2  0  0  0
  8  9  1  0  0  0
  9 10  2  0  0  0
 10 11  1  0  0  0
 11 12  2  0  0  0
 12 13  1  0  0  0
 13 14  2  0  0  0
 14 15  1  0  0  0
 15 16  2  0  0  0
 13 17  1  0  0  0
 17 18  1  0  0  0
 17 19  1  0  0  0
 17 20  1  0  0  0
 27 21  1  0  0  0
 16  7  1  0  0  0
 15 10  1  0  0  0
 28 31  1  0  0  0
 28 32  1  0  0  0
  1  5  1  0  0  0
  4  6  1  0  0  0
M  END
> <minimizedAffinity>
-8.90160

> <CNNscore>
0.2007855177

> <CNNaffinity>
6.0475516319

> <CNN_VS>
1.2142608166

> <CNNaffinity_variance>
0.2512699962

$$$$
[H]c1c([H])c(C(=O)N([H])[H])c(N([H])C(=O)N([H])c2c([H])c([H])c3c([H])c([H])c(C(F)(F)F)c([H])c3c2[H])c([H])c1Cl


 32 34  0  0  0  0  0  0  0  0999 V2000
   43.4056   13.5834  -15.1580 N   0  0  0  0  0  0  0  0  0  0  0  0
   42.0137   13.5409  -14.8709 C   0  0  0  0  0  0  0  0  0  0  0  0
   41.5330   13.6783  -13.7074 O   0  0  0  0  0  0  0  0  0  0  0  0
   41.0411   13.3405  -15.8918 N   0  0  0  0  0  0  0  0  0  0  0  0
   43.7028   13.4437  -16.1348 H   0  0  0  0  0  0  0  0  0  0  0  0
   41.3607   13.1862  -16.8567 H   0  0  0  0  0  0  0  0  0  0  0  0
   39.6456   13.3527  -15.5262 C   0  0  0  0  0  0  0  0  0  0  0  0
   39.2609   14.2176  -14.5027 C   0  0  0  0  0  0  0  0  0  0  0  0
   37.9513   14.1915  -14.0844 C   0  0  0  0  0  0  0  0  0  0  0  0
   37.0132   13.3507  -14.6344 C   0  0  0  0  0  0  0  0  0  0  0  0
   35.7180   13.3608  -14.1451 C   0  0  0  0  0  0  0  0  0  0  0  0
   34.7729   12.4967  -14.6807 C   0  0  0  0  0  0  0  0  0  0  0  0
   35.1383   11.6216  -15.7131 C   0  0  0  0  0  0  0  0  0  0  0  0
   36.4329   11.6652  -16.1464 C   0  0  0  0  0  0  0  0  0  0  0  0
   37.3966   12.4938  -15.6538 C   0  0  0  0  0  0  0  0  0  0  0  0
   38.7251   12.5212  -16.0775 C   0  0  0  0  0  0  0  0  0  0  0  0
   34.1025   10.7044  -16.2595 C   0  0  0  0  0  0  0  0  0  0  0  0
   33.4234   11.3834  -17.2428 F   0  0  0  0  0  0  0  0  0  0  0  0
   34.7541    9.5835  -16.7365 F   0  0  0  0  0  0  0  0  0  0  0  0
   33.2016   10.4031  -15.2651 F   0  0  0  0  0  0  0  0  0  0  0  0
   45.7034   13.3967  -14.2959 C   0  0  0  0  0  0  0  0  0  0  0  0
   46.5559   13.5439  -13.2004 C   0  0  0  0  0  0  0  0  0  0  0  0
   46.1172   14.0358  -11.9987 C   0  0  0  0  0  0  0  0  0  0  0  0
   44.8062   14.3946  -11.8609 C   0  0  0  0  0  0  0  0  0  0  0  0
   44.2213   15.0308  -10.3188 Cl  0  0  0  0  0  0  0  0  0  0  0  0
   43.9435   14.2555  -12.9353 C   0  0  0  0  0  0  0  0  0  0  0  0
   44.3780   13.7630  -14.1446 C   0  0  0  0  0  0  0  0  0  0  0  0
   47.4753   13.5121  -15.9852 N   0  0  0  0  0  0  0  0  0  0  0  0
   46.2230   12.9012  -15.5700 C   0  0  0  0  0  0  0  0  0  0  0  0
   45.6880   12.0500  -16.2762 O   0  0  0  0  0  0  0  0  0  0  0  0
   47.4438   14.5307  -16.1322 H   0  0  0  0  0  0  0  0  0  0  0  0
   48.3368   12.9750  -16.1333 H   0  0  0  0  0  0  0  0  0  0  0  0
 28 29  1  0  0  0
 29 30  2  0  0  0
 29 21  1  0  0  0
 21 22  2  0  0  0
 22 23  1  0  0  0
 23 24  2  0  0  0
 24 25  1  0  0  0
 24 26  1  0  0  0
 26 27  2  0  0  0
 27  1  1  0  0  0
  1  2  1  0  0  0
  2  3  2  0  0  0
  2  4  1  0  0  0
  4  7  1  0  0  0
  7  8  2  0  0  0
  8  9  1  0  0  0
  9 10  2  0  0  0
 10 11  1  0  0  0
 11 12  2  0  0  0
 12 13  1  0  0  0
 13 14  2  0  0  0
 14 15  1  0  0  0
 15 16  2  0  0  0
 13 17  1  0  0  0
 17 18  1  0  0  0
 17 19  1  0  0  0
 17 20  1  0  0  0
 27 21  1  0  0  0
 16  7  1  0  0  0
 15 10  1  0  0  0
 28 31  1  0  0  0
 28 32  1  0  0  0
  1  5  1  0  0  0
  4  6  1  0  0  0
M  END
> <minimizedAffinity>
-8.83784

> <CNNscore>
0.1912356466

> <CNNaffinity>
6.0625739098

> <CNN_VS>
1.1593801975

> <CNNaffinity_variance>
0.1840877980

$$$$
[H]O[C@@]([H])(C([H])([H])[H])[C@]([H])(Oc1c([H])c([H])c([H])c([H])c1[H])c1c([H])c([H])c2c(c1[H])c(C([H])([H])C([H])([H])C([H])([H])c1c([H])sc([H])c1[H])c([H])n2[H]


 30 33  0  0  0  0  0  0  0  0999 V2000
   38.7867   15.1345  -12.7413 C   0  0  0  0  0  0  0  0  0  0  0  0
   39.3411   15.9719  -11.7631 C   0  0  0  0  0  0  0  0  0  0  0  0
   40.6914   16.1414  -11.5983 C   0  0  0  0  0  0  0  0  0  0  0  0
   41.5456   15.4368  -12.4548 C   0  0  0  0  0  0  0  0  0  0  0  0
   42.8792   15.3764  -12.5412 N   0  0  0  0  0  0  0  0  0  0  0  0
   43.2054   14.5188  -13.5495 C   0  0  0  0  0  0  0  0  0  0  0  0
   42.0755   14.0167  -14.1259 C   0  0  0  0  0  0  0  0  0  0  0  0
   41.0150   14.6170  -13.4125 C   0  0  0  0  0  0  0  0  0  0  0  0
   39.6343   14.4612  -13.5623 C   0  0  0  0  0  0  0  0  0  0  0  0
   43.5535   15.8968  -11.9357 H   0  0  0  0  0  0  0  0  0  0  0  0
   37.2951   15.0644  -12.7662 C   0  0  0  0  0  0  0  0  0  0  0  0
   36.2025   14.6385  -10.5140 C   0  0  0  0  0  0  0  0  0  0  0  0
   36.6689   15.6442  -11.4884 C   0  0  0  0  0  0  0  0  0  0  0  0
   35.7859   16.6867  -11.7711 O   0  0  0  0  0  0  0  0  0  0  0  0
   36.2303   17.5560  -11.9103 H   0  0  0  0  0  0  0  0  0  0  0  0
   36.9318   13.6927  -12.7216 O   0  0  0  0  0  0  0  0  0  0  0  0
   36.0408   13.0660  -13.5794 C   0  0  0  0  0  0  0  0  0  0  0  0
   36.4736   12.7440  -14.8556 C   0  0  0  0  0  0  0  0  0  0  0  0
   35.7031   12.1249  -15.8019 C   0  0  0  0  0  0  0  0  0  0  0  0
   34.3918   11.7917  -15.4666 C   0  0  0  0  0  0  0  0  0  0  0  0
   33.9457   12.1062  -14.2006 C   0  0  0  0  0  0  0  0  0  0  0  0
   34.7467   12.7382  -13.2491 C   0  0  0  0  0  0  0  0  0  0  0  0
   41.8083   13.0878  -15.2216 C   0  0  0  0  0  0  0  0  0  0  0  0
   40.5767   13.1673  -16.0018 C   0  0  0  0  0  0  0  0  0  0  0  0
   39.5830   12.0655  -15.9225 C   0  0  0  0  0  0  0  0  0  0  0  0
   39.2829   11.5647  -17.3343 C   0  0  0  0  0  0  0  0  0  0  0  0
   40.1646   11.6981  -18.3323 C   0  0  0  0  0  0  0  0  0  0  0  0
   39.8176   11.1811  -19.5571 C   0  0  0  0  0  0  0  0  0  0  0  0
   38.2692   10.5269  -19.2687 S   0  0  0  0  0  0  0  0  0  0  0  0
   38.1066   10.9235  -17.6187 C   0  0  0  0  0  0  0  0  0  0  0  0
 12 13  1  0  0  0
 13 14  1  0  0  0
 13 11  1  0  0  0
 11 16  1  0  0  0
 16 17  1  0  0  0
 17 18  2  0  0  0
 18 19  1  0  0  0
 19 20  2  0  0  0
 20 21  1  0  0  0
 21 22  2  0  0  0
 11  1  1  0  0  0
  1  2  2  0  0  0
  2  3  1  0  0  0
  3  4  2  0  0  0
  4  5  1  0  0  0
  5  6  1  0  0  0
  6  7  2  0  0  0
  7 23  1  0  0  0
 23 24  1  0  0  0
 24 25  1  0  0  0
 25 26  1  0  0  0
 26 27  1  0  0  0
 27 28  2  0  0  0
 28 29  1  0  0  0
 29 30  1  0  0  0
  7  8  1  0  0  0
  8  9  2  0  0  0
 22 17  1  0  0  0
  9  1  1  0  0  0
  8  4  1  0  0  0
 30 26  2  0  0  0
 14 15  1  0  0  0
  5 10  1  0  0  0
M  END
> <minimizedAffinity>
-7.73135

> <CNNscore>
0.5292322636

> <CNNaffinity>
6.8901734352

> <CNN_VS>
3.6465020180

> <CNNaffinity_variance>
0.1111120731

$$$$
[H]O[C@@]([H])(C([H])([H])[H])[C@]([H])(Oc1c([H])c([H])c([H])c([H])c1[H])c1c([H])c([H])c2c(c1[H])c(C([H])([H])C([H])([H])C([H])([H])c1c([H])sc([H])c1[H])c([H])n2[H]


 30 33  0  0  0  0  0  0  0  0999 V2000
   39.7292   13.3557  -15.1585 C   0  0  0  0  0  0  0  0  0  0  0  0
   39.6147   12.6855  -16.3846 C   0  0  0  0  0  0  0  0  0  0  0  0
   40.6965   12.2503  -17.1054 C   0  0  0  0  0  0  0  0  0  0  0  0
   41.9706   12.4950  -16.5797 C   0  0  0  0  0  0  0  0  0  0  0  0
   43.1975   12.2162  -17.0347 N   0  0  0  0  0  0  0  0  0  0  0  0
   44.1063   12.6905  -16.1360 C   0  0  0  0  0  0  0  0  0  0  0  0
   43.4671   13.2824  -15.0862 C   0  0  0  0  0  0  0  0  0  0  0  0
   42.0934   13.1482  -15.3843 C   0  0  0  0  0  0  0  0  0  0  0  0
   40.9753   13.5815  -14.6666 C   0  0  0  0  0  0  0  0  0  0  0  0
   43.4184   11.7215  -17.9283 H   0  0  0  0  0  0  0  0  0  0  0  0
   38.4427   13.7662  -14.5206 C   0  0  0  0  0  0  0  0  0  0  0  0
   37.5622   14.2747  -12.1940 C   0  0  0  0  0  0  0  0  0  0  0  0
   38.6642   14.4461  -13.1607 C   0  0  0  0  0  0  0  0  0  0  0  0
   39.1648   15.7405  -13.3039 O   0  0  0  0  0  0  0  0  0  0  0  0
   40.1401   15.7751  -13.4449 H   0  0  0  0  0  0  0  0  0  0  0  0
   37.7341   12.5816  -14.1886 O   0  0  0  0  0  0  0  0  0  0  0  0
   36.5014   12.2085  -14.7018 C   0  0  0  0  0  0  0  0  0  0  0  0
   36.4597   11.6454  -15.9671 C   0  0  0  0  0  0  0  0  0  0  0  0
   35.3157   11.2314  -16.5936 C   0  0  0  0  0  0  0  0  0  0  0  0
   34.1054   11.3827  -15.9191 C   0  0  0  0  0  0  0  0  0  0  0  0
   34.1300   11.9421  -14.6593 C   0  0  0  0  0  0  0  0  0  0  0  0
   35.3070   12.3586  -14.0369 C   0  0  0  0  0  0  0  0  0  0  0  0
   43.9048   13.9414  -13.8578 C   0  0  0  0  0  0  0  0  0  0  0  0
   44.2919   13.1716  -12.6791 C   0  0  0  0  0  0  0  0  0  0  0  0
   45.7020   13.2006  -12.2116 C   0  0  0  0  0  0  0  0  0  0  0  0
   45.9960   11.9155  -11.4397 C   0  0  0  0  0  0  0  0  0  0  0  0
   46.5661   10.8557  -12.0254 C   0  0  0  0  0  0  0  0  0  0  0  0
   46.8252    9.7602  -11.2375 C   0  0  0  0  0  0  0  0  0  0  0  0
   46.2612   10.2520   -9.7050 S   0  0  0  0  0  0  0  0  0  0  0  0
   45.7178   11.8183  -10.1022 C   0  0  0  0  0  0  0  0  0  0  0  0
 12 13  1  0  0  0
 13 14  1  0  0  0
 13 11  1  0  0  0
 11 16  1  0  0  0
 16 17  1  0  0  0
 17 18  2  0  0  0
 18 19  1  0  0  0
 19 20  2  0  0  0
 20 21  1  0  0  0
 21 22  2  0  0  0
 11  1  1  0  0  0
  1  2  2  0  0  0
  2  3  1  0  0  0
  3  4  2  0  0  0
  4  5  1  0  0  0
  5  6  1  0  0  0
  6  7  2  0  0  0
  7 23  1  0  0  0
 23 24  1  0  0  0
 24 25  1  0  0  0
 25 26  1  0  0  0
 26 27  1  0  0  0
 27 28  2  0  0  0
 28 29  1  0  0  0
 29 30  1  0  0  0
  7  8  1  0  0  0
  8  9  2  0  0  0
 22 17  1  0  0  0
  9  1  1  0  0  0
  8  4  1  0  0  0
 30 26  2  0  0  0
 14 15  1  0  0  0
  5 10  1  0  0  0
M  END
> <minimizedAffinity>
-7.98981

> <CNNscore>
0.4251317382

> <CNNaffinity>
6.4903502464

> <CNN_VS>
2.7592539787

> <CNNaffinity_variance>
0.0429764241

$$$$
[H]O[C@@]([H])(C([H])([H])[H])[C@]([H])(Oc1c([H])c([H])c([H])c([H])c1[H])c1c([H])c([H])c2c(c1[H])c(C([H])([H])C([H])([H])C([H])([H])c1c([H])sc([H])c1[H])c([H])n2[H]


 30 33  0  0  0  0  0  0  0  0999 V2000
   35.8008   12.2156  -15.3738 C   0  0  0  0  0  0  0  0  0  0  0  0
   34.8220   12.0688  -14.3810 C   0  0  0  0  0  0  0  0  0  0  0  0
   34.9234   12.6374  -13.1377 C   0  0  0  0  0  0  0  0  0  0  0  0
   36.0657   13.3975  -12.8603 C   0  0  0  0  0  0  0  0  0  0  0  0
   36.4611   14.0556  -11.7647 N   0  0  0  0  0  0  0  0  0  0  0  0
   37.6735   14.6244  -12.0200 C   0  0  0  0  0  0  0  0  0  0  0  0
   38.0715   14.3358  -13.2925 C   0  0  0  0  0  0  0  0  0  0  0  0
   37.0268   13.5469  -13.8220 C   0  0  0  0  0  0  0  0  0  0  0  0
   36.9006   12.9584  -15.0833 C   0  0  0  0  0  0  0  0  0  0  0  0
   35.9302   14.1187  -10.8667 H   0  0  0  0  0  0  0  0  0  0  0  0
   35.5267   11.5153  -16.6642 C   0  0  0  0  0  0  0  0  0  0  0  0
   34.5014    9.1924  -16.6572 C   0  0  0  0  0  0  0  0  0  0  0  0
   34.2610   10.6471  -16.5918 C   0  0  0  0  0  0  0  0  0  0  0  0
   33.2450   11.1430  -17.4094 O   0  0  0  0  0  0  0  0  0  0  0  0
   32.7281   11.8758  -16.9992 H   0  0  0  0  0  0  0  0  0  0  0  0
   36.5669   10.5704  -16.8660 O   0  0  0  0  0  0  0  0  0  0  0  0
   37.7132   10.7809  -17.6170 C   0  0  0  0  0  0  0  0  0  0  0  0
   37.6143   10.7200  -18.9977 C   0  0  0  0  0  0  0  0  0  0  0  0
   38.6613   10.9085  -19.8585 C   0  0  0  0  0  0  0  0  0  0  0  0
   39.9163   11.1813  -19.3171 C   0  0  0  0  0  0  0  0  0  0  0  0
   40.0313   11.2446  -17.9447 C   0  0  0  0  0  0  0  0  0  0  0  0
   38.9517   11.0492  -17.0830 C   0  0  0  0  0  0  0  0  0  0  0  0
   39.2418   14.6676  -14.1018 C   0  0  0  0  0  0  0  0  0  0  0  0
   40.4080   13.7902  -14.1468 C   0  0  0  0  0  0  0  0  0  0  0  0
   41.0293   13.4585  -15.4552 C   0  0  0  0  0  0  0  0  0  0  0  0
   42.5337   13.2784  -15.2592 C   0  0  0  0  0  0  0  0  0  0  0  0
   43.3008   12.6936  -16.1871 C   0  0  0  0  0  0  0  0  0  0  0  0
   44.6490   12.6128  -15.9347 C   0  0  0  0  0  0  0  0  0  0  0  0
   44.7953   13.3577  -14.4076 S   0  0  0  0  0  0  0  0  0  0  0  0
   43.1583   13.7472  -14.1342 C   0  0  0  0  0  0  0  0  0  0  0  0
 12 13  1  0  0  0
 13 14  1  0  0  0
 13 11  1  0  0  0
 11 16  1  0  0  0
 16 17  1  0  0  0
 17 18  2  0  0  0
 18 19  1  0  0  0
 19 20  2  0  0  0
 20 21  1  0  0  0
 21 22  2  0  0  0
 11  1  1  0  0  0
  1  2  2  0  0  0
  2  3  1  0  0  0
  3  4  2  0  0  0
  4  5  1  0  0  0
  5  6  1  0  0  0
  6  7  2  0  0  0
  7 23  1  0  0  0
 23 24  1  0  0  0
 24 25  1  0  0  0
 25 26  1  0  0  0
 26 27  1  0  0  0
 27 28  2  0  0  0
 28 29  1  0  0  0
 29 30  1  0  0  0
  7  8  1  0  0  0
  8  9  2  0  0  0
 22 17  1  0  0  0
  9  1  1  0  0  0
  8  4  1  0  0  0
 30 26  2  0  0  0
 14 15  1  0  0  0
  5 10  1  0  0  0
M  END
> <minimizedAffinity>
-8.51307

> <CNNscore>
0.4225604534

> <CNNaffinity>
7.0622963905

> <CNN_VS>
2.9842472076

> <CNNaffinity_variance>
0.1252034903

$$$$
[H]O[C@@]([H])(C([H])([H])[H])[C@]([H])(Oc1c([H])c([H])c([H])c([H])c1[H])c1c([H])c([H])c2c(c1[H])c(C([H])([H])C([H])([H])C([H])([H])c1c([H])sc([H])c1[H])c([H])n2[H]


 30 33  0  0  0  0  0  0  0  0999 V2000
   39.2179   13.3450  -14.9612 C   0  0  0  0  0  0  0  0  0  0  0  0
   39.2741   12.8503  -16.2717 C   0  0  0  0  0  0  0  0  0  0  0  0
   40.4504   12.5752  -16.9199 C   0  0  0  0  0  0  0  0  0  0  0  0
   41.6449   12.8056  -16.2274 C   0  0  0  0  0  0  0  0  0  0  0  0
   42.9276   12.6547  -16.5765 N   0  0  0  0  0  0  0  0  0  0  0  0
   43.7063   13.0413  -15.5263 C   0  0  0  0  0  0  0  0  0  0  0  0
   42.9253   13.4465  -14.4838 C   0  0  0  0  0  0  0  0  0  0  0  0
   41.6012   13.2883  -14.9484 C   0  0  0  0  0  0  0  0  0  0  0  0
   40.3894   13.5601  -14.3076 C   0  0  0  0  0  0  0  0  0  0  0  0
   43.2711   12.3030  -17.4987 H   0  0  0  0  0  0  0  0  0  0  0  0
   37.8486   13.5972  -14.4208 C   0  0  0  0  0  0  0  0  0  0  0  0
   36.8207   13.5488  -12.0996 C   0  0  0  0  0  0  0  0  0  0  0  0
   37.8844   14.0921  -12.9666 C   0  0  0  0  0  0  0  0  0  0  0  0
   38.0989   15.4687  -12.8928 O   0  0  0  0  0  0  0  0  0  0  0  0
   39.0474   15.7269  -12.9712 H   0  0  0  0  0  0  0  0  0  0  0  0
   37.1886   12.3436  -14.3293 O   0  0  0  0  0  0  0  0  0  0  0  0
   36.1329   11.9279  -15.1261 C   0  0  0  0  0  0  0  0  0  0  0  0
   34.8434   12.0929  -14.6467 C   0  0  0  0  0  0  0  0  0  0  0  0
   33.7120   11.7300  -15.3256 C   0  0  0  0  0  0  0  0  0  0  0  0
   33.8584   11.1546  -16.5866 C   0  0  0  0  0  0  0  0  0  0  0  0
   35.1352   10.9828  -17.0775 C   0  0  0  0  0  0  0  0  0  0  0  0
   36.2771   11.3592  -16.3699 C   0  0  0  0  0  0  0  0  0  0  0  0
   43.1903   13.9457  -13.1365 C   0  0  0  0  0  0  0  0  0  0  0  0
   44.3576   13.5043  -12.3786 C   0  0  0  0  0  0  0  0  0  0  0  0
   44.1976   12.4886  -11.3060 C   0  0  0  0  0  0  0  0  0  0  0  0
   44.3949   13.1632   -9.9496 C   0  0  0  0  0  0  0  0  0  0  0  0
   43.3706   13.3873   -9.1177 C   0  0  0  0  0  0  0  0  0  0  0  0
   43.6554   13.9651   -7.9041 C   0  0  0  0  0  0  0  0  0  0  0  0
   45.3466   14.1749   -7.9704 S   0  0  0  0  0  0  0  0  0  0  0  0
   45.6426   13.5301   -9.5206 C   0  0  0  0  0  0  0  0  0  0  0  0
 12 13  1  0  0  0
 13 14  1  0  0  0
 13 11  1  0  0  0
 11 16  1  0  0  0
 16 17  1  0  0  0
 17 18  2  0  0  0
 18 19  1  0  0  0
 19 20  2  0  0  0
 20 21  1  0  0  0
 21 22  2  0  0  0
 11  1  1  0  0  0
  1  2  2  0  0  0
  2  3  1  0  0  0
  3  4  2  0  0  0
  4  5  1  0  0  0
  5  6  1  0  0  0
  6  7  2  0  0  0
  7 23  1  0  0  0
 23 24  1  0  0  0
 24 25  1  0  0  0
 25 26  1  0  0  0
 26 27  1  0  0  0
 27 28  2  0  0  0
 28 29  1  0  0  0
 29 30  1  0  0  0
  7  8  1  0  0  0
  8  9  2  0  0  0
 22 17  1  0  0  0
  9  1  1  0  0  0
  8  4  1  0  0  0
 30 26  2  0  0  0
 14 15  1  0  0  0
  5 10  1  0  0  0
M  END
> <minimizedAffinity>
-7.59450

> <CNNscore>
0.3778170645

> <CNNaffinity>
6.3797664642

> <CNN_VS>
2.4103846550

> <CNNaffinity_variance>
0.0539461449

$$$$
[H]O[C@@]([H])(C([H])([H])[H])[C@]([H])(Oc1c([H])c([H])c([H])c([H])c1[H])c1c([H])c([H])c2c(c1[H])c(C([H])([H])C([H])([H])C([H])([H])c1c([H])sc([H])c1[H])c([H])n2[H]


 30 33  0  0  0  0  0  0  0  0999 V2000
   35.1060   12.5623  -15.2284 C   0  0  0  0  0  0  0  0  0  0  0  0
   33.8021   12.7315  -14.7420 C   0  0  0  0  0  0  0  0  0  0  0  0
   33.5114   13.4423  -13.6064 C   0  0  0  0  0  0  0  0  0  0  0  0
   34.5785   14.0203  -12.9088 C   0  0  0  0  0  0  0  0  0  0  0  0
   34.6283   14.7456  -11.7857 N   0  0  0  0  0  0  0  0  0  0  0  0
   35.9321   15.0500  -11.5290 C   0  0  0  0  0  0  0  0  0  0  0  0
   36.7390   14.5198  -12.4927 C   0  0  0  0  0  0  0  0  0  0  0  0
   35.8546   13.8611  -13.3747 C   0  0  0  0  0  0  0  0  0  0  0  0
   36.1263   13.1328  -14.5362 C   0  0  0  0  0  0  0  0  0  0  0  0
   33.8063   15.0270  -11.2049 H   0  0  0  0  0  0  0  0  0  0  0  0
   35.2337   11.7470  -16.4733 C   0  0  0  0  0  0  0  0  0  0  0  0
   34.5907    9.2928  -16.5767 C   0  0  0  0  0  0  0  0  0  0  0  0
   34.1222   10.6924  -16.5887 C   0  0  0  0  0  0  0  0  0  0  0  0
   33.1931   11.0246  -17.5750 O   0  0  0  0  0  0  0  0  0  0  0  0
   32.5086   11.6677  -17.2744 H   0  0  0  0  0  0  0  0  0  0  0  0
   36.4170   10.9715  -16.3557 O   0  0  0  0  0  0  0  0  0  0  0  0
   37.5388   11.0844  -17.1626 C   0  0  0  0  0  0  0  0  0  0  0  0
   38.6645   11.7006  -16.6402 C   0  0  0  0  0  0  0  0  0  0  0  0
   39.8375   11.8783  -17.3222 C   0  0  0  0  0  0  0  0  0  0  0  0
   39.9132   11.4096  -18.6327 C   0  0  0  0  0  0  0  0  0  0  0  0
   38.8012   10.7946  -19.1674 C   0  0  0  0  0  0  0  0  0  0  0  0
   37.6134   10.6230  -18.4560 C   0  0  0  0  0  0  0  0  0  0  0  0
   38.1787   14.5229  -12.7415 C   0  0  0  0  0  0  0  0  0  0  0  0
   39.0590   15.4936  -12.0977 C   0  0  0  0  0  0  0  0  0  0  0  0
   40.3710   15.8197  -12.7143 C   0  0  0  0  0  0  0  0  0  0  0  0
   41.4172   15.9619  -11.6101 C   0  0  0  0  0  0  0  0  0  0  0  0
   41.0748   16.0227  -10.3177 C   0  0  0  0  0  0  0  0  0  0  0  0
   42.0909   16.1118   -9.3971 C   0  0  0  0  0  0  0  0  0  0  0  0
   43.4896   16.1079  -10.3730 S   0  0  0  0  0  0  0  0  0  0  0  0
   42.7538   15.9944  -11.9067 C   0  0  0  0  0  0  0  0  0  0  0  0
 12 13  1  0  0  0
 13 14  1  0  0  0
 13 11  1  0  0  0
 11 16  1  0  0  0
 16 17  1  0  0  0
 17 18  2  0  0  0
 18 19  1  0  0  0
 19 20  2  0  0  0
 20 21  1  0  0  0
 21 22  2  0  0  0
 11  1  1  0  0  0
  1  2  2  0  0  0
  2  3  1  0  0  0
  3  4  2  0  0  0
  4  5  1  0  0  0
  5  6  1  0  0  0
  6  7  2  0  0  0
  7 23  1  0  0  0
 23 24  1  0  0  0
 24 25  1  0  0  0
 25 26  1  0  0  0
 26 27  1  0  0  0
 27 28  2  0  0  0
 28 29  1  0  0  0
 29 30  1  0  0  0
  7  8  1  0  0  0
  8  9  2  0  0  0
 22 17  1  0  0  0
  9  1  1  0  0  0
  8  4  1  0  0  0
 30 26  2  0  0  0
 14 15  1  0  0  0
  5 10  1  0  0  0
M  END
> <minimizedAffinity>
-8.18630

> <CNNscore>
0.3129905164

> <CNNaffinity>
6.5685820580

> <CNN_VS>
2.0559039116

> <CNNaffinity_variance>
0.1292069852

$$$$
[H]O[C@@]([H])(C([H])([H])[H])[C@]([H])(Oc1c([H])c([H])c([H])c([H])c1[H])c1c([H])c([H])c2c(c1[H])c(C([H])([H])C([H])([H])C([H])([H])c1c([H])sc([H])c1[H])c([H])n2[H]


 30 33  0  0  0  0  0  0  0  0999 V2000
   36.5706   14.1962  -13.2359 C   0  0  0  0  0  0  0  0  0  0  0  0
   35.8621   14.1235  -12.0283 C   0  0  0  0  0  0  0  0  0  0  0  0
   36.3727   14.5561  -10.8319 C   0  0  0  0  0  0  0  0  0  0  0  0
   37.6656   15.0928  -10.8313 C   0  0  0  0  0  0  0  0  0  0  0  0
   38.4349   15.5784   -9.8504 N   0  0  0  0  0  0  0  0  0  0  0  0
   39.6264   15.9627  -10.3901 C   0  0  0  0  0  0  0  0  0  0  0  0
   39.6339   15.7267  -11.7337 C   0  0  0  0  0  0  0  0  0  0  0  0
   38.3655   15.1681  -12.0041 C   0  0  0  0  0  0  0  0  0  0  0  0
   37.8232   14.7217  -13.2123 C   0  0  0  0  0  0  0  0  0  0  0  0
   38.1665   15.6476   -8.8428 H   0  0  0  0  0  0  0  0  0  0  0  0
   35.8602   13.6664  -14.4381 C   0  0  0  0  0  0  0  0  0  0  0  0
   33.7646   12.2419  -14.6006 C   0  0  0  0  0  0  0  0  0  0  0  0
   34.3469   13.5389  -14.2043 C   0  0  0  0  0  0  0  0  0  0  0  0
   33.6599   14.6786  -14.6236 O   0  0  0  0  0  0  0  0  0  0  0  0
   33.6685   15.4117  -13.9641 H   0  0  0  0  0  0  0  0  0  0  0  0
   36.2820   12.3239  -14.6256 O   0  0  0  0  0  0  0  0  0  0  0  0
   37.1230   11.8759  -15.6327 C   0  0  0  0  0  0  0  0  0  0  0  0
   36.5549   11.2730  -16.7433 C   0  0  0  0  0  0  0  0  0  0  0  0
   37.2633   10.7874  -17.8086 C   0  0  0  0  0  0  0  0  0  0  0  0
   38.6520   10.9039  -17.7825 C   0  0  0  0  0  0  0  0  0  0  0  0
   39.2327   11.5009  -16.6839 C   0  0  0  0  0  0  0  0  0  0  0  0
   38.4933   11.9899  -15.6067 C   0  0  0  0  0  0  0  0  0  0  0  0
   40.6038   15.9338  -12.8065 C   0  0  0  0  0  0  0  0  0  0  0  0
   41.6104   14.9255  -13.1259 C   0  0  0  0  0  0  0  0  0  0  0  0
   41.3214   13.8989  -14.1604 C   0  0  0  0  0  0  0  0  0  0  0  0
   42.6380   13.4330  -14.7794 C   0  0  0  0  0  0  0  0  0  0  0  0
   42.6736   12.7479  -15.9286 C   0  0  0  0  0  0  0  0  0  0  0  0
   43.9089   12.4068  -16.4243 C   0  0  0  0  0  0  0  0  0  0  0  0
   44.9768   13.0566  -15.2642 S   0  0  0  0  0  0  0  0  0  0  0  0
   43.8379   13.7363  -14.1931 C   0  0  0  0  0  0  0  0  0  0  0  0
 12 13  1  0  0  0
 13 14  1  0  0  0
 13 11  1  0  0  0
 11 16  1  0  0  0
 16 17  1  0  0  0
 17 18  2  0  0  0
 18 19  1  0  0  0
 19 20  2  0  0  0
 20 21  1  0  0  0
 21 22  2  0  0  0
 11  1  1  0  0  0
  1  2  2  0  0  0
  2  3  1  0  0  0
  3  4  2  0  0  0
  4  5  1  0  0  0
  5  6  1  0  0  0
  6  7  2  0  0  0
  7 23  1  0  0  0
 23 24  1  0  0  0
 24 25  1  0  0  0
 25 26  1  0  0  0
 26 27  1  0  0  0
 27 28  2  0  0  0
 28 29  1  0  0  0
 29 30  1  0  0  0
  7  8  1  0  0  0
  8  9  2  0  0  0
 22 17  1  0  0  0
  9  1  1  0  0  0
  8  4  1  0  0  0
 30 26  2  0  0  0
 14 15  1  0  0  0
  5 10  1  0  0  0
M  END
> <minimizedAffinity>
-8.59339

> <CNNscore>
0.2932253778

> <CNNaffinity>
6.3918857574

> <CNN_VS>
1.8742631674

> <CNNaffinity_variance>
0.2644190788

$$$$
[H]O[C@@]([H])(C([H])([H])[H])[C@]([H])(Oc1c([H])c([H])c([H])c([H])c1[H])c1c([H])c([H])c2c(c1[H])c(C([H])([H])C([H])([H])C([H])([H])c1c([H])sc([H])c1[H])c([H])n2[H]


 30 33  0  0  0  0  0  0  0  0999 V2000
   35.1186   12.5407  -15.1903 C   0  0  0  0  0  0  0  0  0  0  0  0
   33.8046   12.7668  -14.7571 C   0  0  0  0  0  0  0  0  0  0  0  0
   33.5003   13.4605  -13.6145 C   0  0  0  0  0  0  0  0  0  0  0  0
   34.5634   13.9602  -12.8533 C   0  0  0  0  0  0  0  0  0  0  0  0
   34.6000   14.6503  -11.7078 N   0  0  0  0  0  0  0  0  0  0  0  0
   35.9051   14.8763  -11.3846 C   0  0  0  0  0  0  0  0  0  0  0  0
   36.7260   14.3301  -12.3272 C   0  0  0  0  0  0  0  0  0  0  0  0
   35.8493   13.7450  -13.2670 C   0  0  0  0  0  0  0  0  0  0  0  0
   36.1349   13.0356  -14.4367 C   0  0  0  0  0  0  0  0  0  0  0  0
   33.7684   14.9597  -11.1557 H   0  0  0  0  0  0  0  0  0  0  0  0
   35.2597   11.7545  -16.4523 C   0  0  0  0  0  0  0  0  0  0  0  0
   34.6238    9.3024  -16.6247 C   0  0  0  0  0  0  0  0  0  0  0  0
   34.1518   10.7006  -16.6024 C   0  0  0  0  0  0  0  0  0  0  0  0
   33.2277   11.0566  -17.5853 O   0  0  0  0  0  0  0  0  0  0  0  0
   32.5398   11.6898  -17.2719 H   0  0  0  0  0  0  0  0  0  0  0  0
   36.4437   10.9789  -16.3414 O   0  0  0  0  0  0  0  0  0  0  0  0
   37.5598   11.0898  -17.1564 C   0  0  0  0  0  0  0  0  0  0  0  0
   38.6866   11.7136  -16.6458 C   0  0  0  0  0  0  0  0  0  0  0  0
   39.8546   11.8903  -17.3367 C   0  0  0  0  0  0  0  0  0  0  0  0
   39.9234   11.4123  -18.6442 C   0  0  0  0  0  0  0  0  0  0  0  0
   38.8101   10.7897  -19.1672 C   0  0  0  0  0  0  0  0  0  0  0  0
   37.6276   10.6192  -18.4468 C   0  0  0  0  0  0  0  0  0  0  0  0
   38.1738   14.2619  -12.5120 C   0  0  0  0  0  0  0  0  0  0  0  0
   38.9808   15.4716  -12.6431 C   0  0  0  0  0  0  0  0  0  0  0  0
   40.0367   15.7643  -11.6395 C   0  0  0  0  0  0  0  0  0  0  0  0
   39.3733   16.1472  -10.3178 C   0  0  0  0  0  0  0  0  0  0  0  0
   39.6035   15.4652   -9.1894 C   0  0  0  0  0  0  0  0  0  0  0  0
   38.9896   15.9109   -8.0438 C   0  0  0  0  0  0  0  0  0  0  0  0
   38.1113   17.2683   -8.5865 S   0  0  0  0  0  0  0  0  0  0  0  0
   38.5430   17.2333  -10.2354 C   0  0  0  0  0  0  0  0  0  0  0  0
 12 13  1  0  0  0
 13 14  1  0  0  0
 13 11  1  0  0  0
 11 16  1  0  0  0
 16 17  1  0  0  0
 17 18  2  0  0  0
 18 19  1  0  0  0
 19 20  2  0  0  0
 20 21  1  0  0  0
 21 22  2  0  0  0
 11  1  1  0  0  0
  1  2  2  0  0  0
  2  3  1  0  0  0
  3  4  2  0  0  0
  4  5  1  0  0  0
  5  6  1  0  0  0
  6  7  2  0  0  0
  7 23  1  0  0  0
 23 24  1  0  0  0
 24 25  1  0  0  0
 25 26  1  0  0  0
 26 27  1  0  0  0
 27 28  2  0  0  0
 28 29  1  0  0  0
 29 30  1  0  0  0
  7  8  1  0  0  0
  8  9  2  0  0  0
 22 17  1  0  0  0
  9  1  1  0  0  0
  8  4  1  0  0  0
 30 26  2  0  0  0
 14 15  1  0  0  0
  5 10  1  0  0  0
M  END
> <minimizedAffinity>
-7.80803

> <CNNscore>
0.2676308751

> <CNNaffinity>
6.4580316544

> <CNN_VS>
1.7283686399

> <CNNaffinity_variance>
0.2938725650

$$$$
[H]O[C@@]([H])(C([H])([H])[H])[C@]([H])(Oc1c([H])c([H])c([H])c([H])c1[H])c1c([H])c([H])c2c(c1[H])c(C([H])([H])C([H])([H])C([H])([H])c1c([H])sc([H])c1[H])c([H])n2[H]


 30 33  0  0  0  0  0  0  0  0999 V2000
   36.9467   13.1285  -13.7791 C   0  0  0  0  0  0  0  0  0  0  0  0
   35.5882   13.0212  -14.1085 C   0  0  0  0  0  0  0  0  0  0  0  0
   35.1379   12.3878  -15.2378 C   0  0  0  0  0  0  0  0  0  0  0  0
   36.0924   11.8270  -16.0945 C   0  0  0  0  0  0  0  0  0  0  0  0
   35.9808   11.1700  -17.2545 N   0  0  0  0  0  0  0  0  0  0  0  0
   37.2329   10.8497  -17.6884 C   0  0  0  0  0  0  0  0  0  0  0  0
   38.1684   11.3006  -16.8039 C   0  0  0  0  0  0  0  0  0  0  0  0
   37.4204   11.9263  -15.7826 C   0  0  0  0  0  0  0  0  0  0  0  0
   37.8556   12.5760  -14.6243 C   0  0  0  0  0  0  0  0  0  0  0  0
   35.0852   10.9446  -17.7437 H   0  0  0  0  0  0  0  0  0  0  0  0
   37.2521   13.8635  -12.5154 C   0  0  0  0  0  0  0  0  0  0  0  0
   35.7636   15.8633  -12.0330 C   0  0  0  0  0  0  0  0  0  0  0  0
   35.9829   14.4155  -11.8480 C   0  0  0  0  0  0  0  0  0  0  0  0
   35.8258   13.9276  -10.5503 O   0  0  0  0  0  0  0  0  0  0  0  0
   35.4187   13.0303  -10.5107 H   0  0  0  0  0  0  0  0  0  0  0  0
   37.9782   15.0319  -12.8663 O   0  0  0  0  0  0  0  0  0  0  0  0
   39.1895   15.4240  -12.3175 C   0  0  0  0  0  0  0  0  0  0  0  0
   40.3282   15.3258  -13.1008 C   0  0  0  0  0  0  0  0  0  0  0  0
   41.5848   15.6775  -12.6887 C   0  0  0  0  0  0  0  0  0  0  0  0
   41.7381   16.1695  -11.3937 C   0  0  0  0  0  0  0  0  0  0  0  0
   40.6147   16.2726  -10.6013 C   0  0  0  0  0  0  0  0  0  0  0  0
   39.3412   15.9085  -11.0394 C   0  0  0  0  0  0  0  0  0  0  0  0
   39.6270   11.2470  -16.7366 C   0  0  0  0  0  0  0  0  0  0  0  0
   40.4468   12.4028  -17.0885 C   0  0  0  0  0  0  0  0  0  0  0  0
   41.0996   13.1962  -16.0152 C   0  0  0  0  0  0  0  0  0  0  0  0
   42.5964   12.8907  -16.0120 C   0  0  0  0  0  0  0  0  0  0  0  0
   43.1474   12.0543  -16.8999 C   0  0  0  0  0  0  0  0  0  0  0  0
   44.5082   11.8740  -16.8398 C   0  0  0  0  0  0  0  0  0  0  0  0
   44.9684   12.8809  -15.5426 S   0  0  0  0  0  0  0  0  0  0  0  0
   43.4369   13.4968  -15.1165 C   0  0  0  0  0  0  0  0  0  0  0  0
 12 13  1  0  0  0
 13 14  1  0  0  0
 13 11  1  0  0  0
 11 16  1  0  0  0
 16 17  1  0  0  0
 17 18  2  0  0  0
 18 19  1  0  0  0
 19 20  2  0  0  0
 20 21  1  0  0  0
 21 22  2  0  0  0
 11  1  1  0  0  0
  1  2  2  0  0  0
  2  3  1  0  0  0
  3  4  2  0  0  0
  4  5  1  0  0  0
  5  6  1  0  0  0
  6  7  2  0  0  0
  7 23  1  0  0  0
 23 24  1  0  0  0
 24 25  1  0  0  0
 25 26  1  0  0  0
 26 27  1  0  0  0
 27 28  2  0  0  0
 28 29  1  0  0  0
 29 30  1  0  0  0
  7  8  1  0  0  0
  8  9  2  0  0  0
 22 17  1  0  0  0
  9  1  1  0  0  0
  8  4  1  0  0  0
 30 26  2  0  0  0
 14 15  1  0  0  0
  5 10  1  0  0  0
M  END
> <minimizedAffinity>
-8.85592

> <CNNscore>
0.2456687391

> <CNNaffinity>
6.3056421280

> <CNN_VS>
1.5490992069

> <CNNaffinity_variance>
0.2540966570

$$$$
[H]O[C@@]([H])(C([H])([H])[H])[C@]([H])(Oc1c([H])c([H])c([H])c([H])c1[H])c1c([H])c([H])c2c(c1[H])c(C([H])([H])C([H])([H])C([H])([H])c1c([H])sc([H])c1[H])c([H])n2[H]


 30 33  0  0  0  0  0  0  0  0999 V2000
   36.6143   14.2560  -13.0901 C   0  0  0  0  0  0  0  0  0  0  0  0
   35.8928   14.1059  -11.8975 C   0  0  0  0  0  0  0  0  0  0  0  0
   36.3651   14.5175  -10.6781 C   0  0  0  0  0  0  0  0  0  0  0  0
   37.6309   15.1137  -10.6374 C   0  0  0  0  0  0  0  0  0  0  0  0
   38.3622   15.5984   -9.6274 N   0  0  0  0  0  0  0  0  0  0  0  0
   39.5419   16.0576  -10.1336 C   0  0  0  0  0  0  0  0  0  0  0  0
   39.5798   15.8718  -11.4845 C   0  0  0  0  0  0  0  0  0  0  0  0
   38.3433   15.2648  -11.7953 C   0  0  0  0  0  0  0  0  0  0  0  0
   37.8401   14.8382  -13.0274 C   0  0  0  0  0  0  0  0  0  0  0  0
   38.0764   15.6178   -8.6224 H   0  0  0  0  0  0  0  0  0  0  0  0
   35.9471   13.7382  -14.3218 C   0  0  0  0  0  0  0  0  0  0  0  0
   33.8774   12.2802  -14.5168 C   0  0  0  0  0  0  0  0  0  0  0  0
   34.4281   13.5964  -14.1389 C   0  0  0  0  0  0  0  0  0  0  0  0
   33.7421   14.7135  -14.6166 O   0  0  0  0  0  0  0  0  0  0  0  0
   33.7171   15.4658  -13.9795 H   0  0  0  0  0  0  0  0  0  0  0  0
   36.3850   12.4015  -14.5143 O   0  0  0  0  0  0  0  0  0  0  0  0
   37.1774   11.9552  -15.5608 C   0  0  0  0  0  0  0  0  0  0  0  0
   38.5426   12.1826  -15.4944 C   0  0  0  0  0  0  0  0  0  0  0  0
   39.4399   11.7965  -16.4527 C   0  0  0  0  0  0  0  0  0  0  0  0
   38.9553   11.1277  -17.5754 C   0  0  0  0  0  0  0  0  0  0  0  0
   37.5990   10.8944  -17.6568 C   0  0  0  0  0  0  0  0  0  0  0  0
   36.6994   11.2962  -16.6692 C   0  0  0  0  0  0  0  0  0  0  0  0
   40.5541   16.1633  -12.5335 C   0  0  0  0  0  0  0  0  0  0  0  0
   41.6531   15.2475  -12.8256 C   0  0  0  0  0  0  0  0  0  0  0  0
   42.9038   15.3201  -12.0267 C   0  0  0  0  0  0  0  0  0  0  0  0
   43.9831   16.0143  -12.8556 C   0  0  0  0  0  0  0  0  0  0  0  0
   44.1962   17.3330  -12.7737 C   0  0  0  0  0  0  0  0  0  0  0  0
   45.2157   17.8578  -13.5307 C   0  0  0  0  0  0  0  0  0  0  0  0
   45.8397   16.4870  -14.3307 S   0  0  0  0  0  0  0  0  0  0  0  0
   44.8003   15.2979  -13.6890 C   0  0  0  0  0  0  0  0  0  0  0  0
 12 13  1  0  0  0
 13 14  1  0  0  0
 13 11  1  0  0  0
 11 16  1  0  0  0
 16 17  1  0  0  0
 17 18  2  0  0  0
 18 19  1  0  0  0
 19 20  2  0  0  0
 20 21  1  0  0  0
 21 22  2  0  0  0
 11  1  1  0  0  0
  1  2  2  0  0  0
  2  3  1  0  0  0
  3  4  2  0  0  0
  4  5  1  0  0  0
  5  6  1  0  0  0
  6  7  2  0  0  0
  7 23  1  0  0  0
 23 24  1  0  0  0
 24 25  1  0  0  0
 25 26  1  0  0  0
 26 27  1  0  0  0
 27 28  2  0  0  0
 28 29  1  0  0  0
 29 30  1  0  0  0
  7  8  1  0  0  0
  8  9  2  0  0  0
 22 17  1  0  0  0
  9  1  1  0  0  0
  8  4  1  0  0  0
 30 26  2  0  0  0
 14 15  1  0  0  0
  5 10  1  0  0  0
M  END
> <minimizedAffinity>
-8.07224

> <CNNscore>
0.2220035493

> <CNNaffinity>
5.7452301979

> <CNN_VS>
1.2754615545

> <CNNaffinity_variance>
0.6587950587

$$$$
[H]c1nc2c(C#Cc3c([H])c(C([H])([H])[H])c([H])c([H])c3Cl)c([H])n([H])c2nc1-c1c([H])c([H])c(N([H])S(=O)(=O)C2([H])C([H])([H])C2([H])[H])c([H])c1[H]


 34 38  0  0  0  0  0  0  0  0999 V2000
   40.8768   12.6556  -15.9746 C   0  0  0  0  0  0  0  0  0  0  0  0
   41.8499   12.2408  -16.8610 C   0  0  0  0  0  0  0  0  0  0  0  0
   43.0504   12.6911  -16.4903 N   0  0  0  0  0  0  0  0  0  0  0  0
   42.8780   13.4043  -15.3592 C   0  0  0  0  0  0  0  0  0  0  0  0
   43.7335   14.0585  -14.5878 N   0  0  0  0  0  0  0  0  0  0  0  0
   43.3366   14.7206  -13.4759 C   0  0  0  0  0  0  0  0  0  0  0  0
   42.0063   14.7098  -13.1435 C   0  0  0  0  0  0  0  0  0  0  0  0
   41.0959   14.0504  -13.9088 N   0  0  0  0  0  0  0  0  0  0  0  0
   41.5229   13.4040  -15.0047 C   0  0  0  0  0  0  0  0  0  0  0  0
   43.9533   12.5354  -16.9639 H   0  0  0  0  0  0  0  0  0  0  0  0
   44.3691   15.4054  -12.7042 C   0  0  0  0  0  0  0  0  0  0  0  0
   45.4503   14.7681  -12.1426 C   0  0  0  0  0  0  0  0  0  0  0  0
   46.3920   15.4655  -11.4257 C   0  0  0  0  0  0  0  0  0  0  0  0
   46.3248   16.8362  -11.2184 C   0  0  0  0  0  0  0  0  0  0  0  0
   45.2407   17.4719  -11.7820 C   0  0  0  0  0  0  0  0  0  0  0  0
   44.2966   16.7730  -12.5008 C   0  0  0  0  0  0  0  0  0  0  0  0
   47.3218   17.5160  -10.4731 N   0  0  0  0  0  0  0  0  0  0  0  0
   48.0915   17.9828  -11.0333 H   0  0  0  0  0  0  0  0  0  0  0  0
   47.3481   17.6207   -8.7569 S   0  0  0  0  0  0  0  0  0  0  0  0
   47.6350   16.2637   -8.2000 O   0  0  0  0  0  0  0  0  0  0  0  0
   48.4960   18.5154   -8.3191 O   0  0  0  0  0  0  0  0  0  0  0  0
   45.8031   18.2289   -8.1761 C   0  0  0  0  0  0  0  0  0  0  0  0
   44.6550   17.2337   -8.0912 C   0  0  0  0  0  0  0  0  0  0  0  0
   45.2782   17.8230   -6.8469 C   0  0  0  0  0  0  0  0  0  0  0  0
   38.2756   12.1986  -16.0162 C   0  0  0  0  0  0  0  0  0  0  0  0
   39.4651   12.4050  -15.9858 C   0  0  0  0  0  0  0  0  0  0  0  0
   33.6807   12.8888  -14.2718 C   0  0  0  0  0  0  0  0  0  0  0  0
   34.6203   12.2498  -15.2111 C   0  0  0  0  0  0  0  0  0  0  0  0
   34.1384   11.3686  -16.1441 C   0  0  0  0  0  0  0  0  0  0  0  0
   34.9968   10.7581  -17.0336 C   0  0  0  0  0  0  0  0  0  0  0  0
   36.3380   11.0576  -16.9564 C   0  0  0  0  0  0  0  0  0  0  0  0
   37.4439   10.2867  -18.0841 Cl  0  0  0  0  0  0  0  0  0  0  0  0
   36.8689   11.9345  -16.0383 C   0  0  0  0  0  0  0  0  0  0  0  0
   35.9603   12.5256  -15.1615 C   0  0  0  0  0  0  0  0  0  0  0  0
 27 28  1  0  0  0
 28 29  2  0  0  0
 29 30  1  0  0  0
 30 31  2  0  0  0
 31 32  1  0  0  0
 31 33  1  0  0  0
 33 34  2  0  0  0
 33 25  1  0  0  0
 25 26  3  0  0  0
 26  1  1  0  0  0
  1  2  2  0  0  0
  2  3  1  0  0  0
  3  4  1  0  0  0
  4  5  2  0  0  0
  5  6  1  0  0  0
  6  7  2  0  0  0
  7  8  1  0  0  0
  8  9  2  0  0  0
  6 11  1  0  0  0
 11 12  2  0  0  0
 12 13  1  0  0  0
 13 14  2  0  0  0
 14 17  1  0  0  0
 17 19  1  0  0  0
 19 20  2  0  0  0
 19 21  2  0  0  0
 19 22  1  0  0  0
 22 23  1  0  0  0
 23 24  1  0  0  0
 14 15  1  0  0  0
 15 16  2  0  0  0
 34 28  1  0  0  0
  9  1  1  0  0  0
 16 11  1  0  0  0
  9  4  1  0  0  0
 24 22  1  0  0  0
  3 10  1  0  0  0
 17 18  1  0  0  0
M  END
> <minimizedAffinity>
-8.03840

> <CNNscore>
0.2327748388

> <CNNaffinity>
6.6325135231

> <CNN_VS>
1.5438822508

> <CNNaffinity_variance>
0.1415272206

$$$$
[H]c1nc2c(C#Cc3c([H])c(C([H])([H])[H])c([H])c([H])c3Cl)c([H])n([H])c2nc1-c1c([H])c([H])c(N([H])S(=O)(=O)C2([H])C([H])([H])C2([H])[H])c([H])c1[H]


 34 38  0  0  0  0  0  0  0  0999 V2000
   40.1524   12.1625  -16.6544 C   0  0  0  0  0  0  0  0  0  0  0  0
   40.8828   11.8065  -17.7699 C   0  0  0  0  0  0  0  0  0  0  0  0
   42.1697   12.1244  -17.6140 N   0  0  0  0  0  0  0  0  0  0  0  0
   42.2968   12.6910  -16.3972 C   0  0  0  0  0  0  0  0  0  0  0  0
   43.3474   13.1798  -15.7552 N   0  0  0  0  0  0  0  0  0  0  0  0
   43.2472   13.7129  -14.5151 C   0  0  0  0  0  0  0  0  0  0  0  0
   42.0170   13.7449  -13.9104 C   0  0  0  0  0  0  0  0  0  0  0  0
   40.9135   13.2536  -14.5352 N   0  0  0  0  0  0  0  0  0  0  0  0
   41.0478   12.7319  -15.7644 C   0  0  0  0  0  0  0  0  0  0  0  0
   42.9393   11.9745  -18.2840 H   0  0  0  0  0  0  0  0  0  0  0  0
   44.4733   14.2205  -13.9071 C   0  0  0  0  0  0  0  0  0  0  0  0
   45.1407   13.5817  -12.8888 C   0  0  0  0  0  0  0  0  0  0  0  0
   46.2920   14.1075  -12.3549 C   0  0  0  0  0  0  0  0  0  0  0  0
   46.8565   15.2973  -12.7934 C   0  0  0  0  0  0  0  0  0  0  0  0
   46.1857   15.9349  -13.8135 C   0  0  0  0  0  0  0  0  0  0  0  0
   45.0316   15.4080  -14.3489 C   0  0  0  0  0  0  0  0  0  0  0  0
   48.0488   15.8019  -12.2144 N   0  0  0  0  0  0  0  0  0  0  0  0
   48.9334   15.6922  -12.7883 H   0  0  0  0  0  0  0  0  0  0  0  0
   48.1338   16.5609  -10.6737 S   0  0  0  0  0  0  0  0  0  0  0  0
   48.3173   15.5059   -9.6310 O   0  0  0  0  0  0  0  0  0  0  0  0
   49.3675   17.4462  -10.6099 O   0  0  0  0  0  0  0  0  0  0  0  0
   46.6652   17.4854  -10.3862 C   0  0  0  0  0  0  0  0  0  0  0  0
   45.4696   16.7291   -9.8255 C   0  0  0  0  0  0  0  0  0  0  0  0
   46.2016   17.7638   -9.0025 C   0  0  0  0  0  0  0  0  0  0  0  0
   37.5739   11.8841  -16.1533 C   0  0  0  0  0  0  0  0  0  0  0  0
   38.7509   12.0083  -16.3935 C   0  0  0  0  0  0  0  0  0  0  0  0
   33.0291   10.3384  -17.4132 C   0  0  0  0  0  0  0  0  0  0  0  0
   33.9491   11.0072  -16.4754 C   0  0  0  0  0  0  0  0  0  0  0  0
   33.4545   11.5208  -15.3045 C   0  0  0  0  0  0  0  0  0  0  0  0
   34.2946   12.1508  -14.4111 C   0  0  0  0  0  0  0  0  0  0  0  0
   35.6305   12.2470  -14.7279 C   0  0  0  0  0  0  0  0  0  0  0  0
   36.7130   13.0476  -13.5981 Cl  0  0  0  0  0  0  0  0  0  0  0  0
   36.1736   11.7478  -15.8896 C   0  0  0  0  0  0  0  0  0  0  0  0
   35.2835   11.1200  -16.7599 C   0  0  0  0  0  0  0  0  0  0  0  0
 27 28  1  0  0  0
 28 29  2  0  0  0
 29 30  1  0  0  0
 30 31  2  0  0  0
 31 32  1  0  0  0
 31 33  1  0  0  0
 33 34  2  0  0  0
 33 25  1  0  0  0
 25 26  3  0  0  0
 26  1  1  0  0  0
  1  2  2  0  0  0
  2  3  1  0  0  0
  3  4  1  0  0  0
  4  5  2  0  0  0
  5  6  1  0  0  0
  6  7  2  0  0  0
  7  8  1  0  0  0
  8  9  2  0  0  0
  6 11  1  0  0  0
 11 12  2  0  0  0
 12 13  1  0  0  0
 13 14  2  0  0  0
 14 17  1  0  0  0
 17 19  1  0  0  0
 19 20  2  0  0  0
 19 21  2  0  0  0
 19 22  1  0  0  0
 22 23  1  0  0  0
 23 24  1  0  0  0
 14 15  1  0  0  0
 15 16  2  0  0  0
 34 28  1  0  0  0
  9  1  1  0  0  0
 16 11  1  0  0  0
  9  4  1  0  0  0
 24 22  1  0  0  0
  3 10  1  0  0  0
 17 18  1  0  0  0
M  END
> <minimizedAffinity>
-8.01929

> <CNNscore>
0.1997225881

> <CNNaffinity>
6.8060493469

> <CNN_VS>
1.3593218327

> <CNNaffinity_variance>
0.1648692936

$$$$
[H]c1nc2c(C#Cc3c([H])c(C([H])([H])[H])c([H])c([H])c3Cl)c([H])n([H])c2nc1-c1c([H])c([H])c(N([H])S(=O)(=O)C2([H])C([H])([H])C2([H])[H])c([H])c1[H]


 34 38  0  0  0  0  0  0  0  0999 V2000
   41.9318   12.4573  -16.3426 C   0  0  0  0  0  0  0  0  0  0  0  0
   42.8702   12.0363  -17.2628 C   0  0  0  0  0  0  0  0  0  0  0  0
   44.0928   12.4386  -16.9095 N   0  0  0  0  0  0  0  0  0  0  0  0
   43.9697   13.1261  -15.7563 C   0  0  0  0  0  0  0  0  0  0  0  0
   44.8634   13.7321  -14.9888 N   0  0  0  0  0  0  0  0  0  0  0  0
   44.5139   14.3760  -13.8507 C   0  0  0  0  0  0  0  0  0  0  0  0
   43.1921   14.3979  -13.4867 C   0  0  0  0  0  0  0  0  0  0  0  0
   42.2434   13.7882  -14.2468 N   0  0  0  0  0  0  0  0  0  0  0  0
   42.6239   13.1586  -15.3693 C   0  0  0  0  0  0  0  0  0  0  0  0
   44.9789   12.2676  -17.4087 H   0  0  0  0  0  0  0  0  0  0  0  0
   45.5855   15.0070  -13.0864 C   0  0  0  0  0  0  0  0  0  0  0  0
   45.9513   16.3246  -13.2305 C   0  0  0  0  0  0  0  0  0  0  0  0
   46.9691   16.8647  -12.4826 C   0  0  0  0  0  0  0  0  0  0  0  0
   47.6896   16.1374  -11.5455 C   0  0  0  0  0  0  0  0  0  0  0  0
   47.3210   14.8179  -11.4034 C   0  0  0  0  0  0  0  0  0  0  0  0
   46.3007   14.2762  -12.1529 C   0  0  0  0  0  0  0  0  0  0  0  0
   48.7317   16.7372  -10.7933 N   0  0  0  0  0  0  0  0  0  0  0  0
   49.7049   16.6814  -11.2103 H   0  0  0  0  0  0  0  0  0  0  0  0
   48.5073   17.5281   -9.2830 S   0  0  0  0  0  0  0  0  0  0  0  0
   49.3496   18.7626   -9.2606 O   0  0  0  0  0  0  0  0  0  0  0  0
   47.0649   17.9907   -9.1601 O   0  0  0  0  0  0  0  0  0  0  0  0
   48.9459   16.4396   -7.9726 C   0  0  0  0  0  0  0  0  0  0  0  0
   47.9921   15.2911   -7.6779 C   0  0  0  0  0  0  0  0  0  0  0  0
   49.3670   15.0430   -8.2541 C   0  0  0  0  0  0  0  0  0  0  0  0
   39.3186   12.0727  -16.3332 C   0  0  0  0  0  0  0  0  0  0  0  0
   40.5129   12.2516  -16.3263 C   0  0  0  0  0  0  0  0  0  0  0  0
   34.8563   12.4978  -14.2026 C   0  0  0  0  0  0  0  0  0  0  0  0
   35.7187   12.0411  -15.3077 C   0  0  0  0  0  0  0  0  0  0  0  0
   35.1547   11.3775  -16.3663 C   0  0  0  0  0  0  0  0  0  0  0  0
   35.9399   10.9404  -17.4119 C   0  0  0  0  0  0  0  0  0  0  0  0
   37.2928   11.1884  -17.3602 C   0  0  0  0  0  0  0  0  0  0  0  0
   38.3059   10.6369  -18.6863 Cl  0  0  0  0  0  0  0  0  0  0  0  0
   37.9046   11.8497  -16.3200 C   0  0  0  0  0  0  0  0  0  0  0  0
   37.0680   12.2714  -15.2875 C   0  0  0  0  0  0  0  0  0  0  0  0
 27 28  1  0  0  0
 28 29  2  0  0  0
 29 30  1  0  0  0
 30 31  2  0  0  0
 31 32  1  0  0  0
 31 33  1  0  0  0
 33 34  2  0  0  0
 33 25  1  0  0  0
 25 26  3  0  0  0
 26  1  1  0  0  0
  1  2  2  0  0  0
  2  3  1  0  0  0
  3  4  1  0  0  0
  4  5  2  0  0  0
  5  6  1  0  0  0
  6  7  2  0  0  0
  7  8  1  0  0  0
  8  9  2  0  0  0
  6 11  1  0  0  0
 11 12  2  0  0  0
 12 13  1  0  0  0
 13 14  2  0  0  0
 14 17  1  0  0  0
 17 19  1  0  0  0
 19 20  2  0  0  0
 19 21  2  0  0  0
 19 22  1  0  0  0
 22 23  1  0  0  0
 23 24  1  0  0  0
 14 15  1  0  0  0
 15 16  2  0  0  0
 34 28  1  0  0  0
  9  1  1  0  0  0
 16 11  1  0  0  0
  9  4  1  0  0  0
 24 22  1  0  0  0
  3 10  1  0  0  0
 17 18  1  0  0  0
M  END
> <minimizedAffinity>
-7.13402

> <CNNscore>
0.1475799978

> <CNNaffinity>
6.3710274696

> <CNN_VS>
0.9402362108

> <CNNaffinity_variance>
0.2175100148

$$$$
[H]c1nc2c(C#Cc3c([H])c(C([H])([H])[H])c([H])c([H])c3Cl)c([H])n([H])c2nc1-c1c([H])c([H])c(N([H])S(=O)(=O)C2([H])C([H])([H])C2([H])[H])c([H])c1[H]


 34 38  0  0  0  0  0  0  0  0999 V2000
   42.7001   13.1149  -15.7659 C   0  0  0  0  0  0  0  0  0  0  0  0
   43.8751   12.9882  -16.4785 C   0  0  0  0  0  0  0  0  0  0  0  0
   44.8930   13.5393  -15.8141 N   0  0  0  0  0  0  0  0  0  0  0  0
   44.3977   14.0322  -14.6611 C   0  0  0  0  0  0  0  0  0  0  0  0
   44.9735   14.6701  -13.6529 N   0  0  0  0  0  0  0  0  0  0  0  0
   44.2731   15.0842  -12.5712 C   0  0  0  0  0  0  0  0  0  0  0  0
   42.9260   14.8326  -12.5241 C   0  0  0  0  0  0  0  0  0  0  0  0
   42.2967   14.1808  -13.5383 N   0  0  0  0  0  0  0  0  0  0  0  0
   43.0208   13.7837  -14.5962 C   0  0  0  0  0  0  0  0  0  0  0  0
   45.8805   13.5903  -16.1075 H   0  0  0  0  0  0  0  0  0  0  0  0
   45.0151   15.7771  -11.5224 C   0  0  0  0  0  0  0  0  0  0  0  0
   45.4081   15.1827  -10.3465 C   0  0  0  0  0  0  0  0  0  0  0  0
   46.1055   15.8855   -9.3942 C   0  0  0  0  0  0  0  0  0  0  0  0
   46.4585   17.2194   -9.5437 C   0  0  0  0  0  0  0  0  0  0  0  0
   46.0635   17.8121  -10.7225 C   0  0  0  0  0  0  0  0  0  0  0  0
   45.3644   17.1078  -11.6773 C   0  0  0  0  0  0  0  0  0  0  0  0
   47.1817   17.9053   -8.5346 N   0  0  0  0  0  0  0  0  0  0  0  0
   48.2265   18.0007   -8.6871 H   0  0  0  0  0  0  0  0  0  0  0  0
   46.4739   18.5720   -7.1164 S   0  0  0  0  0  0  0  0  0  0  0  0
   47.0217   19.9473   -6.9104 O   0  0  0  0  0  0  0  0  0  0  0  0
   44.9767   18.7331   -7.3221 O   0  0  0  0  0  0  0  0  0  0  0  0
   46.8244   17.5386   -5.7367 C   0  0  0  0  0  0  0  0  0  0  0  0
   46.0946   16.2051   -5.6673 C   0  0  0  0  0  0  0  0  0  0  0  0
   47.5848   16.2740   -5.9087 C   0  0  0  0  0  0  0  0  0  0  0  0
   40.2725   12.2834  -16.3924 C   0  0  0  0  0  0  0  0  0  0  0  0
   41.3778   12.6721  -16.0995 C   0  0  0  0  0  0  0  0  0  0  0  0
   35.4198   11.9177  -15.4183 C   0  0  0  0  0  0  0  0  0  0  0  0
   36.5887   11.6306  -16.2695 C   0  0  0  0  0  0  0  0  0  0  0  0
   36.4180   10.8990  -17.4162 C   0  0  0  0  0  0  0  0  0  0  0  0
   37.4954   10.6173  -18.2289 C   0  0  0  0  0  0  0  0  0  0  0  0
   38.7342   11.0881  -17.8571 C   0  0  0  0  0  0  0  0  0  0  0  0
   40.1167   10.7365  -18.8837 Cl  0  0  0  0  0  0  0  0  0  0  0  0
   38.9555   11.8258  -16.7167 C   0  0  0  0  0  0  0  0  0  0  0  0
   37.8347   12.0840  -15.9287 C   0  0  0  0  0  0  0  0  0  0  0  0
 27 28  1  0  0  0
 28 29  2  0  0  0
 29 30  1  0  0  0
 30 31  2  0  0  0
 31 32  1  0  0  0
 31 33  1  0  0  0
 33 34  2  0  0  0
 33 25  1  0  0  0
 25 26  3  0  0  0
 26  1  1  0  0  0
  1  2  2  0  0  0
  2  3  1  0  0  0
  3  4  1  0  0  0
  4  5  2  0  0  0
  5  6  1  0  0  0
  6  7  2  0  0  0
  7  8  1  0  0  0
  8  9  2  0  0  0
  6 11  1  0  0  0
 11 12  2  0  0  0
 12 13  1  0  0  0
 13 14  2  0  0  0
 14 17  1  0  0  0
 17 19  1  0  0  0
 19 20  2  0  0  0
 19 21  2  0  0  0
 19 22  1  0  0  0
 22 23  1  0  0  0
 23 24  1  0  0  0
 14 15  1  0  0  0
 15 16  2  0  0  0
 34 28  1  0  0  0
  9  1  1  0  0  0
 16 11  1  0  0  0
  9  4  1  0  0  0
 24 22  1  0  0  0
  3 10  1  0  0  0
 17 18  1  0  0  0
M  END
> <minimizedAffinity>
-7.82312

> <CNNscore>
0.1474225819

> <CNNaffinity>
6.1790232658

> <CNN_VS>
0.9109275341

> <CNNaffinity_variance>
0.1169224977

$$$$
[H]c1nc2c(C#Cc3c([H])c(C([H])([H])[H])c([H])c([H])c3Cl)c([H])n([H])c2nc1-c1c([H])c([H])c(N([H])S(=O)(=O)C2([H])C([H])([H])C2([H])[H])c([H])c1[H]


 34 38  0  0  0  0  0  0  0  0999 V2000
   40.9934   12.9673  -15.7210 C   0  0  0  0  0  0  0  0  0  0  0  0
   40.6046   12.3204  -16.8764 C   0  0  0  0  0  0  0  0  0  0  0  0
   39.2768   12.1922  -16.9227 N   0  0  0  0  0  0  0  0  0  0  0  0
   38.7817   12.7525  -15.8008 C   0  0  0  0  0  0  0  0  0  0  0  0
   37.5419   12.8932  -15.3560 N   0  0  0  0  0  0  0  0  0  0  0  0
   37.2660   13.5005  -14.1782 C   0  0  0  0  0  0  0  0  0  0  0  0
   38.3069   13.9826  -13.4270 C   0  0  0  0  0  0  0  0  0  0  0  0
   39.5941   13.8583  -13.8477 N   0  0  0  0  0  0  0  0  0  0  0  0
   39.8328   13.2509  -15.0205 C   0  0  0  0  0  0  0  0  0  0  0  0
   38.7140   11.7515  -17.6661 H   0  0  0  0  0  0  0  0  0  0  0  0
   35.8618   13.5974  -13.7915 C   0  0  0  0  0  0  0  0  0  0  0  0
   34.8393   12.9774  -14.4701 C   0  0  0  0  0  0  0  0  0  0  0  0
   33.5347   13.1045  -14.0592 C   0  0  0  0  0  0  0  0  0  0  0  0
   33.1582   13.8521  -12.9520 C   0  0  0  0  0  0  0  0  0  0  0  0
   34.1845   14.4720  -12.2743 C   0  0  0  0  0  0  0  0  0  0  0  0
   35.4924   14.3447  -12.6860 C   0  0  0  0  0  0  0  0  0  0  0  0
   31.7983   13.9536  -12.5623 N   0  0  0  0  0  0  0  0  0  0  0  0
   31.1442   13.2089  -12.9388 H   0  0  0  0  0  0  0  0  0  0  0  0
   31.1710   15.1859  -11.5401 S   0  0  0  0  0  0  0  0  0  0  0  0
   31.6928   16.5060  -12.0079 O   0  0  0  0  0  0  0  0  0  0  0  0
   29.6593   15.2466  -11.6847 O   0  0  0  0  0  0  0  0  0  0  0  0
   31.6441   14.8731   -9.8750 C   0  0  0  0  0  0  0  0  0  0  0  0
   32.5488   15.8989   -9.2079 C   0  0  0  0  0  0  0  0  0  0  0  0
   31.1163   15.7084   -8.7657 C   0  0  0  0  0  0  0  0  0  0  0  0
   43.4240   13.6013  -14.9039 C   0  0  0  0  0  0  0  0  0  0  0  0
   42.3089   13.3124  -15.2666 C   0  0  0  0  0  0  0  0  0  0  0  0
   46.4790   15.9410  -11.7695 C   0  0  0  0  0  0  0  0  0  0  0  0
   46.2493   15.0890  -12.9504 C   0  0  0  0  0  0  0  0  0  0  0  0
   47.3265   14.6187  -13.6561 C   0  0  0  0  0  0  0  0  0  0  0  0
   47.1379   13.8201  -14.7640 C   0  0  0  0  0  0  0  0  0  0  0  0
   45.8487   13.5132  -15.1355 C   0  0  0  0  0  0  0  0  0  0  0  0
   45.5933   12.4960  -16.5459 Cl  0  0  0  0  0  0  0  0  0  0  0  0
   44.7364   13.9609  -14.4600 C   0  0  0  0  0  0  0  0  0  0  0  0
   44.9798   14.7647  -13.3471 C   0  0  0  0  0  0  0  0  0  0  0  0
 27 28  1  0  0  0
 28 29  2  0  0  0
 29 30  1  0  0  0
 30 31  2  0  0  0
 31 32  1  0  0  0
 31 33  1  0  0  0
 33 34  2  0  0  0
 33 25  1  0  0  0
 25 26  3  0  0  0
 26  1  1  0  0  0
  1  2  2  0  0  0
  2  3  1  0  0  0
  3  4  1  0  0  0
  4  5  2  0  0  0
  5  6  1  0  0  0
  6  7  2  0  0  0
  7  8  1  0  0  0
  8  9  2  0  0  0
  6 11  1  0  0  0
 11 12  2  0  0  0
 12 13  1  0  0  0
 13 14  2  0  0  0
 14 17  1  0  0  0
 17 19  1  0  0  0
 19 20  2  0  0  0
 19 21  2  0  0  0
 19 22  1  0  0  0
 22 23  1  0  0  0
 23 24  1  0  0  0
 14 15  1  0  0  0
 15 16  2  0  0  0
 34 28  1  0  0  0
  9  1  1  0  0  0
 16 11  1  0  0  0
  9  4  1  0  0  0
 24 22  1  0  0  0
  3 10  1  0  0  0
 17 18  1  0  0  0
M  END
> <minimizedAffinity>
-7.31779

> <CNNscore>
0.1352591068

> <CNNaffinity>
6.6696443558

> <CNN_VS>
0.9021301270

> <CNNaffinity_variance>
0.0849412084

$$$$
[H]c1nc2c(C#Cc3c([H])c(C([H])([H])[H])c([H])c([H])c3Cl)c([H])n([H])c2nc1-c1c([H])c([H])c(N([H])S(=O)(=O)C2([H])C([H])([H])C2([H])[H])c([H])c1[H]


 34 38  0  0  0  0  0  0  0  0999 V2000
   37.3756   12.9914  -14.9079 C   0  0  0  0  0  0  0  0  0  0  0  0
   37.1382   12.1551  -15.9798 C   0  0  0  0  0  0  0  0  0  0  0  0
   38.2811   11.8275  -16.5863 N   0  0  0  0  0  0  0  0  0  0  0  0
   39.2781   12.4440  -15.9203 C   0  0  0  0  0  0  0  0  0  0  0  0
   40.5899   12.4545  -16.1045 N   0  0  0  0  0  0  0  0  0  0  0  0
   41.4225   13.1563  -15.3005 C   0  0  0  0  0  0  0  0  0  0  0  0
   40.8847   13.8766  -14.2651 C   0  0  0  0  0  0  0  0  0  0  0  0
   39.5434   13.8923  -14.0417 N   0  0  0  0  0  0  0  0  0  0  0  0
   38.7460   13.1855  -14.8577 C   0  0  0  0  0  0  0  0  0  0  0  0
   38.4029   11.2194  -17.4104 H   0  0  0  0  0  0  0  0  0  0  0  0
   42.8495   13.0923  -15.6008 C   0  0  0  0  0  0  0  0  0  0  0  0
   43.3979   12.2268  -16.5177 C   0  0  0  0  0  0  0  0  0  0  0  0
   44.7501   12.2115  -16.7592 C   0  0  0  0  0  0  0  0  0  0  0  0
   45.6456   13.0502  -16.1103 C   0  0  0  0  0  0  0  0  0  0  0  0
   45.0934   13.9160  -15.1924 C   0  0  0  0  0  0  0  0  0  0  0  0
   43.7379   13.9316  -14.9501 C   0  0  0  0  0  0  0  0  0  0  0  0
   47.0345   13.0016  -16.3933 N   0  0  0  0  0  0  0  0  0  0  0  0
   47.3075   13.0377  -17.4171 H   0  0  0  0  0  0  0  0  0  0  0  0
   48.2653   12.8903  -15.1975 S   0  0  0  0  0  0  0  0  0  0  0  0
   47.6882   12.2504  -13.9763 O   0  0  0  0  0  0  0  0  0  0  0  0
   49.3676   11.9652  -15.6863 O   0  0  0  0  0  0  0  0  0  0  0  0
   48.8878   14.4953  -14.8361 C   0  0  0  0  0  0  0  0  0  0  0  0
   48.0376   15.3816  -13.9376 C   0  0  0  0  0  0  0  0  0  0  0  0
   49.3670   14.8346  -13.4715 C   0  0  0  0  0  0  0  0  0  0  0  0
   35.6515   14.0644  -13.2188 C   0  0  0  0  0  0  0  0  0  0  0  0
   36.4481   13.5808  -13.9870 C   0  0  0  0  0  0  0  0  0  0  0  0
   34.6217   16.4112   -8.9686 C   0  0  0  0  0  0  0  0  0  0  0  0
   34.1911   15.7786  -10.2287 C   0  0  0  0  0  0  0  0  0  0  0  0
   32.8550   15.7324  -10.5320 C   0  0  0  0  0  0  0  0  0  0  0  0
   32.4272   15.1463  -11.7043 C   0  0  0  0  0  0  0  0  0  0  0  0
   33.3729   14.6149  -12.5513 C   0  0  0  0  0  0  0  0  0  0  0  0
   32.8419   13.8647  -14.0494 Cl  0  0  0  0  0  0  0  0  0  0  0  0
   34.7241   14.6370  -12.2909 C   0  0  0  0  0  0  0  0  0  0  0  0
   35.1059   15.2405  -11.0935 C   0  0  0  0  0  0  0  0  0  0  0  0
 27 28  1  0  0  0
 28 29  2  0  0  0
 29 30  1  0  0  0
 30 31  2  0  0  0
 31 32  1  0  0  0
 31 33  1  0  0  0
 33 34  2  0  0  0
 33 25  1  0  0  0
 25 26  3  0  0  0
 26  1  1  0  0  0
  1  2  2  0  0  0
  2  3  1  0  0  0
  3  4  1  0  0  0
  4  5  2  0  0  0
  5  6  1  0  0  0
  6  7  2  0  0  0
  7  8  1  0  0  0
  8  9  2  0  0  0
  6 11  1  0  0  0
 11 12  2  0  0  0
 12 13  1  0  0  0
 13 14  2  0  0  0
 14 17  1  0  0  0
 17 19  1  0  0  0
 19 20  2  0  0  0
 19 21  2  0  0  0
 19 22  1  0  0  0
 22 23  1  0  0  0
 23 24  1  0  0  0
 14 15  1  0  0  0
 15 16  2  0  0  0
 34 28  1  0  0  0
  9  1  1  0  0  0
 16 11  1  0  0  0
  9  4  1  0  0  0
 24 22  1  0  0  0
  3 10  1  0  0  0
 17 18  1  0  0  0
M  END
> <minimizedAffinity>
-8.06600

> <CNNscore>
0.1099907011

> <CNNaffinity>
6.5850844383

> <CNN_VS>
0.7242980599

> <CNNaffinity_variance>
0.1968316436

$$$$
[H]c1nc2c(C#Cc3c([H])c(C([H])([H])[H])c([H])c([H])c3Cl)c([H])n([H])c2nc1-c1c([H])c([H])c(N([H])S(=O)(=O)C2([H])C([H])([H])C2([H])[H])c([H])c1[H]


 34 38  0  0  0  0  0  0  0  0999 V2000
   35.9315   12.8185  -14.8834 C   0  0  0  0  0  0  0  0  0  0  0  0
   35.7261   11.9459  -15.9328 C   0  0  0  0  0  0  0  0  0  0  0  0
   36.8840   11.6220  -16.5122 N   0  0  0  0  0  0  0  0  0  0  0  0
   37.8591   12.2771  -15.8506 C   0  0  0  0  0  0  0  0  0  0  0  0
   39.1732   12.3071  -16.0158 N   0  0  0  0  0  0  0  0  0  0  0  0
   39.9801   13.0486  -15.2213 C   0  0  0  0  0  0  0  0  0  0  0  0
   39.4133   13.7894  -14.2163 C   0  0  0  0  0  0  0  0  0  0  0  0
   38.0686   13.7863  -14.0133 N   0  0  0  0  0  0  0  0  0  0  0  0
   37.2972   13.0401  -14.8190 C   0  0  0  0  0  0  0  0  0  0  0  0
   37.0297   10.9917  -17.3155 H   0  0  0  0  0  0  0  0  0  0  0  0
   41.4125   13.0028  -15.4985 C   0  0  0  0  0  0  0  0  0  0  0  0
   41.9600   12.3499  -16.5776 C   0  0  0  0  0  0  0  0  0  0  0  0
   43.3175   12.3408  -16.7880 C   0  0  0  0  0  0  0  0  0  0  0  0
   44.2194   12.9761  -15.9458 C   0  0  0  0  0  0  0  0  0  0  0  0
   43.6681   13.6292  -14.8657 C   0  0  0  0  0  0  0  0  0  0  0  0
   42.3073   13.6385  -14.6546 C   0  0  0  0  0  0  0  0  0  0  0  0
   45.6137   12.9427  -16.2033 N   0  0  0  0  0  0  0  0  0  0  0  0
   45.9027   12.8871  -17.2219 H   0  0  0  0  0  0  0  0  0  0  0  0
   46.8270   12.9863  -14.9855 S   0  0  0  0  0  0  0  0  0  0  0  0
   46.4846   11.9808  -13.9340 O   0  0  0  0  0  0  0  0  0  0  0  0
   48.1578   12.5520  -15.5771 O   0  0  0  0  0  0  0  0  0  0  0  0
   46.9254   14.6051  -14.3042 C   0  0  0  0  0  0  0  0  0  0  0  0
   46.6064   14.7537  -12.8237 C   0  0  0  0  0  0  0  0  0  0  0  0
   48.0071   14.9635  -13.3510 C   0  0  0  0  0  0  0  0  0  0  0  0
   34.1736   13.9031  -13.2372 C   0  0  0  0  0  0  0  0  0  0  0  0
   34.9792   13.4176  -13.9946 C   0  0  0  0  0  0  0  0  0  0  0  0
   29.5310   14.6714  -11.6597 C   0  0  0  0  0  0  0  0  0  0  0  0
   30.9844   14.8901  -11.5441 C   0  0  0  0  0  0  0  0  0  0  0  0
   31.4628   15.6906  -10.5393 C   0  0  0  0  0  0  0  0  0  0  0  0
   32.8177   15.9105  -10.4101 C   0  0  0  0  0  0  0  0  0  0  0  0
   33.6656   15.3081  -11.3115 C   0  0  0  0  0  0  0  0  0  0  0  0
   35.3953   15.5797  -11.1587 Cl  0  0  0  0  0  0  0  0  0  0  0  0
   33.2335   14.4972  -12.3359 C   0  0  0  0  0  0  0  0  0  0  0  0
   31.8553   14.3060  -12.4241 C   0  0  0  0  0  0  0  0  0  0  0  0
 27 28  1  0  0  0
 28 29  2  0  0  0
 29 30  1  0  0  0
 30 31  2  0  0  0
 31 32  1  0  0  0
 31 33  1  0  0  0
 33 34  2  0  0  0
 33 25  1  0  0  0
 25 26  3  0  0  0
 26  1  1  0  0  0
  1  2  2  0  0  0
  2  3  1  0  0  0
  3  4  1  0  0  0
  4  5  2  0  0  0
  5  6  1  0  0  0
  6  7  2  0  0  0
  7  8  1  0  0  0
  8  9  2  0  0  0
  6 11  1  0  0  0
 11 12  2  0  0  0
 12 13  1  0  0  0
 13 14  2  0  0  0
 14 17  1  0  0  0
 17 19  1  0  0  0
 19 20  2  0  0  0
 19 21  2  0  0  0
 19 22  1  0  0  0
 22 23  1  0  0  0
 23 24  1  0  0  0
 14 15  1  0  0  0
 15 16  2  0  0  0
 34 28  1  0  0  0
  9  1  1  0  0  0
 16 11  1  0  0  0
  9  4  1  0  0  0
 24 22  1  0  0  0
  3 10  1  0  0  0
 17 18  1  0  0  0
M  END
> <minimizedAffinity>
-8.81108

> <CNNscore>
0.0929367542

> <CNNaffinity>
6.5418686867

> <CNN_VS>
0.6079800129

> <CNNaffinity_variance>
0.0997518599

$$$$
[H]c1nc2c(C#Cc3c([H])c(C([H])([H])[H])c([H])c([H])c3Cl)c([H])n([H])c2nc1-c1c([H])c([H])c(N([H])S(=O)(=O)C2([H])C([H])([H])C2([H])[H])c([H])c1[H]


 34 38  0  0  0  0  0  0  0  0999 V2000
   34.9750   13.7836  -13.8376 C   0  0  0  0  0  0  0  0  0  0  0  0
   33.6176   13.7803  -14.0870 C   0  0  0  0  0  0  0  0  0  0  0  0
   32.9529   14.3767  -13.0951 N   0  0  0  0  0  0  0  0  0  0  0  0
   33.8651   14.7767  -12.1865 C   0  0  0  0  0  0  0  0  0  0  0  0
   33.7414   15.4097  -11.0294 N   0  0  0  0  0  0  0  0  0  0  0  0
   34.8125   15.7188  -10.2617 C   0  0  0  0  0  0  0  0  0  0  0  0
   36.0615   15.3626  -10.7013 C   0  0  0  0  0  0  0  0  0  0  0  0
   36.2317   14.7118  -11.8831 N   0  0  0  0  0  0  0  0  0  0  0  0
   35.1486   14.4205  -12.6200 C   0  0  0  0  0  0  0  0  0  0  0  0
   31.9341   14.5167  -13.0169 H   0  0  0  0  0  0  0  0  0  0  0  0
   34.5531   16.4174   -9.0066 C   0  0  0  0  0  0  0  0  0  0  0  0
   35.4598   17.2522   -8.3970 C   0  0  0  0  0  0  0  0  0  0  0  0
   35.1598   17.8839   -7.2145 C   0  0  0  0  0  0  0  0  0  0  0  0
   33.9455   17.7307   -6.5601 C   0  0  0  0  0  0  0  0  0  0  0  0
   33.0394   16.8939   -7.1730 C   0  0  0  0  0  0  0  0  0  0  0  0
   33.3398   16.2606   -8.3584 C   0  0  0  0  0  0  0  0  0  0  0  0
   33.6778   18.4049   -5.3414 N   0  0  0  0  0  0  0  0  0  0  0  0
   33.4989   17.7926   -4.4945 H   0  0  0  0  0  0  0  0  0  0  0  0
   33.6291   20.1151   -5.1687 S   0  0  0  0  0  0  0  0  0  0  0  0
   32.9421   20.4460   -3.8832 O   0  0  0  0  0  0  0  0  0  0  0  0
   35.0447   20.6552   -5.0499 O   0  0  0  0  0  0  0  0  0  0  0  0
   32.7842   20.8256   -6.5383 C   0  0  0  0  0  0  0  0  0  0  0  0
   31.3306   20.4230   -6.7397 C   0  0  0  0  0  0  0  0  0  0  0  0
   31.7077   21.8279   -6.3298 C   0  0  0  0  0  0  0  0  0  0  0  0
   36.9408   12.8086  -15.3079 C   0  0  0  0  0  0  0  0  0  0  0  0
   36.0495   13.2564  -14.6271 C   0  0  0  0  0  0  0  0  0  0  0  0
   41.7382   12.6100  -16.5635 C   0  0  0  0  0  0  0  0  0  0  0  0
   40.3403   12.1772  -16.7418 C   0  0  0  0  0  0  0  0  0  0  0  0
   40.0449   11.2495  -17.7069 C   0  0  0  0  0  0  0  0  0  0  0  0
   38.7454   10.8286  -17.8932 C   0  0  0  0  0  0  0  0  0  0  0  0
   37.7646   11.3630  -17.0890 C   0  0  0  0  0  0  0  0  0  0  0  0
   36.1034   10.8355  -17.3153 Cl  0  0  0  0  0  0  0  0  0  0  0  0
   38.0114   12.2958  -16.1078 C   0  0  0  0  0  0  0  0  0  0  0  0
   39.3407   12.6888  -15.9588 C   0  0  0  0  0  0  0  0  0  0  0  0
 27 28  1  0  0  0
 28 29  2  0  0  0
 29 30  1  0  0  0
 30 31  2  0  0  0
 31 32  1  0  0  0
 31 33  1  0  0  0
 33 34  2  0  0  0
 33 25  1  0  0  0
 25 26  3  0  0  0
 26  1  1  0  0  0
  1  2  2  0  0  0
  2  3  1  0  0  0
  3  4  1  0  0  0
  4  5  2  0  0  0
  5  6  1  0  0  0
  6  7  2  0  0  0
  7  8  1  0  0  0
  8  9  2  0  0  0
  6 11  1  0  0  0
 11 12  2  0  0  0
 12 13  1  0  0  0
 13 14  2  0  0  0
 14 17  1  0  0  0
 17 19  1  0  0  0
 19 20  2  0  0  0
 19 21  2  0  0  0
 19 22  1  0  0  0
 22 23  1  0  0  0
 23 24  1  0  0  0
 14 15  1  0  0  0
 15 16  2  0  0  0
 34 28  1  0  0  0
  9  1  1  0  0  0
 16 11  1  0  0  0
  9  4  1  0  0  0
 24 22  1  0  0  0
  3 10  1  0  0  0
 17 18  1  0  0  0
M  END
> <minimizedAffinity>
-8.91211

> <CNNscore>
0.0926579759

> <CNNaffinity>
6.4433655739

> <CNN_VS>
0.5970292091

> <CNNaffinity_variance>
0.0874358788

$$$$
[H]c1nc2c(C#Cc3c([H])c(C([H])([H])[H])c([H])c([H])c3Cl)c([H])n([H])c2nc1-c1c([H])c([H])c(N([H])S(=O)(=O)C2([H])C([H])([H])C2([H])[H])c([H])c1[H]


 34 38  0  0  0  0  0  0  0  0999 V2000
   43.2128   13.7105  -15.0734 C   0  0  0  0  0  0  0  0  0  0  0  0
   44.3877   13.5869  -15.7868 C   0  0  0  0  0  0  0  0  0  0  0  0
   45.3979   14.1715  -15.1393 N   0  0  0  0  0  0  0  0  0  0  0  0
   44.8975   14.6837  -13.9970 C   0  0  0  0  0  0  0  0  0  0  0  0
   45.4650   15.3558  -13.0064 N   0  0  0  0  0  0  0  0  0  0  0  0
   44.7606   15.7839  -11.9328 C   0  0  0  0  0  0  0  0  0  0  0  0
   43.4183   15.5101  -11.8751 C   0  0  0  0  0  0  0  0  0  0  0  0
   42.7975   14.8230  -12.8710 N   0  0  0  0  0  0  0  0  0  0  0  0
   43.5252   14.4129  -13.9214 C   0  0  0  0  0  0  0  0  0  0  0  0
   46.3834   14.2325  -15.4373 H   0  0  0  0  0  0  0  0  0  0  0  0
   45.4935   16.5147  -10.9036 C   0  0  0  0  0  0  0  0  0  0  0  0
   46.6541   17.2119  -11.1434 C   0  0  0  0  0  0  0  0  0  0  0  0
   47.3013   17.8821  -10.1339 C   0  0  0  0  0  0  0  0  0  0  0  0
   46.8426   17.9059   -8.8242 C   0  0  0  0  0  0  0  0  0  0  0  0
   45.6799   17.2067   -8.5869 C   0  0  0  0  0  0  0  0  0  0  0  0
   45.0309   16.5348   -9.5987 C   0  0  0  0  0  0  0  0  0  0  0  0
   47.5423   18.6138   -7.8137 N   0  0  0  0  0  0  0  0  0  0  0  0
   48.5982   18.6417   -7.9043 H   0  0  0  0  0  0  0  0  0  0  0  0
   46.7901   19.4070   -6.4863 S   0  0  0  0  0  0  0  0  0  0  0  0
   47.6857   20.5083   -6.0183 O   0  0  0  0  0  0  0  0  0  0  0  0
   45.5035   20.0688   -6.9515 O   0  0  0  0  0  0  0  0  0  0  0  0
   46.4863   18.2485   -5.1980 C   0  0  0  0  0  0  0  0  0  0  0  0
   47.6960   17.5460   -4.5990 C   0  0  0  0  0  0  0  0  0  0  0  0
   46.8910   18.5443   -3.7995 C   0  0  0  0  0  0  0  0  0  0  0  0
   40.7827   12.8447  -15.6409 C   0  0  0  0  0  0  0  0  0  0  0  0
   41.8974   13.2367  -15.3918 C   0  0  0  0  0  0  0  0  0  0  0  0
   37.5969   10.4066  -18.5630 C   0  0  0  0  0  0  0  0  0  0  0  0
   37.8883   11.2093  -17.3612 C   0  0  0  0  0  0  0  0  0  0  0  0
   36.8643   11.5361  -16.5103 C   0  0  0  0  0  0  0  0  0  0  0  0
   37.1111   12.2857  -15.3799 C   0  0  0  0  0  0  0  0  0  0  0  0
   38.4034   12.6914  -15.1350 C   0  0  0  0  0  0  0  0  0  0  0  0
   38.7326   13.6476  -13.6976 Cl  0  0  0  0  0  0  0  0  0  0  0  0
   39.4635   12.3888  -15.9586 C   0  0  0  0  0  0  0  0  0  0  0  0
   39.1624   11.6289  -17.0881 C   0  0  0  0  0  0  0  0  0  0  0  0
 27 28  1  0  0  0
 28 29  2  0  0  0
 29 30  1  0  0  0
 30 31  2  0  0  0
 31 32  1  0  0  0
 31 33  1  0  0  0
 33 34  2  0  0  0
 33 25  1  0  0  0
 25 26  3  0  0  0
 26  1  1  0  0  0
  1  2  2  0  0  0
  2  3  1  0  0  0
  3  4  1  0  0  0
  4  5  2  0  0  0
  5  6  1  0  0  0
  6  7  2  0  0  0
  7  8  1  0  0  0
  8  9  2  0  0  0
  6 11  1  0  0  0
 11 12  2  0  0  0
 12 13  1  0  0  0
 13 14  2  0  0  0
 14 17  1  0  0  0
 17 19  1  0  0  0
 19 20  2  0  0  0
 19 21  2  0  0  0
 19 22  1  0  0  0
 22 23  1  0  0  0
 23 24  1  0  0  0
 14 15  1  0  0  0
 15 16  2  0  0  0
 34 28  1  0  0  0
  9  1  1  0  0  0
 16 11  1  0  0  0
  9  4  1  0  0  0
 24 22  1  0  0  0
  3 10  1  0  0  0
 17 18  1  0  0  0
M  END
> <minimizedAffinity>
-7.02454

> <CNNscore>
0.0882829651

> <CNNaffinity>
5.8885016441

> <CNN_VS>
0.5198543668

> <CNNaffinity_variance>
0.1547899395

$$$$
[H]O[C@@]1([H])C([H])([H])C([H])([H])[C@]2([H])C([H])([H])C([H])([H])[C@@]3([H])C([H])=C([H])[C@@]3([H])C3([H])C([H])([H])[C@]([H])(C([H])=O)[C@]1(N([H])[H])C([H])([H])C([H])([H])C([H])([H])[C@]32[H]


 25 28  0  0  0  0  0  0  0  0999 V2000
   36.4500   15.7052   -6.8857 N   0  0  0  0  0  0  0  0  0  0  0  0
   37.9413   15.6765   -7.0594 C   0  0  0  0  0  0  0  0  0  0  0  0
   38.0356   15.5562   -8.5499 C   0  0  0  0  0  0  0  0  0  0  0  0
   39.2473   15.6062   -9.2875 C   0  0  0  0  0  0  0  0  0  0  0  0
   40.5681   15.9747   -8.7275 C   0  0  0  0  0  0  0  0  0  0  0  0
   41.1026   15.2390   -7.5705 C   0  0  0  0  0  0  0  0  0  0  0  0
   41.2428   15.8991   -6.2509 C   0  0  0  0  0  0  0  0  0  0  0  0
   42.6395   15.6794   -5.6808 C   0  0  0  0  0  0  0  0  0  0  0  0
   42.6703   14.2752   -5.1946 C   0  0  0  0  0  0  0  0  0  0  0  0
   42.7352   13.1860   -6.2126 C   0  0  0  0  0  0  0  0  0  0  0  0
   41.6726   12.8604   -7.0946 C   0  0  0  0  0  0  0  0  0  0  0  0
   41.4193   11.7071   -6.3215 C   0  0  0  0  0  0  0  0  0  0  0  0
   42.3708   11.9598   -5.5008 C   0  0  0  0  0  0  0  0  0  0  0  0
   40.5624   13.8540   -7.3972 C   0  0  0  0  0  0  0  0  0  0  0  0
   39.4237   13.6217   -6.5254 C   0  0  0  0  0  0  0  0  0  0  0  0
   38.2932   14.4741   -6.2619 C   0  0  0  0  0  0  0  0  0  0  0  0
   40.7981   17.2681   -6.0516 C   0  0  0  0  0  0  0  0  0  0  0  0
   39.3370   17.2415   -5.5583 C   0  0  0  0  0  0  0  0  0  0  0  0
   38.3237   17.0268   -6.5760 C   0  0  0  0  0  0  0  0  0  0  0  0
   37.2055   17.8357   -6.1981 O   0  0  0  0  0  0  0  0  0  0  0  0
   36.1880   15.5258   -5.9169 H   0  0  0  0  0  0  0  0  0  0  0  0
   35.9511   15.2422   -7.6317 H   0  0  0  0  0  0  0  0  0  0  0  0
   36.7167   18.1532   -6.9749 H   0  0  0  0  0  0  0  0  0  0  0  0
   37.1186   13.5357   -6.0600 C   0  0  0  0  0  0  0  0  0  0  0  0
   36.9802   12.4892   -6.6388 O   0  0  0  0  0  0  0  0  0  0  0  0
  2  1  1  0  0  0
  2  3  1  0  0  0
  3  4  1  0  0  0
  4  5  1  0  0  0
  5  6  1  0  0  0
  6  7  1  0  0  0
  7  8  1  0  0  0
  8  9  1  0  0  0
  9 10  1  0  0  0
 10 11  1  0  0  0
 11 12  1  0  0  0
 12 13  2  0  0  0
 11 14  1  0  0  0
 14 15  1  0  0  0
 15 16  1  0  0  0
 16 24  1  0  0  0
 24 25  2  0  0  0
  7 17  1  0  0  0
 17 18  1  0  0  0
 18 19  1  0  0  0
 19 20  1  0  0  0
 16  2  1  0  0  0
 19  2  1  0  0  0
 14  6  1  0  0  0
 13 10  1  0  0  0
  1 21  1  0  0  0
  1 22  1  0  0  0
 20 23  1  0  0  0
M  END
> <minimizedAffinity>
-4.82422

> <CNNscore>
0.6137192845

> <CNNaffinity>
4.7943835258

> <CNN_VS>
2.9424057007

> <CNNaffinity_variance>
0.0411765277

$$$$
[H]O[C@@]1([H])C([H])([H])C([H])([H])[C@]2([H])C([H])([H])C([H])([H])[C@@]3([H])C([H])=C([H])[C@@]3([H])C3([H])C([H])([H])[C@]([H])(C([H])=O)[C@]1(N([H])[H])C([H])([H])C([H])([H])C([H])([H])[C@]32[H]


 25 28  0  0  0  0  0  0  0  0999 V2000
   36.1124   19.1302   -8.2955 N   0  0  0  0  0  0  0  0  0  0  0  0
   36.5249   17.7542   -7.8580 C   0  0  0  0  0  0  0  0  0  0  0  0
   36.0191   16.9430   -9.0116 C   0  0  0  0  0  0  0  0  0  0  0  0
   36.2488   15.5525   -9.1815 C   0  0  0  0  0  0  0  0  0  0  0  0
   37.1740   14.7379   -8.3603 C   0  0  0  0  0  0  0  0  0  0  0  0
   37.0193   14.7081   -6.8972 C   0  0  0  0  0  0  0  0  0  0  0  0
   38.0388   15.3229   -6.0141 C   0  0  0  0  0  0  0  0  0  0  0  0
   38.4623   14.3520   -4.9177 C   0  0  0  0  0  0  0  0  0  0  0  0
   37.3482   14.3294   -3.9340 C   0  0  0  0  0  0  0  0  0  0  0  0
   36.0965   13.6116   -4.3146 C   0  0  0  0  0  0  0  0  0  0  0  0
   35.2019   14.0567   -5.3219 C   0  0  0  0  0  0  0  0  0  0  0  0
   34.3032   14.4569   -4.3100 C   0  0  0  0  0  0  0  0  0  0  0  0
   35.0781   14.0668   -3.3665 C   0  0  0  0  0  0  0  0  0  0  0  0
   35.6457   15.0330   -6.3996 C   0  0  0  0  0  0  0  0  0  0  0  0
   35.3144   16.3946   -6.0166 C   0  0  0  0  0  0  0  0  0  0  0  0
   35.7872   17.6352   -6.5746 C   0  0  0  0  0  0  0  0  0  0  0  0
   39.1827   16.0240   -6.5722 C   0  0  0  0  0  0  0  0  0  0  0  0
   38.8221   17.5173   -6.7103 C   0  0  0  0  0  0  0  0  0  0  0  0
   38.0045   17.8731   -7.8563 C   0  0  0  0  0  0  0  0  0  0  0  0
   38.4750   19.1506   -8.2970 O   0  0  0  0  0  0  0  0  0  0  0  0
   36.1437   19.7892   -7.5181 H   0  0  0  0  0  0  0  0  0  0  0  0
   35.3179   19.1308   -8.9187 H   0  0  0  0  0  0  0  0  0  0  0  0
   38.3775   19.2542   -9.2576 H   0  0  0  0  0  0  0  0  0  0  0  0
   34.6160   18.5942   -6.4763 C   0  0  0  0  0  0  0  0  0  0  0  0
   33.4703   18.2879   -6.6835 O   0  0  0  0  0  0  0  0  0  0  0  0
  2  1  1  0  0  0
  2  3  1  0  0  0
  3  4  1  0  0  0
  4  5  1  0  0  0
  5  6  1  0  0  0
  6  7  1  0  0  0
  7  8  1  0  0  0
  8  9  1  0  0  0
  9 10  1  0  0  0
 10 11  1  0  0  0
 11 12  1  0  0  0
 12 13  2  0  0  0
 11 14  1  0  0  0
 14 15  1  0  0  0
 15 16  1  0  0  0
 16 24  1  0  0  0
 24 25  2  0  0  0
  7 17  1  0  0  0
 17 18  1  0  0  0
 18 19  1  0  0  0
 19 20  1  0  0  0
 16  2  1  0  0  0
 19  2  1  0  0  0
 14  6  1  0  0  0
 13 10  1  0  0  0
  1 21  1  0  0  0
  1 22  1  0  0  0
 20 23  1  0  0  0
M  END
> <minimizedAffinity>
-5.04043

> <CNNscore>
0.4667570293

> <CNNaffinity>
4.8777990341

> <CNN_VS>
2.2767469883

> <CNNaffinity_variance>
0.1711030006

$$$$
[H]O[C@@]1([H])C([H])([H])C([H])([H])[C@]2([H])C([H])([H])C([H])([H])[C@@]3([H])C([H])=C([H])[C@@]3([H])C3([H])C([H])([H])[C@]([H])(C([H])=O)[C@]1(N([H])[H])C([H])([H])C([H])([H])C([H])([H])[C@]32[H]


 25 28  0  0  0  0  0  0  0  0999 V2000
   33.4173   14.6848   -7.4727 N   0  0  0  0  0  0  0  0  0  0  0  0
   34.4815   15.1526   -6.5221 C   0  0  0  0  0  0  0  0  0  0  0  0
   34.0777   16.5853   -6.3511 C   0  0  0  0  0  0  0  0  0  0  0  0
   34.6847   17.4909   -5.4421 C   0  0  0  0  0  0  0  0  0  0  0  0
   35.6662   17.1163   -4.3979 C   0  0  0  0  0  0  0  0  0  0  0  0
   36.8962   16.4011   -4.7737 C   0  0  0  0  0  0  0  0  0  0  0  0
   37.1108   14.9934   -4.3623 C   0  0  0  0  0  0  0  0  0  0  0  0
   38.4815   14.8202   -3.7179 C   0  0  0  0  0  0  0  0  0  0  0  0
   39.4664   14.8447   -4.8307 C   0  0  0  0  0  0  0  0  0  0  0  0
   39.7541   16.1579   -5.4785 C   0  0  0  0  0  0  0  0  0  0  0  0
   38.8242   16.8666   -6.2821 C   0  0  0  0  0  0  0  0  0  0  0  0
   39.5612   16.4866   -7.4240 C   0  0  0  0  0  0  0  0  0  0  0  0
   40.4270   15.8363   -6.7382 C   0  0  0  0  0  0  0  0  0  0  0  0
   37.3312   16.5934   -6.1927 C   0  0  0  0  0  0  0  0  0  0  0  0
   36.9293   15.6394   -7.2120 C   0  0  0  0  0  0  0  0  0  0  0  0
   35.7059   14.8873   -7.3196 C   0  0  0  0  0  0  0  0  0  0  0  0
   36.0861   14.2660   -3.6325 C   0  0  0  0  0  0  0  0  0  0  0  0
   35.1914   13.5280   -4.6492 C   0  0  0  0  0  0  0  0  0  0  0  0
   34.1868   14.3349   -5.3188 C   0  0  0  0  0  0  0  0  0  0  0  0
   33.0384   13.4942   -5.4673 O   0  0  0  0  0  0  0  0  0  0  0  0
   33.6743   13.7990   -7.9070 H   0  0  0  0  0  0  0  0  0  0  0  0
   33.0335   15.4264   -8.0404 H   0  0  0  0  0  0  0  0  0  0  0  0
   32.2144   14.0070   -5.4316 H   0  0  0  0  0  0  0  0  0  0  0  0
   35.4288   14.7781   -8.8070 C   0  0  0  0  0  0  0  0  0  0  0  0
   36.2083   14.3353   -9.6106 O   0  0  0  0  0  0  0  0  0  0  0  0
  2  1  1  0  0  0
  2  3  1  0  0  0
  3  4  1  0  0  0
  4  5  1  0  0  0
  5  6  1  0  0  0
  6  7  1  0  0  0
  7  8  1  0  0  0
  8  9  1  0  0  0
  9 10  1  0  0  0
 10 11  1  0  0  0
 11 12  1  0  0  0
 12 13  2  0  0  0
 11 14  1  0  0  0
 14 15  1  0  0  0
 15 16  1  0  0  0
 16 24  1  0  0  0
 24 25  2  0  0  0
  7 17  1  0  0  0
 17 18  1  0  0  0
 18 19  1  0  0  0
 19 20  1  0  0  0
 16  2  1  0  0  0
 19  2  1  0  0  0
 14  6  1  0  0  0
 13 10  1  0  0  0
  1 21  1  0  0  0
  1 22  1  0  0  0
 20 23  1  0  0  0
M  END
> <minimizedAffinity>
-5.37156

> <CNNscore>
0.4632299244

> <CNNaffinity>
4.9369606972

> <CNN_VS>
2.2869479656

> <CNNaffinity_variance>
0.2458074987

$$$$
[H]O[C@@]1([H])C([H])([H])C([H])([H])[C@]2([H])C([H])([H])C([H])([H])[C@@]3([H])C([H])=C([H])[C@@]3([H])C3([H])C([H])([H])[C@]([H])(C([H])=O)[C@]1(N([H])[H])C([H])([H])C([H])([H])C([H])([H])[C@]32[H]


 25 28  0  0  0  0  0  0  0  0999 V2000
   40.9977   14.3046   -8.1747 N   0  0  0  0  0  0  0  0  0  0  0  0
   42.2492   13.8200   -7.5009 C   0  0  0  0  0  0  0  0  0  0  0  0
   43.0594   13.4194   -8.6958 C   0  0  0  0  0  0  0  0  0  0  0  0
   44.4116   12.9905   -8.6458 C   0  0  0  0  0  0  0  0  0  0  0  0
   45.2802   13.0572   -7.4479 C   0  0  0  0  0  0  0  0  0  0  0  0
   44.8503   12.4131   -6.1965 C   0  0  0  0  0  0  0  0  0  0  0  0
   44.4941   13.2254   -5.0090 C   0  0  0  0  0  0  0  0  0  0  0  0
   45.2198   12.7179   -3.7680 C   0  0  0  0  0  0  0  0  0  0  0  0
   44.5199   11.4712   -3.3619 C   0  0  0  0  0  0  0  0  0  0  0  0
   44.7360   10.2487   -4.1900 C   0  0  0  0  0  0  0  0  0  0  0  0
   44.2523   10.0922   -5.5146 C   0  0  0  0  0  0  0  0  0  0  0  0
   43.2641    9.2134   -5.0218 C   0  0  0  0  0  0  0  0  0  0  0  0
   43.6681    9.3223   -3.8103 C   0  0  0  0  0  0  0  0  0  0  0  0
   43.8716   11.2935   -6.3653 C   0  0  0  0  0  0  0  0  0  0  0  0
   42.4457   11.5531   -6.2652 C   0  0  0  0  0  0  0  0  0  0  0  0
   41.7068   12.7258   -6.6558 C   0  0  0  0  0  0  0  0  0  0  0  0
   44.5003   14.6772   -5.0701 C   0  0  0  0  0  0  0  0  0  0  0  0
   43.0874   15.1568   -5.4611 C   0  0  0  0  0  0  0  0  0  0  0  0
   42.7502   15.0670   -6.8706 C   0  0  0  0  0  0  0  0  0  0  0  0
   41.9468   16.2153   -7.1594 O   0  0  0  0  0  0  0  0  0  0  0  0
   40.2272   14.3799   -7.5113 H   0  0  0  0  0  0  0  0  0  0  0  0
   40.8395   13.8811   -9.0776 H   0  0  0  0  0  0  0  0  0  0  0  0
   42.0743   16.5188   -8.0730 H   0  0  0  0  0  0  0  0  0  0  0  0
   40.3650   12.2136   -7.1437 C   0  0  0  0  0  0  0  0  0  0  0  0
   39.3193   12.4097   -6.5803 O   0  0  0  0  0  0  0  0  0  0  0  0
  2  1  1  0  0  0
  2  3  1  0  0  0
  3  4  1  0  0  0
  4  5  1  0  0  0
  5  6  1  0  0  0
  6  7  1  0  0  0
  7  8  1  0  0  0
  8  9  1  0  0  0
  9 10  1  0  0  0
 10 11  1  0  0  0
 11 12  1  0  0  0
 12 13  2  0  0  0
 11 14  1  0  0  0
 14 15  1  0  0  0
 15 16  1  0  0  0
 16 24  1  0  0  0
 24 25  2  0  0  0
  7 17  1  0  0  0
 17 18  1  0  0  0
 18 19  1  0  0  0
 19 20  1  0  0  0
 16  2  1  0  0  0
 19  2  1  0  0  0
 14  6  1  0  0  0
 13 10  1  0  0  0
  1 21  1  0  0  0
  1 22  1  0  0  0
 20 23  1  0  0  0
M  END
> <minimizedAffinity>
-5.46792

> <CNNscore>
0.4325596392

> <CNNaffinity>
4.6835136414

> <CNN_VS>
2.0258989334

> <CNNaffinity_variance>
0.1431124508

$$$$
[H]O[C@@]1([H])C([H])([H])C([H])([H])[C@]2([H])C([H])([H])C([H])([H])[C@@]3([H])C([H])=C([H])[C@@]3([H])C3([H])C([H])([H])[C@]([H])(C([H])=O)[C@]1(N([H])[H])C([H])([H])C([H])([H])C([H])([H])[C@]32[H]


 25 28  0  0  0  0  0  0  0  0999 V2000
   36.8831   18.2017   -5.5638 N   0  0  0  0  0  0  0  0  0  0  0  0
   36.0561   17.0205   -5.9831 C   0  0  0  0  0  0  0  0  0  0  0  0
   36.8182   16.5756   -7.1939 C   0  0  0  0  0  0  0  0  0  0  0  0
   36.5378   15.3978   -7.9350 C   0  0  0  0  0  0  0  0  0  0  0  0
   35.5883   14.3393   -7.5205 C   0  0  0  0  0  0  0  0  0  0  0  0
   34.1908   14.6880   -7.2188 C   0  0  0  0  0  0  0  0  0  0  0  0
   33.6680   14.5960   -5.8349 C   0  0  0  0  0  0  0  0  0  0  0  0
   32.3587   13.8158   -5.8011 C   0  0  0  0  0  0  0  0  0  0  0  0
   31.3184   14.7326   -6.3363 C   0  0  0  0  0  0  0  0  0  0  0  0
   31.3127   14.9997   -7.8044 C   0  0  0  0  0  0  0  0  0  0  0  0
   32.3169   15.7402   -8.4798 C   0  0  0  0  0  0  0  0  0  0  0  0
   31.4120   16.8178   -8.5886 C   0  0  0  0  0  0  0  0  0  0  0  0
   30.4742   16.1859   -7.9854 C   0  0  0  0  0  0  0  0  0  0  0  0
   33.6962   15.9403   -7.8724 C   0  0  0  0  0  0  0  0  0  0  0  0
   33.7571   17.2050   -7.1601 C   0  0  0  0  0  0  0  0  0  0  0  0
   34.7398   17.6681   -6.2147 C   0  0  0  0  0  0  0  0  0  0  0  0
   34.5379   14.2199   -4.7332 C   0  0  0  0  0  0  0  0  0  0  0  0
   35.1282   15.5038   -4.1152 C   0  0  0  0  0  0  0  0  0  0  0  0
   36.2405   16.1034   -4.8306 C   0  0  0  0  0  0  0  0  0  0  0  0
   37.1252   16.6156   -3.8293 O   0  0  0  0  0  0  0  0  0  0  0  0
   36.3763   18.7913   -4.9043 H   0  0  0  0  0  0  0  0  0  0  0  0
   37.3892   18.6272   -6.3270 H   0  0  0  0  0  0  0  0  0  0  0  0
   38.0509   16.5814   -4.1206 H   0  0  0  0  0  0  0  0  0  0  0  0
   34.8507   19.1629   -6.4474 C   0  0  0  0  0  0  0  0  0  0  0  0
   35.2352   19.6622   -7.4732 O   0  0  0  0  0  0  0  0  0  0  0  0
  2  1  1  0  0  0
  2  3  1  0  0  0
  3  4  1  0  0  0
  4  5  1  0  0  0
  5  6  1  0  0  0
  6  7  1  0  0  0
  7  8  1  0  0  0
  8  9  1  0  0  0
  9 10  1  0  0  0
 10 11  1  0  0  0
 11 12  1  0  0  0
 12 13  2  0  0  0
 11 14  1  0  0  0
 14 15  1  0  0  0
 15 16  1  0  0  0
 16 24  1  0  0  0
 24 25  2  0  0  0
  7 17  1  0  0  0
 17 18  1  0  0  0
 18 19  1  0  0  0
 19 20  1  0  0  0
 16  2  1  0  0  0
 19  2  1  0  0  0
 14  6  1  0  0  0
 13 10  1  0  0  0
  1 21  1  0  0  0
  1 22  1  0  0  0
 20 23  1  0  0  0
M  END
> <minimizedAffinity>
-5.00932

> <CNNscore>
0.4253481925

> <CNNaffinity>
4.8697052002

> <CNN_VS>
2.0713202953

> <CNNaffinity_variance>
0.4492067695

$$$$
[H]O[C@@]1([H])C([H])([H])C([H])([H])[C@]2([H])C([H])([H])C([H])([H])[C@@]3([H])C([H])=C([H])[C@@]3([H])C3([H])C([H])([H])[C@]([H])(C([H])=O)[C@]1(N([H])[H])C([H])([H])C([H])([H])C([H])([H])[C@]32[H]


 25 28  0  0  0  0  0  0  0  0999 V2000
   36.9510   20.0452   -8.6503 N   0  0  0  0  0  0  0  0  0  0  0  0
   36.7420   19.0898   -7.5107 C   0  0  0  0  0  0  0  0  0  0  0  0
   37.7869   19.5794   -6.5551 C   0  0  0  0  0  0  0  0  0  0  0  0
   37.9569   19.0979   -5.2306 C   0  0  0  0  0  0  0  0  0  0  0  0
   37.0198   18.1896   -4.5302 C   0  0  0  0  0  0  0  0  0  0  0  0
   36.6632   16.8974   -5.1373 C   0  0  0  0  0  0  0  0  0  0  0  0
   35.2894   16.6463   -5.6341 C   0  0  0  0  0  0  0  0  0  0  0  0
   34.7500   15.3273   -5.0922 C   0  0  0  0  0  0  0  0  0  0  0  0
   35.4300   14.2551   -5.8649 C   0  0  0  0  0  0  0  0  0  0  0  0
   36.8657   13.9817   -5.5634 C   0  0  0  0  0  0  0  0  0  0  0  0
   37.9243   14.8761   -5.8673 C   0  0  0  0  0  0  0  0  0  0  0  0
   38.3012   14.0274   -6.9300 C   0  0  0  0  0  0  0  0  0  0  0  0
   37.3608   13.1900   -6.6908 C   0  0  0  0  0  0  0  0  0  0  0  0
   37.6668   16.3553   -6.1062 C   0  0  0  0  0  0  0  0  0  0  0  0
   37.5224   16.6209   -7.5272 C   0  0  0  0  0  0  0  0  0  0  0  0
   36.9986   17.7909   -8.1835 C   0  0  0  0  0  0  0  0  0  0  0  0
   34.2792   17.6899   -5.5911 C   0  0  0  0  0  0  0  0  0  0  0  0
   34.3107   18.4572   -6.9287 C   0  0  0  0  0  0  0  0  0  0  0  0
   35.3676   19.4421   -7.0747 C   0  0  0  0  0  0  0  0  0  0  0  0
   34.7968   20.5295   -7.8091 O   0  0  0  0  0  0  0  0  0  0  0  0
   36.5027   19.7076   -9.5015 H   0  0  0  0  0  0  0  0  0  0  0  0
   37.8886   20.4175   -8.6938 H   0  0  0  0  0  0  0  0  0  0  0  0
   35.1927   21.3787   -7.5538 H   0  0  0  0  0  0  0  0  0  0  0  0
   37.8094   17.9363   -9.4572 C   0  0  0  0  0  0  0  0  0  0  0  0
   37.3848   17.7079  -10.5604 O   0  0  0  0  0  0  0  0  0  0  0  0
  2  1  1  0  0  0
  2  3  1  0  0  0
  3  4  1  0  0  0
  4  5  1  0  0  0
  5  6  1  0  0  0
  6  7  1  0  0  0
  7  8  1  0  0  0
  8  9  1  0  0  0
  9 10  1  0  0  0
 10 11  1  0  0  0
 11 12  1  0  0  0
 12 13  2  0  0  0
 11 14  1  0  0  0
 14 15  1  0  0  0
 15 16  1  0  0  0
 16 24  1  0  0  0
 24 25  2  0  0  0
  7 17  1  0  0  0
 17 18  1  0  0  0
 18 19  1  0  0  0
 19 20  1  0  0  0
 16  2  1  0  0  0
 19  2  1  0  0  0
 14  6  1  0  0  0
 13 10  1  0  0  0
  1 21  1  0  0  0
  1 22  1  0  0  0
 20 23  1  0  0  0
M  END
> <minimizedAffinity>
-5.34722

> <CNNscore>
0.4016442299

> <CNNaffinity>
4.8852338791

> <CNN_VS>
1.9621260166

> <CNNaffinity_variance>
0.1485276520

$$$$
[H]O[C@@]1([H])C([H])([H])C([H])([H])[C@]2([H])C([H])([H])C([H])([H])[C@@]3([H])C([H])=C([H])[C@@]3([H])C3([H])C([H])([H])[C@]([H])(C([H])=O)[C@]1(N([H])[H])C([H])([H])C([H])([H])C([H])([H])[C@]32[H]


 25 28  0  0  0  0  0  0  0  0999 V2000
   45.0235   13.4793   -9.1154 N   0  0  0  0  0  0  0  0  0  0  0  0
   44.3700   13.2518   -7.7826 C   0  0  0  0  0  0  0  0  0  0  0  0
   44.9583   14.3848   -6.9984 C   0  0  0  0  0  0  0  0  0  0  0  0
   44.5856   14.7261   -5.6719 C   0  0  0  0  0  0  0  0  0  0  0  0
   43.4372   14.1475   -4.9368 C   0  0  0  0  0  0  0  0  0  0  0  0
   43.3339   12.6887   -4.7733 C   0  0  0  0  0  0  0  0  0  0  0  0
   42.2652   11.9227   -5.4575 C   0  0  0  0  0  0  0  0  0  0  0  0
   41.5398   11.0094   -4.4757 C   0  0  0  0  0  0  0  0  0  0  0  0
   42.4568    9.8681   -4.2195 C   0  0  0  0  0  0  0  0  0  0  0  0
   43.6533   10.1138   -3.3622 C   0  0  0  0  0  0  0  0  0  0  0  0
   44.7565   10.9166   -3.7512 C   0  0  0  0  0  0  0  0  0  0  0  0
   45.5123    9.7399   -3.9409 C   0  0  0  0  0  0  0  0  0  0  0  0
   44.5440    8.9753   -3.5939 C   0  0  0  0  0  0  0  0  0  0  0  0
   44.6320   11.9490   -4.8604 C   0  0  0  0  0  0  0  0  0  0  0  0
   45.0639   11.3851   -6.1277 C   0  0  0  0  0  0  0  0  0  0  0  0
   44.8558   11.8854   -7.4619 C   0  0  0  0  0  0  0  0  0  0  0  0
   41.3326   12.5836   -6.3549 C   0  0  0  0  0  0  0  0  0  0  0  0
   41.8991   12.5136   -7.7878 C   0  0  0  0  0  0  0  0  0  0  0  0
   42.9394   13.4739   -8.1103 C   0  0  0  0  0  0  0  0  0  0  0  0
   42.7182   13.8549   -9.4717 O   0  0  0  0  0  0  0  0  0  0  0  0
   44.9439   12.6554   -9.7106 H   0  0  0  0  0  0  0  0  0  0  0  0
   45.9065   13.9649   -9.0506 H   0  0  0  0  0  0  0  0  0  0  0  0
   42.9912   14.7727   -9.6337 H   0  0  0  0  0  0  0  0  0  0  0  0
   46.1055   11.5074   -8.2342 C   0  0  0  0  0  0  0  0  0  0  0  0
   46.1306   10.7053   -9.1317 O   0  0  0  0  0  0  0  0  0  0  0  0
  2  1  1  0  0  0
  2  3  1  0  0  0
  3  4  1  0  0  0
  4  5  1  0  0  0
  5  6  1  0  0  0
  6  7  1  0  0  0
  7  8  1  0  0  0
  8  9  1  0  0  0
  9 10  1  0  0  0
 10 11  1  0  0  0
 11 12  1  0  0  0
 12 13  2  0  0  0
 11 14  1  0  0  0
 14 15  1  0  0  0
 15 16  1  0  0  0
 16 24  1  0  0  0
 24 25  2  0  0  0
  7 17  1  0  0  0
 17 18  1  0  0  0
 18 19  1  0  0  0
 19 20  1  0  0  0
 16  2  1  0  0  0
 19  2  1  0  0  0
 14  6  1  0  0  0
 13 10  1  0  0  0
  1 21  1  0  0  0
  1 22  1  0  0  0
 20 23  1  0  0  0
M  END
> <minimizedAffinity>
-4.99463

> <CNNscore>
0.3916225731

> <CNNaffinity>
4.5485467911

> <CNN_VS>
1.7813136578

> <CNNaffinity_variance>
0.1833773851

$$$$
[H]O[C@@]1([H])C([H])([H])C([H])([H])[C@]2([H])C([H])([H])C([H])([H])[C@@]3([H])C([H])=C([H])[C@@]3([H])C3([H])C([H])([H])[C@]([H])(C([H])=O)[C@]1(N([H])[H])C([H])([H])C([H])([H])C([H])([H])[C@]32[H]


 25 28  0  0  0  0  0  0  0  0999 V2000
   40.6988   15.1902   -9.4297 N   0  0  0  0  0  0  0  0  0  0  0  0
   40.1742   14.9309   -8.0467 C   0  0  0  0  0  0  0  0  0  0  0  0
   40.5626   13.4938   -7.8775 C   0  0  0  0  0  0  0  0  0  0  0  0
   40.4101   12.7537   -6.6759 C   0  0  0  0  0  0  0  0  0  0  0  0
   40.0304   13.3304   -5.3655 C   0  0  0  0  0  0  0  0  0  0  0  0
   38.7902   14.1128   -5.2429 C   0  0  0  0  0  0  0  0  0  0  0  0
   38.8361   15.5709   -4.9803 C   0  0  0  0  0  0  0  0  0  0  0  0
   37.9206   15.9414   -3.8189 C   0  0  0  0  0  0  0  0  0  0  0  0
   36.5347   15.8885   -4.3532 C   0  0  0  0  0  0  0  0  0  0  0  0
   35.9375   14.5455   -4.6112 C   0  0  0  0  0  0  0  0  0  0  0  0
   36.3705   13.6692   -5.6396 C   0  0  0  0  0  0  0  0  0  0  0  0
   35.2050   13.9902   -6.3678 C   0  0  0  0  0  0  0  0  0  0  0  0
   34.7730   14.7898   -5.4640 C   0  0  0  0  0  0  0  0  0  0  0  0
   37.7463   13.8089   -6.2714 C   0  0  0  0  0  0  0  0  0  0  0  0
   37.6678   14.6042   -7.4846 C   0  0  0  0  0  0  0  0  0  0  0  0
   38.7301   15.2217   -8.2357 C   0  0  0  0  0  0  0  0  0  0  0  0
   40.1054   16.2739   -4.8999 C   0  0  0  0  0  0  0  0  0  0  0  0
   40.4583   16.8093   -6.3027 C   0  0  0  0  0  0  0  0  0  0  0  0
   41.0157   15.8435   -7.2328 C   0  0  0  0  0  0  0  0  0  0  0  0
   41.9957   16.5512   -7.9985 O   0  0  0  0  0  0  0  0  0  0  0  0
   40.3012   16.0437   -9.8209 H   0  0  0  0  0  0  0  0  0  0  0  0
   40.7538   14.3584   -9.9995 H   0  0  0  0  0  0  0  0  0  0  0  0
   42.7262   15.9702   -8.2664 H   0  0  0  0  0  0  0  0  0  0  0  0
   38.2973   15.1417   -9.6873 C   0  0  0  0  0  0  0  0  0  0  0  0
   37.9724   16.0924  -10.3507 O   0  0  0  0  0  0  0  0  0  0  0  0
  2  1  1  0  0  0
  2  3  1  0  0  0
  3  4  1  0  0  0
  4  5  1  0  0  0
  5  6  1  0  0  0
  6  7  1  0  0  0
  7  8  1  0  0  0
  8  9  1  0  0  0
  9 10  1  0  0  0
 10 11  1  0  0  0
 11 12  1  0  0  0
 12 13  2  0  0  0
 11 14  1  0  0  0
 14 15  1  0  0  0
 15 16  1  0  0  0
 16 24  1  0  0  0
 24 25  2  0  0  0
  7 17  1  0  0  0
 17 18  1  0  0  0
 18 19  1  0  0  0
 19 20  1  0  0  0
 16  2  1  0  0  0
 19  2  1  0  0  0
 14  6  1  0  0  0
 13 10  1  0  0  0
  1 21  1  0  0  0
  1 22  1  0  0  0
 20 23  1  0  0  0
M  END
> <minimizedAffinity>
-5.18511

> <CNNscore>
0.3854370117

> <CNNaffinity>
4.7055292130

> <CNN_VS>
1.8136850595

> <CNNaffinity_variance>
0.1594517380

$$$$
[H]O[C@@]1([H])C([H])([H])C([H])([H])[C@]2([H])C([H])([H])C([H])([H])[C@@]3([H])C([H])=C([H])[C@@]3([H])C3([H])C([H])([H])[C@]([H])(C([H])=O)[C@]1(N([H])[H])C([H])([H])C([H])([H])C([H])([H])[C@]32[H]


 25 28  0  0  0  0  0  0  0  0999 V2000
   35.4716   14.0266   -8.2861 N   0  0  0  0  0  0  0  0  0  0  0  0
   35.1666   14.7885   -7.0285 C   0  0  0  0  0  0  0  0  0  0  0  0
   33.7791   14.2979   -6.7474 C   0  0  0  0  0  0  0  0  0  0  0  0
   33.0340   14.6121   -5.5808 C   0  0  0  0  0  0  0  0  0  0  0  0
   33.5752   15.3032   -4.3877 C   0  0  0  0  0  0  0  0  0  0  0  0
   34.2239   16.6158   -4.5348 C   0  0  0  0  0  0  0  0  0  0  0  0
   35.6802   16.7718   -4.3071 C   0  0  0  0  0  0  0  0  0  0  0  0
   35.9593   17.9342   -3.3611 C   0  0  0  0  0  0  0  0  0  0  0  0
   35.7583   19.1723   -4.1585 C   0  0  0  0  0  0  0  0  0  0  0  0
   34.3586   19.5661   -4.4942 C   0  0  0  0  0  0  0  0  0  0  0  0
   33.5266   18.8491   -5.3924 C   0  0  0  0  0  0  0  0  0  0  0  0
   33.7195   19.8715   -6.3458 C   0  0  0  0  0  0  0  0  0  0  0  0
   34.4745   20.5548   -5.5675 C   0  0  0  0  0  0  0  0  0  0  0  0
   33.8063   17.3960   -5.7417 C   0  0  0  0  0  0  0  0  0  0  0  0
   34.5821   17.3103   -6.9670 C   0  0  0  0  0  0  0  0  0  0  0  0
   35.3032   16.1874   -7.5082 C   0  0  0  0  0  0  0  0  0  0  0  0
   36.5129   15.6225   -3.9949 C   0  0  0  0  0  0  0  0  0  0  0  0
   37.0743   15.0520   -5.3134 C   0  0  0  0  0  0  0  0  0  0  0  0
   36.1670   14.2244   -6.0882 C   0  0  0  0  0  0  0  0  0  0  0  0
   36.9693   13.1880   -6.6624 O   0  0  0  0  0  0  0  0  0  0  0  0
   36.2764   14.4223   -8.7710 H   0  0  0  0  0  0  0  0  0  0  0  0
   34.6469   13.7743   -8.8113 H   0  0  0  0  0  0  0  0  0  0  0  0
   36.4665   12.3634   -6.7644 H   0  0  0  0  0  0  0  0  0  0  0  0
   35.1701   16.3101   -9.0143 C   0  0  0  0  0  0  0  0  0  0  0  0
   34.1238   16.2631   -9.6080 O   0  0  0  0  0  0  0  0  0  0  0  0
  2  1  1  0  0  0
  2  3  1  0  0  0
  3  4  1  0  0  0
  4  5  1  0  0  0
  5  6  1  0  0  0
  6  7  1  0  0  0
  7  8  1  0  0  0
  8  9  1  0  0  0
  9 10  1  0  0  0
 10 11  1  0  0  0
 11 12  1  0  0  0
 12 13  2  0  0  0
 11 14  1  0  0  0
 14 15  1  0  0  0
 15 16  1  0  0  0
 16 24  1  0  0  0
 24 25  2  0  0  0
  7 17  1  0  0  0
 17 18  1  0  0  0
 18 19  1  0  0  0
 19 20  1  0  0  0
 16  2  1  0  0  0
 19  2  1  0  0  0
 14  6  1  0  0  0
 13 10  1  0  0  0
  1 21  1  0  0  0
  1 22  1  0  0  0
 20 23  1  0  0  0
M  END
> <minimizedAffinity>
-5.07517

> <CNNscore>
0.3556672335

> <CNNaffinity>
4.7754774094

> <CNN_VS>
1.6984808445

> <CNNaffinity_variance>
0.2643499076

$$$$
[H]Oc1c([H])c([H])c(-n2c(C([H])([H])[H])nc3nc([H])c([H])c([H])c32)c([H])c1N([H])C(=O)c1c([H])c([H])c(N([H])c2nc(N3C([H])([H])C([H])([H])N(C([H])([H])[H])C([H])([H])C3([H])[H])nc3c([H])c([H])c([H])c([H])c23)c([H])c1[H]


 47 53  0  0  0  0  0  0  0  0999 V2000
   33.9601   15.9794   -9.6974 C   0  0  0  0  0  0  0  0  0  0  0  0
   33.2041   15.6683  -10.7948 C   0  0  0  0  0  0  0  0  0  0  0  0
   33.7864   15.1051  -11.9461 C   0  0  0  0  0  0  0  0  0  0  0  0
   35.1319   14.8536  -11.9962 C   0  0  0  0  0  0  0  0  0  0  0  0
   35.9127   15.1532  -10.9182 C   0  0  0  0  0  0  0  0  0  0  0  0
   35.3185   15.7025   -9.8057 C   0  0  0  0  0  0  0  0  0  0  0  0
   35.7587   14.2772  -13.2073 C   0  0  0  0  0  0  0  0  0  0  0  0
   36.8042   14.8668  -13.5883 O   0  0  0  0  0  0  0  0  0  0  0  0
   35.1691   13.1677  -13.8150 N   0  0  0  0  0  0  0  0  0  0  0  0
   34.2662   12.8322  -13.3265 H   0  0  0  0  0  0  0  0  0  0  0  0
   35.5611   12.4462  -14.9457 C   0  0  0  0  0  0  0  0  0  0  0  0
   36.8448   12.4348  -15.4083 C   0  0  0  0  0  0  0  0  0  0  0  0
   37.2532   11.7149  -16.5368 C   0  0  0  0  0  0  0  0  0  0  0  0
   36.3269   10.9879  -17.2101 C   0  0  0  0  0  0  0  0  0  0  0  0
   35.0224   10.9710  -16.7786 C   0  0  0  0  0  0  0  0  0  0  0  0
   34.6368   11.7026  -15.6422 C   0  0  0  0  0  0  0  0  0  0  0  0
   33.3297   11.6523  -15.2551 O   0  0  0  0  0  0  0  0  0  0  0  0
   32.8291   12.0565  -14.5265 H   0  0  0  0  0  0  0  0  0  0  0  0
   38.6297   11.7541  -16.9621 N   0  0  0  0  0  0  0  0  0  0  0  0
   39.1340   11.2302  -18.1016 C   0  0  0  0  0  0  0  0  0  0  0  0
   38.2965   10.5174  -19.1090 C   0  0  0  0  0  0  0  0  0  0  0  0
   40.4549   11.4620  -18.1518 N   0  0  0  0  0  0  0  0  0  0  0  0
   40.8385   12.1480  -17.0347 C   0  0  0  0  0  0  0  0  0  0  0  0
   42.0333   12.6084  -16.6212 N   0  0  0  0  0  0  0  0  0  0  0  0
   42.1201   13.2666  -15.4482 C   0  0  0  0  0  0  0  0  0  0  0  0
   40.9793   13.4514  -14.7009 C   0  0  0  0  0  0  0  0  0  0  0  0
   39.7578   12.9837  -15.1182 C   0  0  0  0  0  0  0  0  0  0  0  0
   39.6653   12.3122  -16.3131 C   0  0  0  0  0  0  0  0  0  0  0  0
   33.4536   16.5278   -8.5020 N   0  0  0  0  0  0  0  0  0  0  0  0
   32.3874   16.5641   -8.4515 H   0  0  0  0  0  0  0  0  0  0  0  0
   35.3925   18.7377   -6.2732 C   0  0  0  0  0  0  0  0  0  0  0  0
   34.7104   18.2359   -7.3153 N   0  0  0  0  0  0  0  0  0  0  0  0
   34.1791   17.0143   -7.3984 C   0  0  0  0  0  0  0  0  0  0  0  0
   34.3686   16.2059   -6.2772 C   0  0  0  0  0  0  0  0  0  0  0  0
   33.9004   14.9375   -6.1851 C   0  0  0  0  0  0  0  0  0  0  0  0
   34.1043   14.1433   -5.0489 C   0  0  0  0  0  0  0  0  0  0  0  0
   34.7922   14.6393   -3.9889 C   0  0  0  0  0  0  0  0  0  0  0  0
   35.2863   15.9193   -4.0352 C   0  0  0  0  0  0  0  0  0  0  0  0
   35.0720   16.6909   -5.1746 C   0  0  0  0  0  0  0  0  0  0  0  0
   35.5624   17.9332   -5.1993 N   0  0  0  0  0  0  0  0  0  0  0  0
   33.7203   21.7570   -6.9653 C   0  0  0  0  0  0  0  0  0  0  0  0
   35.0140   22.4090   -6.8764 N   0  0  0  0  0  0  0  0  0  0  0  0
   35.4611   22.3106   -5.5219 C   0  0  0  0  0  0  0  0  0  0  0  0
   35.7874   20.8854   -5.1222 C   0  0  0  0  0  0  0  0  0  0  0  0
   35.9141   20.0536   -6.2841 N   0  0  0  0  0  0  0  0  0  0  0  0
   36.5665   20.5670   -7.4452 C   0  0  0  0  0  0  0  0  0  0  0  0
   35.8775   21.8426   -7.8591 C   0  0  0  0  0  0  0  0  0  0  0  0
 41 42  1  0  0  0
 42 43  1  0  0  0
 43 44  1  0  0  0
 44 45  1  0  0  0
 45 46  1  0  0  0
 46 47  1  0  0  0
 45 31  1  0  0  0
 31 32  2  0  0  0
 32 33  1  0  0  0
 33 29  1  0  0  0
 29  1  1  0  0  0
  1  2  2  0  0  0
  2  3  1  0  0  0
  3  4  2  0  0  0
  4  5  1  0  0  0
  5  6  2  0  0  0
  4  7  1  0  0  0
  7  8  2  0  0  0
  7  9  1  0  0  0
  9 11  1  0  0  0
 11 12  2  0  0  0
 12 13  1  0  0  0
 13 14  2  0  0  0
 14 15  1  0  0  0
 15 16  2  0  0  0
 16 17  1  0  0  0
 13 19  1  0  0  0
 19 20  1  0  0  0
 20 21  1  0  0  0
 20 22  2  0  0  0
 22 23  1  0  0  0
 23 24  2  0  0  0
 24 25  1  0  0  0
 25 26  2  0  0  0
 26 27  1  0  0  0
 27 28  2  0  0  0
 33 34  2  0  0  0
 34 35  1  0  0  0
 35 36  2  0  0  0
 36 37  1  0  0  0
 37 38  2  0  0  0
 38 39  1  0  0  0
 39 40  2  0  0  0
 47 42  1  0  0  0
 40 31  1  0  0  0
  6  1  1  0  0  0
 16 11  1  0  0  0
 28 19  1  0  0  0
 39 34  1  0  0  0
 28 23  1  0  0  0
 29 30  1  0  0  0
  9 10  1  0  0  0
 17 18  1  0  0  0
M  END
> <minimizedAffinity>
-11.18277

> <CNNscore>
0.3206575513

> <CNNaffinity>
7.4478402138

> <CNN_VS>
2.3882062435

> <CNNaffinity_variance>
0.1895625144

$$$$
[H]Oc1c([H])c([H])c(-n2c(C([H])([H])[H])nc3nc([H])c([H])c([H])c32)c([H])c1N([H])C(=O)c1c([H])c([H])c(N([H])c2nc(N3C([H])([H])C([H])([H])N(C([H])([H])[H])C([H])([H])C3([H])[H])nc3c([H])c([H])c([H])c([H])c23)c([H])c1[H]


 47 53  0  0  0  0  0  0  0  0999 V2000
   35.1867   15.6840   -8.5449 C   0  0  0  0  0  0  0  0  0  0  0  0
   34.3460   16.0414   -9.5638 C   0  0  0  0  0  0  0  0  0  0  0  0
   34.6046   15.6549  -10.8925 C   0  0  0  0  0  0  0  0  0  0  0  0
   35.7105   14.9075  -11.1995 C   0  0  0  0  0  0  0  0  0  0  0  0
   36.5682   14.5358  -10.2057 C   0  0  0  0  0  0  0  0  0  0  0  0
   36.2921   14.9265   -8.9159 C   0  0  0  0  0  0  0  0  0  0  0  0
   36.0023   14.5090  -12.5953 C   0  0  0  0  0  0  0  0  0  0  0  0
   36.5977   15.3844  -13.2774 O   0  0  0  0  0  0  0  0  0  0  0  0
   35.6116   13.2440  -13.0365 N   0  0  0  0  0  0  0  0  0  0  0  0
   35.1009   12.6594  -12.2856 H   0  0  0  0  0  0  0  0  0  0  0  0
   35.7718   12.6367  -14.2849 C   0  0  0  0  0  0  0  0  0  0  0  0
   36.9856   12.5063  -14.8944 C   0  0  0  0  0  0  0  0  0  0  0  0
   37.1623   11.8979  -16.1423 C   0  0  0  0  0  0  0  0  0  0  0  0
   36.0715   11.4101  -16.7841 C   0  0  0  0  0  0  0  0  0  0  0  0
   34.8297   11.5200  -16.2061 C   0  0  0  0  0  0  0  0  0  0  0  0
   34.6779   12.1354  -14.9517 C   0  0  0  0  0  0  0  0  0  0  0  0
   33.4240   12.2191  -14.4213 O   0  0  0  0  0  0  0  0  0  0  0  0
   33.0675   12.5862  -13.5949 H   0  0  0  0  0  0  0  0  0  0  0  0
   38.4790   11.7989  -16.7199 N   0  0  0  0  0  0  0  0  0  0  0  0
   38.8101   11.1511  -17.8593 C   0  0  0  0  0  0  0  0  0  0  0  0
   37.8145   10.4283  -18.7023 C   0  0  0  0  0  0  0  0  0  0  0  0
   40.1285   11.2768  -18.0759 N   0  0  0  0  0  0  0  0  0  0  0  0
   40.6855   12.0162  -17.0715 C   0  0  0  0  0  0  0  0  0  0  0  0
   41.9486   12.4147  -16.8347 N   0  0  0  0  0  0  0  0  0  0  0  0
   42.2162   13.1534  -15.7395 C   0  0  0  0  0  0  0  0  0  0  0  0
   41.1857   13.4822  -14.8885 C   0  0  0  0  0  0  0  0  0  0  0  0
   39.8953   13.0782  -15.1255 C   0  0  0  0  0  0  0  0  0  0  0  0
   39.6186   12.3250  -16.2406 C   0  0  0  0  0  0  0  0  0  0  0  0
   34.9912   16.0142   -7.1887 N   0  0  0  0  0  0  0  0  0  0  0  0
   34.1942   15.4825   -6.7167 H   0  0  0  0  0  0  0  0  0  0  0  0
   37.6812   17.6133   -5.2350 C   0  0  0  0  0  0  0  0  0  0  0  0
   36.9572   16.7484   -5.9635 N   0  0  0  0  0  0  0  0  0  0  0  0
   35.7141   16.9381   -6.4109 C   0  0  0  0  0  0  0  0  0  0  0  0
   35.1405   18.1639   -6.0718 C   0  0  0  0  0  0  0  0  0  0  0  0
   33.8877   18.5276   -6.4387 C   0  0  0  0  0  0  0  0  0  0  0  0
   33.3317   19.7642   -6.0851 C   0  0  0  0  0  0  0  0  0  0  0  0
   34.0538   20.6471   -5.3490 C   0  0  0  0  0  0  0  0  0  0  0  0
   35.3280   20.3237   -4.9535 C   0  0  0  0  0  0  0  0  0  0  0  0
   35.8606   19.0891   -5.3161 C   0  0  0  0  0  0  0  0  0  0  0  0
   37.1017   18.7940   -4.9196 N   0  0  0  0  0  0  0  0  0  0  0  0
   40.2970   16.1380   -7.0714 C   0  0  0  0  0  0  0  0  0  0  0  0
   41.0626   16.1342   -5.8384 N   0  0  0  0  0  0  0  0  0  0  0  0
   41.3227   17.4939   -5.4809 C   0  0  0  0  0  0  0  0  0  0  0  0
   40.0644   18.2377   -5.0798 C   0  0  0  0  0  0  0  0  0  0  0  0
   38.9987   17.3155   -4.8117 N   0  0  0  0  0  0  0  0  0  0  0  0
   39.2821   16.1000   -4.1193 C   0  0  0  0  0  0  0  0  0  0  0  0
   40.3604   15.3597   -4.8692 C   0  0  0  0  0  0  0  0  0  0  0  0
 41 42  1  0  0  0
 42 43  1  0  0  0
 43 44  1  0  0  0
 44 45  1  0  0  0
 45 46  1  0  0  0
 46 47  1  0  0  0
 45 31  1  0  0  0
 31 32  2  0  0  0
 32 33  1  0  0  0
 33 29  1  0  0  0
 29  1  1  0  0  0
  1  2  2  0  0  0
  2  3  1  0  0  0
  3  4  2  0  0  0
  4  5  1  0  0  0
  5  6  2  0  0  0
  4  7  1  0  0  0
  7  8  2  0  0  0
  7  9  1  0  0  0
  9 11  1  0  0  0
 11 12  2  0  0  0
 12 13  1  0  0  0
 13 14  2  0  0  0
 14 15  1  0  0  0
 15 16  2  0  0  0
 16 17  1  0  0  0
 13 19  1  0  0  0
 19 20  1  0  0  0
 20 21  1  0  0  0
 20 22  2  0  0  0
 22 23  1  0  0  0
 23 24  2  0  0  0
 24 25  1  0  0  0
 25 26  2  0  0  0
 26 27  1  0  0  0
 27 28  2  0  0  0
 33 34  2  0  0  0
 34 35  1  0  0  0
 35 36  2  0  0  0
 36 37  1  0  0  0
 37 38  2  0  0  0
 38 39  1  0  0  0
 39 40  2  0  0  0
 47 42  1  0  0  0
 40 31  1  0  0  0
  6  1  1  0  0  0
 16 11  1  0  0  0
 28 19  1  0  0  0
 39 34  1  0  0  0
 28 23  1  0  0  0
 29 30  1  0  0  0
  9 10  1  0  0  0
 17 18  1  0  0  0
M  END
> <minimizedAffinity>
-10.09730

> <CNNscore>
0.2380553335

> <CNNaffinity>
7.2993569374

> <CNN_VS>
1.7376508713

> <CNNaffinity_variance>
0.1321402490

$$$$
[H]Oc1c([H])c([H])c(-n2c(C([H])([H])[H])nc3nc([H])c([H])c([H])c32)c([H])c1N([H])C(=O)c1c([H])c([H])c(N([H])c2nc(N3C([H])([H])C([H])([H])N(C([H])([H])[H])C([H])([H])C3([H])[H])nc3c([H])c([H])c([H])c([H])c23)c([H])c1[H]


 47 53  0  0  0  0  0  0  0  0999 V2000
   34.9687   15.6853   -8.2050 C   0  0  0  0  0  0  0  0  0  0  0  0
   34.1226   16.0406   -9.2201 C   0  0  0  0  0  0  0  0  0  0  0  0
   34.3963   15.6880  -10.5552 C   0  0  0  0  0  0  0  0  0  0  0  0
   35.5231   14.9768  -10.8724 C   0  0  0  0  0  0  0  0  0  0  0  0
   36.3867   14.6082   -9.8826 C   0  0  0  0  0  0  0  0  0  0  0  0
   36.0953   14.9652   -8.5864 C   0  0  0  0  0  0  0  0  0  0  0  0
   35.8306   14.6146  -12.2746 C   0  0  0  0  0  0  0  0  0  0  0  0
   36.4517   15.4992  -12.9210 O   0  0  0  0  0  0  0  0  0  0  0  0
   35.4257   13.3701  -12.7593 N   0  0  0  0  0  0  0  0  0  0  0  0
   34.8930   12.7727  -12.0343 H   0  0  0  0  0  0  0  0  0  0  0  0
   35.5957   12.7971  -14.0225 C   0  0  0  0  0  0  0  0  0  0  0  0
   36.8195   12.6385  -14.6048 C   0  0  0  0  0  0  0  0  0  0  0  0
   37.0060   12.0637  -15.8672 C   0  0  0  0  0  0  0  0  0  0  0  0
   35.9148   11.6401  -16.5524 C   0  0  0  0  0  0  0  0  0  0  0  0
   34.6631   11.7804  -16.0030 C   0  0  0  0  0  0  0  0  0  0  0  0
   34.5016   12.3610  -14.7333 C   0  0  0  0  0  0  0  0  0  0  0  0
   33.2380   12.4771  -14.2326 O   0  0  0  0  0  0  0  0  0  0  0  0
   32.8739   12.8314  -13.4040 H   0  0  0  0  0  0  0  0  0  0  0  0
   38.3329   11.9313  -16.4139 N   0  0  0  0  0  0  0  0  0  0  0  0
   38.6835   11.2215  -17.5097 C   0  0  0  0  0  0  0  0  0  0  0  0
   37.7019   10.4550  -18.3302 C   0  0  0  0  0  0  0  0  0  0  0  0
   40.0060   11.3333  -17.7083 N   0  0  0  0  0  0  0  0  0  0  0  0
   40.5461   12.1258  -16.7357 C   0  0  0  0  0  0  0  0  0  0  0  0
   41.8056   12.5349  -16.4976 N   0  0  0  0  0  0  0  0  0  0  0  0
   42.0546   13.3322  -15.4397 C   0  0  0  0  0  0  0  0  0  0  0  0
   41.0094   13.7086  -14.6273 C   0  0  0  0  0  0  0  0  0  0  0  0
   39.7226   13.2940  -14.8658 C   0  0  0  0  0  0  0  0  0  0  0  0
   39.4647   12.4812  -15.9429 C   0  0  0  0  0  0  0  0  0  0  0  0
   34.7593   15.9827   -6.8433 N   0  0  0  0  0  0  0  0  0  0  0  0
   34.4657   15.1447   -6.2498 H   0  0  0  0  0  0  0  0  0  0  0  0
   34.0179   19.3268   -5.4730 C   0  0  0  0  0  0  0  0  0  0  0  0
   33.9277   18.1396   -6.0937 N   0  0  0  0  0  0  0  0  0  0  0  0
   34.8958   17.2267   -6.1991 C   0  0  0  0  0  0  0  0  0  0  0  0
   36.1055   17.5702   -5.5950 C   0  0  0  0  0  0  0  0  0  0  0  0
   37.1972   16.7673   -5.6029 C   0  0  0  0  0  0  0  0  0  0  0  0
   38.4027   17.1342   -4.9903 C   0  0  0  0  0  0  0  0  0  0  0  0
   38.5062   18.3318   -4.3596 C   0  0  0  0  0  0  0  0  0  0  0  0
   37.4272   19.1798   -4.3249 C   0  0  0  0  0  0  0  0  0  0  0  0
   36.2388   18.7948   -4.9404 C   0  0  0  0  0  0  0  0  0  0  0  0
   35.2015   19.6354   -4.8960 N   0  0  0  0  0  0  0  0  0  0  0  0
   33.2823   22.0300   -7.6044 C   0  0  0  0  0  0  0  0  0  0  0  0
   32.1896   22.3482   -6.7036 N   0  0  0  0  0  0  0  0  0  0  0  0
   31.2323   21.2894   -6.7860 C   0  0  0  0  0  0  0  0  0  0  0  0
   31.7576   19.9883   -6.2129 C   0  0  0  0  0  0  0  0  0  0  0  0
   32.9258   20.2255   -5.4146 N   0  0  0  0  0  0  0  0  0  0  0  0
   32.9740   21.3736   -4.5678 C   0  0  0  0  0  0  0  0  0  0  0  0
   32.7272   22.6011   -5.4077 C   0  0  0  0  0  0  0  0  0  0  0  0
 41 42  1  0  0  0
 42 43  1  0  0  0
 43 44  1  0  0  0
 44 45  1  0  0  0
 45 46  1  0  0  0
 46 47  1  0  0  0
 45 31  1  0  0  0
 31 32  2  0  0  0
 32 33  1  0  0  0
 33 29  1  0  0  0
 29  1  1  0  0  0
  1  2  2  0  0  0
  2  3  1  0  0  0
  3  4  2  0  0  0
  4  5  1  0  0  0
  5  6  2  0  0  0
  4  7  1  0  0  0
  7  8  2  0  0  0
  7  9  1  0  0  0
  9 11  1  0  0  0
 11 12  2  0  0  0
 12 13  1  0  0  0
 13 14  2  0  0  0
 14 15  1  0  0  0
 15 16  2  0  0  0
 16 17  1  0  0  0
 13 19  1  0  0  0
 19 20  1  0  0  0
 20 21  1  0  0  0
 20 22  2  0  0  0
 22 23  1  0  0  0
 23 24  2  0  0  0
 24 25  1  0  0  0
 25 26  2  0  0  0
 26 27  1  0  0  0
 27 28  2  0  0  0
 33 34  2  0  0  0
 34 35  1  0  0  0
 35 36  2  0  0  0
 36 37  1  0  0  0
 37 38  2  0  0  0
 38 39  1  0  0  0
 39 40  2  0  0  0
 47 42  1  0  0  0
 40 31  1  0  0  0
  6  1  1  0  0  0
 16 11  1  0  0  0
 28 19  1  0  0  0
 39 34  1  0  0  0
 28 23  1  0  0  0
 29 30  1  0  0  0
  9 10  1  0  0  0
 17 18  1  0  0  0
M  END
> <minimizedAffinity>
-10.67959

> <CNNscore>
0.2229124159

> <CNNaffinity>
7.2057113647

> <CNN_VS>
1.6062425375

> <CNNaffinity_variance>
0.1794146448

$$$$
[H]Oc1c([H])c([H])c(-n2c(C([H])([H])[H])nc3nc([H])c([H])c([H])c32)c([H])c1N([H])C(=O)c1c([H])c([H])c(N([H])c2nc(N3C([H])([H])C([H])([H])N(C([H])([H])[H])C([H])([H])C3([H])[H])nc3c([H])c([H])c([H])c([H])c23)c([H])c1[H]


 47 53  0  0  0  0  0  0  0  0999 V2000
   34.8822   16.1356   -9.6399 C   0  0  0  0  0  0  0  0  0  0  0  0
   33.9636   15.7103  -10.5608 C   0  0  0  0  0  0  0  0  0  0  0  0
   34.3663   15.1539  -11.7897 C   0  0  0  0  0  0  0  0  0  0  0  0
   35.6951   15.0242  -12.0952 C   0  0  0  0  0  0  0  0  0  0  0  0
   36.6353   15.4394  -11.1979 C   0  0  0  0  0  0  0  0  0  0  0  0
   36.2149   15.9793  -10.0045 C   0  0  0  0  0  0  0  0  0  0  0  0
   36.1310   14.4561  -13.3911 C   0  0  0  0  0  0  0  0  0  0  0  0
   36.9825   15.1493  -14.0080 O   0  0  0  0  0  0  0  0  0  0  0  0
   35.5884   13.2434  -13.8183 N   0  0  0  0  0  0  0  0  0  0  0  0
   34.8620   12.8270  -13.1361 H   0  0  0  0  0  0  0  0  0  0  0  0
   35.8337   12.5068  -14.9802 C   0  0  0  0  0  0  0  0  0  0  0  0
   37.0675   12.4231  -15.5569 C   0  0  0  0  0  0  0  0  0  0  0  0
   37.3295   11.6871  -16.7181 C   0  0  0  0  0  0  0  0  0  0  0  0
   36.3052   11.0194  -17.3053 C   0  0  0  0  0  0  0  0  0  0  0  0
   35.0463   11.0762  -16.7576 C   0  0  0  0  0  0  0  0  0  0  0  0
   34.8083   11.8224  -15.5906 C   0  0  0  0  0  0  0  0  0  0  0  0
   33.5408   11.8464  -15.0870 O   0  0  0  0  0  0  0  0  0  0  0  0
   33.1325   12.2748  -14.3159 H   0  0  0  0  0  0  0  0  0  0  0  0
   38.6620   11.6484  -17.2660 N   0  0  0  0  0  0  0  0  0  0  0  0
   39.0264   11.1218  -18.4565 C   0  0  0  0  0  0  0  0  0  0  0  0
   38.0567   10.4898  -19.3970 C   0  0  0  0  0  0  0  0  0  0  0  0
   40.3499   11.2694  -18.6222 N   0  0  0  0  0  0  0  0  0  0  0  0
   40.8767   11.9011  -17.5318 C   0  0  0  0  0  0  0  0  0  0  0  0
   42.1316   12.2732  -17.2200 N   0  0  0  0  0  0  0  0  0  0  0  0
   42.3665   12.8949  -16.0473 C   0  0  0  0  0  0  0  0  0  0  0  0
   41.3120   13.1339  -15.1959 C   0  0  0  0  0  0  0  0  0  0  0  0
   40.0298   12.7564  -15.5092 C   0  0  0  0  0  0  0  0  0  0  0  0
   39.7863   12.1223  -16.7034 C   0  0  0  0  0  0  0  0  0  0  0  0
   34.5634   16.6861   -8.3822 N   0  0  0  0  0  0  0  0  0  0  0  0
   34.9416   17.6725   -8.2249 H   0  0  0  0  0  0  0  0  0  0  0  0
   31.8449   15.0406   -6.5081 C   0  0  0  0  0  0  0  0  0  0  0  0
   32.5768   15.6236   -7.4711 N   0  0  0  0  0  0  0  0  0  0  0  0
   33.8187   16.0961   -7.3438 C   0  0  0  0  0  0  0  0  0  0  0  0
   34.3817   15.9547   -6.0752 C   0  0  0  0  0  0  0  0  0  0  0  0
   35.6309   16.3771   -5.7627 C   0  0  0  0  0  0  0  0  0  0  0  0
   36.1752   16.2256   -4.4805 C   0  0  0  0  0  0  0  0  0  0  0  0
   35.4450   15.6376   -3.4987 C   0  0  0  0  0  0  0  0  0  0  0  0
   34.1741   15.1934   -3.7669 C   0  0  0  0  0  0  0  0  0  0  0  0
   33.6531   15.3543   -5.0483 C   0  0  0  0  0  0  0  0  0  0  0  0
   32.4139   14.9162   -5.2875 N   0  0  0  0  0  0  0  0  0  0  0  0
   30.3077   14.2985   -9.5868 C   0  0  0  0  0  0  0  0  0  0  0  0
   29.0843   14.0742   -8.8386 N   0  0  0  0  0  0  0  0  0  0  0  0
   29.2804   12.9221   -8.0149 C   0  0  0  0  0  0  0  0  0  0  0  0
   30.2945   13.1631   -6.9146 C   0  0  0  0  0  0  0  0  0  0  0  0
   30.5324   14.5681   -6.7486 N   0  0  0  0  0  0  0  0  0  0  0  0
   29.4361   15.4784   -6.8309 C   0  0  0  0  0  0  0  0  0  0  0  0
   28.7425   15.2771   -8.1543 C   0  0  0  0  0  0  0  0  0  0  0  0
 41 42  1  0  0  0
 42 43  1  0  0  0
 43 44  1  0  0  0
 44 45  1  0  0  0
 45 46  1  0  0  0
 46 47  1  0  0  0
 45 31  1  0  0  0
 31 32  2  0  0  0
 32 33  1  0  0  0
 33 29  1  0  0  0
 29  1  1  0  0  0
  1  2  2  0  0  0
  2  3  1  0  0  0
  3  4  2  0  0  0
  4  5  1  0  0  0
  5  6  2  0  0  0
  4  7  1  0  0  0
  7  8  2  0  0  0
  7  9  1  0  0  0
  9 11  1  0  0  0
 11 12  2  0  0  0
 12 13  1  0  0  0
 13 14  2  0  0  0
 14 15  1  0  0  0
 15 16  2  0  0  0
 16 17  1  0  0  0
 13 19  1  0  0  0
 19 20  1  0  0  0
 20 21  1  0  0  0
 20 22  2  0  0  0
 22 23  1  0  0  0
 23 24  2  0  0  0
 24 25  1  0  0  0
 25 26  2  0  0  0
 26 27  1  0  0  0
 27 28  2  0  0  0
 33 34  2  0  0  0
 34 35  1  0  0  0
 35 36  2  0  0  0
 36 37  1  0  0  0
 37 38  2  0  0  0
 38 39  1  0  0  0
 39 40  2  0  0  0
 47 42  1  0  0  0
 40 31  1  0  0  0
  6  1  1  0  0  0
 16 11  1  0  0  0
 28 19  1  0  0  0
 39 34  1  0  0  0
 28 23  1  0  0  0
 29 30  1  0  0  0
  9 10  1  0  0  0
 17 18  1  0  0  0
M  END
> <minimizedAffinity>
-11.64034

> <CNNscore>
0.2138340026

> <CNNaffinity>
7.2287688255

> <CNN_VS>
1.5457565784

> <CNNaffinity_variance>
0.0768411458

$$$$
[H]Oc1c([H])c([H])c(-n2c(C([H])([H])[H])nc3nc([H])c([H])c([H])c32)c([H])c1N([H])C(=O)c1c([H])c([H])c(N([H])c2nc(N3C([H])([H])C([H])([H])N(C([H])([H])[H])C([H])([H])C3([H])[H])nc3c([H])c([H])c([H])c([H])c23)c([H])c1[H]


 47 53  0  0  0  0  0  0  0  0999 V2000
   43.1147   16.3314   -9.6313 C   0  0  0  0  0  0  0  0  0  0  0  0
   43.7217   16.2187  -10.8525 C   0  0  0  0  0  0  0  0  0  0  0  0
   42.9910   15.8552  -11.9996 C   0  0  0  0  0  0  0  0  0  0  0  0
   41.6469   15.6038  -11.9206 C   0  0  0  0  0  0  0  0  0  0  0  0
   41.0130   15.7073  -10.7169 C   0  0  0  0  0  0  0  0  0  0  0  0
   41.7503   16.0644   -9.6117 C   0  0  0  0  0  0  0  0  0  0  0  0
   40.8709   15.2044  -13.1165 C   0  0  0  0  0  0  0  0  0  0  0  0
   39.9772   16.0227  -13.4595 O   0  0  0  0  0  0  0  0  0  0  0  0
   41.1730   13.9986  -13.7509 N   0  0  0  0  0  0  0  0  0  0  0  0
   41.9707   13.4454  -13.2776 H   0  0  0  0  0  0  0  0  0  0  0  0
   40.6008   13.4076  -14.8806 C   0  0  0  0  0  0  0  0  0  0  0  0
   39.2854   13.0502  -14.9431 C   0  0  0  0  0  0  0  0  0  0  0  0
   38.6974   12.4607  -16.0680 C   0  0  0  0  0  0  0  0  0  0  0  0
   39.4726   12.2303  -17.1569 C   0  0  0  0  0  0  0  0  0  0  0  0
   40.8026   12.5750  -17.1371 C   0  0  0  0  0  0  0  0  0  0  0  0
   41.3701   13.1660  -15.9952 C   0  0  0  0  0  0  0  0  0  0  0  0
   42.6949   13.4895  -16.0265 O   0  0  0  0  0  0  0  0  0  0  0  0
   43.3026   13.8949  -15.3853 H   0  0  0  0  0  0  0  0  0  0  0  0
   37.2991   12.1118  -16.0555 N   0  0  0  0  0  0  0  0  0  0  0  0
   36.6870   11.2162  -16.8620 C   0  0  0  0  0  0  0  0  0  0  0  0
   37.4095   10.4389  -17.9099 C   0  0  0  0  0  0  0  0  0  0  0  0
   35.3814   11.1613  -16.5566 N   0  0  0  0  0  0  0  0  0  0  0  0
   35.1169   12.0289  -15.5352 C   0  0  0  0  0  0  0  0  0  0  0  0
   33.9825   12.3376  -14.8809 N   0  0  0  0  0  0  0  0  0  0  0  0
   34.0159   13.2524  -13.8916 C   0  0  0  0  0  0  0  0  0  0  0  0
   35.2149   13.8493  -13.5752 C   0  0  0  0  0  0  0  0  0  0  0  0
   36.3752   13.5380  -14.2396 C   0  0  0  0  0  0  0  0  0  0  0  0
   36.3452   12.6062  -15.2487 C   0  0  0  0  0  0  0  0  0  0  0  0
   43.7689   16.7066   -8.4406 N   0  0  0  0  0  0  0  0  0  0  0  0
   43.7789   17.7585   -8.2565 H   0  0  0  0  0  0  0  0  0  0  0  0
   44.3200   14.1103   -5.8781 C   0  0  0  0  0  0  0  0  0  0  0  0
   43.7589   14.9362   -6.7759 N   0  0  0  0  0  0  0  0  0  0  0  0
   44.3880   15.8693   -7.4935 C   0  0  0  0  0  0  0  0  0  0  0  0
   45.7605   15.9703   -7.2651 C   0  0  0  0  0  0  0  0  0  0  0  0
   46.5587   16.8611   -7.9022 C   0  0  0  0  0  0  0  0  0  0  0  0
   47.9354   16.9453   -7.6553 C   0  0  0  0  0  0  0  0  0  0  0  0
   48.5143   16.1158   -6.7501 C   0  0  0  0  0  0  0  0  0  0  0  0
   47.7468   15.1964   -6.0791 C   0  0  0  0  0  0  0  0  0  0  0  0
   46.3805   15.1302   -6.3401 C   0  0  0  0  0  0  0  0  0  0  0  0
   45.6519   14.2292   -5.6753 N   0  0  0  0  0  0  0  0  0  0  0  0
   44.2185   10.6216   -6.3365 C   0  0  0  0  0  0  0  0  0  0  0  0
   43.1579   10.5958   -5.3460 N   0  0  0  0  0  0  0  0  0  0  0  0
   43.7223   10.9826   -4.0906 C   0  0  0  0  0  0  0  0  0  0  0  0
   44.1494   12.4367   -4.0715 C   0  0  0  0  0  0  0  0  0  0  0  0
   43.5610   13.1483   -5.1695 N   0  0  0  0  0  0  0  0  0  0  0  0
   42.2096   12.8740   -5.5380 C   0  0  0  0  0  0  0  0  0  0  0  0
   42.0771   11.3981   -5.8156 C   0  0  0  0  0  0  0  0  0  0  0  0
 41 42  1  0  0  0
 42 43  1  0  0  0
 43 44  1  0  0  0
 44 45  1  0  0  0
 45 46  1  0  0  0
 46 47  1  0  0  0
 45 31  1  0  0  0
 31 32  2  0  0  0
 32 33  1  0  0  0
 33 29  1  0  0  0
 29  1  1  0  0  0
  1  2  2  0  0  0
  2  3  1  0  0  0
  3  4  2  0  0  0
  4  5  1  0  0  0
  5  6  2  0  0  0
  4  7  1  0  0  0
  7  8  2  0  0  0
  7  9  1  0  0  0
  9 11  1  0  0  0
 11 12  2  0  0  0
 12 13  1  0  0  0
 13 14  2  0  0  0
 14 15  1  0  0  0
 15 16  2  0  0  0
 16 17  1  0  0  0
 13 19  1  0  0  0
 19 20  1  0  0  0
 20 21  1  0  0  0
 20 22  2  0  0  0
 22 23  1  0  0  0
 23 24  2  0  0  0
 24 25  1  0  0  0
 25 26  2  0  0  0
 26 27  1  0  0  0
 27 28  2  0  0  0
 33 34  2  0  0  0
 34 35  1  0  0  0
 35 36  2  0  0  0
 36 37  1  0  0  0
 37 38  2  0  0  0
 38 39  1  0  0  0
 39 40  2  0  0  0
 47 42  1  0  0  0
 40 31  1  0  0  0
  6  1  1  0  0  0
 16 11  1  0  0  0
 28 19  1  0  0  0
 39 34  1  0  0  0
 28 23  1  0  0  0
 29 30  1  0  0  0
  9 10  1  0  0  0
 17 18  1  0  0  0
M  END
> <minimizedAffinity>
-9.89857

> <CNNscore>
0.1968249232

> <CNNaffinity>
7.0896196365

> <CNN_VS>
1.3954138756

> <CNNaffinity_variance>
0.1283584833

$$$$
[H]Oc1c([H])c([H])c(-n2c(C([H])([H])[H])nc3nc([H])c([H])c([H])c32)c([H])c1N([H])C(=O)c1c([H])c([H])c(N([H])c2nc(N3C([H])([H])C([H])([H])N(C([H])([H])[H])C([H])([H])C3([H])[H])nc3c([H])c([H])c([H])c([H])c23)c([H])c1[H]


 47 53  0  0  0  0  0  0  0  0999 V2000
   33.3127   15.6752  -10.6176 C   0  0  0  0  0  0  0  0  0  0  0  0
   32.7478   15.1403  -11.7434 C   0  0  0  0  0  0  0  0  0  0  0  0
   33.5432   14.6368  -12.7901 C   0  0  0  0  0  0  0  0  0  0  0  0
   34.9099   14.6704  -12.7066 C   0  0  0  0  0  0  0  0  0  0  0  0
   35.5032   15.1980  -11.5971 C   0  0  0  0  0  0  0  0  0  0  0  0
   34.7028   15.6829  -10.5887 C   0  0  0  0  0  0  0  0  0  0  0  0
   35.7572   14.1593  -13.8079 C   0  0  0  0  0  0  0  0  0  0  0  0
   36.7257   14.9040  -14.1138 O   0  0  0  0  0  0  0  0  0  0  0  0
   35.4342   12.9394  -14.4037 N   0  0  0  0  0  0  0  0  0  0  0  0
   34.5507   12.4741  -13.9921 H   0  0  0  0  0  0  0  0  0  0  0  0
   36.0667   12.2483  -15.4407 C   0  0  0  0  0  0  0  0  0  0  0  0
   37.3913   12.3996  -15.7311 C   0  0  0  0  0  0  0  0  0  0  0  0
   38.0394   11.7125  -16.7638 C   0  0  0  0  0  0  0  0  0  0  0  0
   37.3162   10.8487  -17.5191 C   0  0  0  0  0  0  0  0  0  0  0  0
   35.9791   10.6657  -17.2609 C   0  0  0  0  0  0  0  0  0  0  0  0
   35.3507   11.3676  -16.2180 C   0  0  0  0  0  0  0  0  0  0  0  0
   34.0214   11.1501  -16.0026 O   0  0  0  0  0  0  0  0  0  0  0  0
   33.3782   11.5014  -15.3641 H   0  0  0  0  0  0  0  0  0  0  0  0
   39.4436   11.9276  -17.0074 N   0  0  0  0  0  0  0  0  0  0  0  0
   40.1225   11.6073  -18.1315 C   0  0  0  0  0  0  0  0  0  0  0  0
   39.4795   10.9667  -19.3150 C   0  0  0  0  0  0  0  0  0  0  0  0
   41.4102   11.9572  -17.9890 N   0  0  0  0  0  0  0  0  0  0  0  0
   41.5951   12.5174  -16.7570 C   0  0  0  0  0  0  0  0  0  0  0  0
   42.6831   13.0197  -16.1454 N   0  0  0  0  0  0  0  0  0  0  0  0
   42.5711   13.5192  -14.8985 C   0  0  0  0  0  0  0  0  0  0  0  0
   41.3413   13.5024  -14.2810 C   0  0  0  0  0  0  0  0  0  0  0  0
   40.2280   12.9911  -14.9006 C   0  0  0  0  0  0  0  0  0  0  0  0
   40.3381   12.4809  -16.1714 C   0  0  0  0  0  0  0  0  0  0  0  0
   32.5897   16.1832   -9.5196 N   0  0  0  0  0  0  0  0  0  0  0  0
   32.1047   17.1164   -9.7057 H   0  0  0  0  0  0  0  0  0  0  0  0
   33.0899   15.3586   -5.9586 C   0  0  0  0  0  0  0  0  0  0  0  0
   33.2158   15.8746   -7.1919 N   0  0  0  0  0  0  0  0  0  0  0  0
   32.4383   15.6086   -8.2437 C   0  0  0  0  0  0  0  0  0  0  0  0
   31.4041   14.7032   -8.0048 C   0  0  0  0  0  0  0  0  0  0  0  0
   30.5187   14.3153   -8.9547 C   0  0  0  0  0  0  0  0  0  0  0  0
   29.4882   13.4030   -8.6918 C   0  0  0  0  0  0  0  0  0  0  0  0
   29.3505   12.8746   -7.4490 C   0  0  0  0  0  0  0  0  0  0  0  0
   30.2234   13.2370   -6.4534 C   0  0  0  0  0  0  0  0  0  0  0  0
   31.2403   14.1453   -6.7369 C   0  0  0  0  0  0  0  0  0  0  0  0
   32.0795   14.4832   -5.7540 N   0  0  0  0  0  0  0  0  0  0  0  0
   36.4020   14.2965   -5.4167 C   0  0  0  0  0  0  0  0  0  0  0  0
   36.3491   15.0156   -4.1571 N   0  0  0  0  0  0  0  0  0  0  0  0
   36.2464   16.4105   -4.4537 C   0  0  0  0  0  0  0  0  0  0  0  0
   34.9185   16.7708   -5.0895 C   0  0  0  0  0  0  0  0  0  0  0  0
   33.9692   15.7109   -4.9068 N   0  0  0  0  0  0  0  0  0  0  0  0
   33.9244   15.0182   -3.6596 C   0  0  0  0  0  0  0  0  0  0  0  0
   35.2973   14.4692   -3.3650 C   0  0  0  0  0  0  0  0  0  0  0  0
 41 42  1  0  0  0
 42 43  1  0  0  0
 43 44  1  0  0  0
 44 45  1  0  0  0
 45 46  1  0  0  0
 46 47  1  0  0  0
 45 31  1  0  0  0
 31 32  2  0  0  0
 32 33  1  0  0  0
 33 29  1  0  0  0
 29  1  1  0  0  0
  1  2  2  0  0  0
  2  3  1  0  0  0
  3  4  2  0  0  0
  4  5  1  0  0  0
  5  6  2  0  0  0
  4  7  1  0  0  0
  7  8  2  0  0  0
  7  9  1  0  0  0
  9 11  1  0  0  0
 11 12  2  0  0  0
 12 13  1  0  0  0
 13 14  2  0  0  0
 14 15  1  0  0  0
 15 16  2  0  0  0
 16 17  1  0  0  0
 13 19  1  0  0  0
 19 20  1  0  0  0
 20 21  1  0  0  0
 20 22  2  0  0  0
 22 23  1  0  0  0
 23 24  2  0  0  0
 24 25  1  0  0  0
 25 26  2  0  0  0
 26 27  1  0  0  0
 27 28  2  0  0  0
 33 34  2  0  0  0
 34 35  1  0  0  0
 35 36  2  0  0  0
 36 37  1  0  0  0
 37 38  2  0  0  0
 38 39  1  0  0  0
 39 40  2  0  0  0
 47 42  1  0  0  0
 40 31  1  0  0  0
  6  1  1  0  0  0
 16 11  1  0  0  0
 28 19  1  0  0  0
 39 34  1  0  0  0
 28 23  1  0  0  0
 29 30  1  0  0  0
  9 10  1  0  0  0
 17 18  1  0  0  0
M  END
> <minimizedAffinity>
-11.44274

> <CNNscore>
0.1870330423

> <CNNaffinity>
7.2620620728

> <CNN_VS>
1.3582456112

> <CNNaffinity_variance>
0.1006310210

$$$$
[H]Oc1c([H])c([H])c(-n2c(C([H])([H])[H])nc3nc([H])c([H])c([H])c32)c([H])c1N([H])C(=O)c1c([H])c([H])c(N([H])c2nc(N3C([H])([H])C([H])([H])N(C([H])([H])[H])C([H])([H])C3([H])[H])nc3c([H])c([H])c([H])c([H])c23)c([H])c1[H]


 47 53  0  0  0  0  0  0  0  0999 V2000
   33.8740   16.0307   -9.8063 C   0  0  0  0  0  0  0  0  0  0  0  0
   33.1118   15.6045  -10.8599 C   0  0  0  0  0  0  0  0  0  0  0  0
   33.7016   15.0300  -12.0018 C   0  0  0  0  0  0  0  0  0  0  0  0
   35.0607   14.8830  -12.0865 C   0  0  0  0  0  0  0  0  0  0  0  0
   35.8479   15.2986  -11.0526 C   0  0  0  0  0  0  0  0  0  0  0  0
   35.2461   15.8564   -9.9483 C   0  0  0  0  0  0  0  0  0  0  0  0
   35.6940   14.2957  -13.2889 C   0  0  0  0  0  0  0  0  0  0  0  0
   36.7123   14.9123  -13.6999 O   0  0  0  0  0  0  0  0  0  0  0  0
   35.1388   13.1484  -13.8576 N   0  0  0  0  0  0  0  0  0  0  0  0
   34.2549   12.7940  -13.3482 H   0  0  0  0  0  0  0  0  0  0  0  0
   35.5438   12.4098  -14.9726 C   0  0  0  0  0  0  0  0  0  0  0  0
   36.8256   12.4185  -15.4405 C   0  0  0  0  0  0  0  0  0  0  0  0
   37.2470   11.6819  -16.5534 C   0  0  0  0  0  0  0  0  0  0  0  0
   36.3360   10.9169  -17.2051 C   0  0  0  0  0  0  0  0  0  0  0  0
   35.0340   10.8788  -16.7675 C   0  0  0  0  0  0  0  0  0  0  0  0
   34.6351   11.6276  -15.6470 C   0  0  0  0  0  0  0  0  0  0  0  0
   33.3312   11.5550  -15.2530 O   0  0  0  0  0  0  0  0  0  0  0  0
   32.8237   11.9642  -14.5320 H   0  0  0  0  0  0  0  0  0  0  0  0
   38.6205   11.7444  -16.9856 N   0  0  0  0  0  0  0  0  0  0  0  0
   39.1210   11.2610  -18.1446 C   0  0  0  0  0  0  0  0  0  0  0  0
   38.2819   10.5754  -19.1694 C   0  0  0  0  0  0  0  0  0  0  0  0
   40.4400   11.5034  -18.1954 N   0  0  0  0  0  0  0  0  0  0  0  0
   40.8261   12.1555  -17.0590 C   0  0  0  0  0  0  0  0  0  0  0  0
   42.0204   12.6105  -16.6383 N   0  0  0  0  0  0  0  0  0  0  0  0
   42.1103   13.2310  -15.4451 C   0  0  0  0  0  0  0  0  0  0  0  0
   40.9730   13.3838  -14.6852 C   0  0  0  0  0  0  0  0  0  0  0  0
   39.7521   12.9214  -15.1099 C   0  0  0  0  0  0  0  0  0  0  0  0
   39.6564   12.2883  -16.3253 C   0  0  0  0  0  0  0  0  0  0  0  0
   33.3622   16.5988   -8.6223 N   0  0  0  0  0  0  0  0  0  0  0  0
   32.5965   17.3268   -8.7787 H   0  0  0  0  0  0  0  0  0  0  0  0
   35.1380   15.2348   -5.6904 C   0  0  0  0  0  0  0  0  0  0  0  0
   34.7435   15.5133   -6.9433 N   0  0  0  0  0  0  0  0  0  0  0  0
   33.7366   16.3157   -7.2954 C   0  0  0  0  0  0  0  0  0  0  0  0
   33.0483   16.9065   -6.2354 C   0  0  0  0  0  0  0  0  0  0  0  0
   31.9992   17.7475   -6.4043 C   0  0  0  0  0  0  0  0  0  0  0  0
   31.3218   18.3282   -5.3239 C   0  0  0  0  0  0  0  0  0  0  0  0
   31.7114   18.0545   -4.0526 C   0  0  0  0  0  0  0  0  0  0  0  0
   32.7692   17.2081   -3.8309 C   0  0  0  0  0  0  0  0  0  0  0  0
   33.4279   16.6420   -4.9195 C   0  0  0  0  0  0  0  0  0  0  0  0
   34.4537   15.8201   -4.6813 N   0  0  0  0  0  0  0  0  0  0  0  0
   38.5712   15.7901   -6.2349 C   0  0  0  0  0  0  0  0  0  0  0  0
   38.7839   14.4133   -5.8277 N   0  0  0  0  0  0  0  0  0  0  0  0
   38.4429   14.3090   -4.4432 C   0  0  0  0  0  0  0  0  0  0  0  0
   36.9590   14.4951   -4.1969 C   0  0  0  0  0  0  0  0  0  0  0  0
   36.2258   14.3691   -5.4235 N   0  0  0  0  0  0  0  0  0  0  0  0
   36.6060   13.3679   -6.3670 C   0  0  0  0  0  0  0  0  0  0  0  0
   38.0609   13.5605   -6.7123 C   0  0  0  0  0  0  0  0  0  0  0  0
 41 42  1  0  0  0
 42 43  1  0  0  0
 43 44  1  0  0  0
 44 45  1  0  0  0
 45 46  1  0  0  0
 46 47  1  0  0  0
 45 31  1  0  0  0
 31 32  2  0  0  0
 32 33  1  0  0  0
 33 29  1  0  0  0
 29  1  1  0  0  0
  1  2  2  0  0  0
  2  3  1  0  0  0
  3  4  2  0  0  0
  4  5  1  0  0  0
  5  6  2  0  0  0
  4  7  1  0  0  0
  7  8  2  0  0  0
  7  9  1  0  0  0
  9 11  1  0  0  0
 11 12  2  0  0  0
 12 13  1  0  0  0
 13 14  2  0  0  0
 14 15  1  0  0  0
 15 16  2  0  0  0
 16 17  1  0  0  0
 13 19  1  0  0  0
 19 20  1  0  0  0
 20 21  1  0  0  0
 20 22  2  0  0  0
 22 23  1  0  0  0
 23 24  2  0  0  0
 24 25  1  0  0  0
 25 26  2  0  0  0
 26 27  1  0  0  0
 27 28  2  0  0  0
 33 34  2  0  0  0
 34 35  1  0  0  0
 35 36  2  0  0  0
 36 37  1  0  0  0
 37 38  2  0  0  0
 38 39  1  0  0  0
 39 40  2  0  0  0
 47 42  1  0  0  0
 40 31  1  0  0  0
  6  1  1  0  0  0
 16 11  1  0  0  0
 28 19  1  0  0  0
 39 34  1  0  0  0
 28 23  1  0  0  0
 29 30  1  0  0  0
  9 10  1  0  0  0
 17 18  1  0  0  0
M  END
> <minimizedAffinity>
-11.40977

> <CNNscore>
0.1726794690

> <CNNaffinity>
7.2307996750

> <CNN_VS>
1.2486106157

> <CNNaffinity_variance>
0.0546826348

$$$$
[H]Oc1c([H])c([H])c(-n2c(C([H])([H])[H])nc3nc([H])c([H])c([H])c32)c([H])c1N([H])C(=O)c1c([H])c([H])c(N([H])c2nc(N3C([H])([H])C([H])([H])N(C([H])([H])[H])C([H])([H])C3([H])[H])nc3c([H])c([H])c([H])c([H])c23)c([H])c1[H]


 47 53  0  0  0  0  0  0  0  0999 V2000
   35.3963   15.9050   -8.5304 C   0  0  0  0  0  0  0  0  0  0  0  0
   36.5806   15.2964   -8.8463 C   0  0  0  0  0  0  0  0  0  0  0  0
   36.8557   14.8733  -10.1605 C   0  0  0  0  0  0  0  0  0  0  0  0
   35.9391   15.0614  -11.1607 C   0  0  0  0  0  0  0  0  0  0  0  0
   34.7487   15.6648  -10.8774 C   0  0  0  0  0  0  0  0  0  0  0  0
   34.5053   16.0690   -9.5852 C   0  0  0  0  0  0  0  0  0  0  0  0
   36.2098   14.6058  -12.5431 C   0  0  0  0  0  0  0  0  0  0  0  0
   36.9034   15.4004  -13.2313 O   0  0  0  0  0  0  0  0  0  0  0  0
   35.6971   13.3789  -12.9668 N   0  0  0  0  0  0  0  0  0  0  0  0
   35.1168   12.8661  -12.2140 H   0  0  0  0  0  0  0  0  0  0  0  0
   35.8129   12.7322  -14.2002 C   0  0  0  0  0  0  0  0  0  0  0  0
   37.0061   12.5703  -14.8420 C   0  0  0  0  0  0  0  0  0  0  0  0
   37.1386   11.9224  -16.0754 C   0  0  0  0  0  0  0  0  0  0  0  0
   36.0238   11.4271  -16.6686 C   0  0  0  0  0  0  0  0  0  0  0  0
   34.8015   11.5678  -16.0568 C   0  0  0  0  0  0  0  0  0  0  0  0
   34.6943   12.2227  -14.8179 C   0  0  0  0  0  0  0  0  0  0  0  0
   33.4580   12.3360  -14.2525 O   0  0  0  0  0  0  0  0  0  0  0  0
   33.1307   12.7318  -13.4273 H   0  0  0  0  0  0  0  0  0  0  0  0
   38.4359   11.7916  -16.6894 N   0  0  0  0  0  0  0  0  0  0  0  0
   38.7235   11.1160  -17.8243 C   0  0  0  0  0  0  0  0  0  0  0  0
   37.6928   10.3916  -18.6226 C   0  0  0  0  0  0  0  0  0  0  0  0
   40.0366   11.2172  -18.0823 N   0  0  0  0  0  0  0  0  0  0  0  0
   40.6339   11.9682  -17.1102 C   0  0  0  0  0  0  0  0  0  0  0  0
   41.9092   12.3521  -16.9189 N   0  0  0  0  0  0  0  0  0  0  0  0
   42.2200   13.1087  -15.8475 C   0  0  0  0  0  0  0  0  0  0  0  0
   41.2202   13.4703  -14.9735 C   0  0  0  0  0  0  0  0  0  0  0  0
   39.9175   13.0812  -15.1641 C   0  0  0  0  0  0  0  0  0  0  0  0
   39.5968   12.3099  -16.2547 C   0  0  0  0  0  0  0  0  0  0  0  0
   35.0509   16.3730   -7.2467 N   0  0  0  0  0  0  0  0  0  0  0  0
   35.4716   15.8077   -6.4441 H   0  0  0  0  0  0  0  0  0  0  0  0
   33.8866   19.8232   -6.6543 C   0  0  0  0  0  0  0  0  0  0  0  0
   34.6373   18.7486   -6.9450 N   0  0  0  0  0  0  0  0  0  0  0  0
   34.2393   17.4749   -6.9176 C   0  0  0  0  0  0  0  0  0  0  0  0
   32.9090   17.2754   -6.5475 C   0  0  0  0  0  0  0  0  0  0  0  0
   32.3340   16.0511   -6.4645 C   0  0  0  0  0  0  0  0  0  0  0  0
   30.9956   15.8748   -6.0890 C   0  0  0  0  0  0  0  0  0  0  0  0
   30.2264   16.9534   -5.7928 C   0  0  0  0  0  0  0  0  0  0  0  0
   30.7644   18.2144   -5.8625 C   0  0  0  0  0  0  0  0  0  0  0  0
   32.0968   18.3663   -6.2379 C   0  0  0  0  0  0  0  0  0  0  0  0
   32.6007   19.6021   -6.2980 N   0  0  0  0  0  0  0  0  0  0  0  0
   36.8639   20.9373   -8.1661 C   0  0  0  0  0  0  0  0  0  0  0  0
   36.5759   22.2431   -7.6016 N   0  0  0  0  0  0  0  0  0  0  0  0
   35.3986   22.7451   -8.2390 C   0  0  0  0  0  0  0  0  0  0  0  0
   34.1596   21.9525   -7.8730 C   0  0  0  0  0  0  0  0  0  0  0  0
   34.4061   21.1384   -6.7178 N   0  0  0  0  0  0  0  0  0  0  0  0
   35.1795   21.6669   -5.6408 C   0  0  0  0  0  0  0  0  0  0  0  0
   36.5111   22.1211   -6.1827 C   0  0  0  0  0  0  0  0  0  0  0  0
 41 42  1  0  0  0
 42 43  1  0  0  0
 43 44  1  0  0  0
 44 45  1  0  0  0
 45 46  1  0  0  0
 46 47  1  0  0  0
 45 31  1  0  0  0
 31 32  2  0  0  0
 32 33  1  0  0  0
 33 29  1  0  0  0
 29  1  1  0  0  0
  1  2  2  0  0  0
  2  3  1  0  0  0
  3  4  2  0  0  0
  4  5  1  0  0  0
  5  6  2  0  0  0
  4  7  1  0  0  0
  7  8  2  0  0  0
  7  9  1  0  0  0
  9 11  1  0  0  0
 11 12  2  0  0  0
 12 13  1  0  0  0
 13 14  2  0  0  0
 14 15  1  0  0  0
 15 16  2  0  0  0
 16 17  1  0  0  0
 13 19  1  0  0  0
 19 20  1  0  0  0
 20 21  1  0  0  0
 20 22  2  0  0  0
 22 23  1  0  0  0
 23 24  2  0  0  0
 24 25  1  0  0  0
 25 26  2  0  0  0
 26 27  1  0  0  0
 27 28  2  0  0  0
 33 34  2  0  0  0
 34 35  1  0  0  0
 35 36  2  0  0  0
 36 37  1  0  0  0
 37 38  2  0  0  0
 38 39  1  0  0  0
 39 40  2  0  0  0
 47 42  1  0  0  0
 40 31  1  0  0  0
  6  1  1  0  0  0
 16 11  1  0  0  0
 28 19  1  0  0  0
 39 34  1  0  0  0
 28 23  1  0  0  0
 29 30  1  0  0  0
  9 10  1  0  0  0
 17 18  1  0  0  0
M  END
> <minimizedAffinity>
-11.33725

> <CNNscore>
0.1447847784

> <CNNaffinity>
7.1480360031

> <CNN_VS>
1.0349267721

> <CNNaffinity_variance>
0.1439066976

$$$$
[H]Oc1c([H])c([H])c(-n2c(C([H])([H])[H])nc3nc([H])c([H])c([H])c32)c([H])c1N([H])C(=O)c1c([H])c([H])c(N([H])c2nc(N3C([H])([H])C([H])([H])N(C([H])([H])[H])C([H])([H])C3([H])[H])nc3c([H])c([H])c([H])c([H])c23)c([H])c1[H]


 47 53  0  0  0  0  0  0  0  0999 V2000
   43.7207   16.0716   -9.1801 C   0  0  0  0  0  0  0  0  0  0  0  0
   43.9673   16.0499  -10.5259 C   0  0  0  0  0  0  0  0  0  0  0  0
   42.9148   16.0075  -11.4599 C   0  0  0  0  0  0  0  0  0  0  0  0
   41.6107   15.9866  -11.0416 C   0  0  0  0  0  0  0  0  0  0  0  0
   41.3323   16.0069   -9.7061 C   0  0  0  0  0  0  0  0  0  0  0  0
   42.3793   16.0486   -8.8147 C   0  0  0  0  0  0  0  0  0  0  0  0
   40.4956   15.9250  -12.0136 C   0  0  0  0  0  0  0  0  0  0  0  0
   40.6097   16.7079  -12.9934 O   0  0  0  0  0  0  0  0  0  0  0  0
   39.4411   15.0405  -11.7827 N   0  0  0  0  0  0  0  0  0  0  0  0
   39.5416   14.4718  -10.8700 H   0  0  0  0  0  0  0  0  0  0  0  0
   38.2917   14.7930  -12.5380 C   0  0  0  0  0  0  0  0  0  0  0  0
   38.2594   13.8937  -13.5637 C   0  0  0  0  0  0  0  0  0  0  0  0
   37.1157   13.6326  -14.3268 C   0  0  0  0  0  0  0  0  0  0  0  0
   35.9757   14.3072  -14.0349 C   0  0  0  0  0  0  0  0  0  0  0  0
   35.9638   15.2219  -13.0096 C   0  0  0  0  0  0  0  0  0  0  0  0
   37.1256   15.4667  -12.2575 C   0  0  0  0  0  0  0  0  0  0  0  0
   37.0611   16.3843  -11.2502 O   0  0  0  0  0  0  0  0  0  0  0  0
   37.7065   16.7209  -10.6060 H   0  0  0  0  0  0  0  0  0  0  0  0
   37.1626   12.6663  -15.3951 N   0  0  0  0  0  0  0  0  0  0  0  0
   36.1368   11.9034  -15.8343 C   0  0  0  0  0  0  0  0  0  0  0  0
   34.7667   11.9678  -15.2485 C   0  0  0  0  0  0  0  0  0  0  0  0
   36.5608   11.1237  -16.8410 N   0  0  0  0  0  0  0  0  0  0  0  0
   37.8838   11.3673  -17.0779 C   0  0  0  0  0  0  0  0  0  0  0  0
   38.7538   10.8525  -17.9659 N   0  0  0  0  0  0  0  0  0  0  0  0
   40.0288   11.2897  -17.9743 C   0  0  0  0  0  0  0  0  0  0  0  0
   40.4089   12.2556  -17.0706 C   0  0  0  0  0  0  0  0  0  0  0  0
   39.5252   12.7841  -16.1626 C   0  0  0  0  0  0  0  0  0  0  0  0
   38.2249   12.3409  -16.1506 C   0  0  0  0  0  0  0  0  0  0  0  0
   44.7142   16.1318   -8.1821 N   0  0  0  0  0  0  0  0  0  0  0  0
   45.6125   16.6241   -8.4844 H   0  0  0  0  0  0  0  0  0  0  0  0
   44.5221   13.8274   -5.3075 C   0  0  0  0  0  0  0  0  0  0  0  0
   44.5673   14.3390   -6.5481 N   0  0  0  0  0  0  0  0  0  0  0  0
   44.6507   15.6322   -6.8678 C   0  0  0  0  0  0  0  0  0  0  0  0
   44.6934   16.5109   -5.7850 C   0  0  0  0  0  0  0  0  0  0  0  0
   44.7769   17.8568   -5.9199 C   0  0  0  0  0  0  0  0  0  0  0  0
   44.8169   18.7202   -4.8171 C   0  0  0  0  0  0  0  0  0  0  0  0
   44.7720   18.2151   -3.5580 C   0  0  0  0  0  0  0  0  0  0  0  0
   44.6871   16.8579   -3.3703 C   0  0  0  0  0  0  0  0  0  0  0  0
   44.6485   16.0183   -4.4807 C   0  0  0  0  0  0  0  0  0  0  0  0
   44.5645   14.7009   -4.2757 N   0  0  0  0  0  0  0  0  0  0  0  0
   41.9232   11.6130   -6.1640 C   0  0  0  0  0  0  0  0  0  0  0  0
   42.6541   10.5903   -5.4385 N   0  0  0  0  0  0  0  0  0  0  0  0
   43.8688   10.3343   -6.1480 C   0  0  0  0  0  0  0  0  0  0  0  0
   44.8242   11.5102   -6.1029 C   0  0  0  0  0  0  0  0  0  0  0  0
   44.4372   12.4336   -5.0755 N   0  0  0  0  0  0  0  0  0  0  0  0
   43.9659   11.9326   -3.8248 C   0  0  0  0  0  0  0  0  0  0  0  0
   42.8016   11.0106   -4.0843 C   0  0  0  0  0  0  0  0  0  0  0  0
 41 42  1  0  0  0
 42 43  1  0  0  0
 43 44  1  0  0  0
 44 45  1  0  0  0
 45 46  1  0  0  0
 46 47  1  0  0  0
 45 31  1  0  0  0
 31 32  2  0  0  0
 32 33  1  0  0  0
 33 29  1  0  0  0
 29  1  1  0  0  0
  1  2  2  0  0  0
  2  3  1  0  0  0
  3  4  2  0  0  0
  4  5  1  0  0  0
  5  6  2  0  0  0
  4  7  1  0  0  0
  7  8  2  0  0  0
  7  9  1  0  0  0
  9 11  1  0  0  0
 11 12  2  0  0  0
 12 13  1  0  0  0
 13 14  2  0  0  0
 14 15  1  0  0  0
 15 16  2  0  0  0
 16 17  1  0  0  0
 13 19  1  0  0  0
 19 20  1  0  0  0
 20 21  1  0  0  0
 20 22  2  0  0  0
 22 23  1  0  0  0
 23 24  2  0  0  0
 24 25  1  0  0  0
 25 26  2  0  0  0
 26 27  1  0  0  0
 27 28  2  0  0  0
 33 34  2  0  0  0
 34 35  1  0  0  0
 35 36  2  0  0  0
 36 37  1  0  0  0
 37 38  2  0  0  0
 38 39  1  0  0  0
 39 40  2  0  0  0
 47 42  1  0  0  0
 40 31  1  0  0  0
  6  1  1  0  0  0
 16 11  1  0  0  0
 28 19  1  0  0  0
 39 34  1  0  0  0
 28 23  1  0  0  0
 29 30  1  0  0  0
  9 10  1  0  0  0
 17 18  1  0  0  0
M  END
> <minimizedAffinity>
-9.88581

> <CNNscore>
0.1254382133

> <CNNaffinity>
6.6414308548

> <CNN_VS>
0.8330892324

> <CNNaffinity_variance>
0.0347704515

$$$$
