[H]OC([H])([H])C([H])([H])N(C([H])([H])C(=O)N([H])c1c([H])c([H])c([H])c(N([H])c2nc([H])c3c([H])c([H])n(-c4c([H])nc([H])c(F)c4[H])c3n2)c1[H])C([H])([H])C([H])([H])[H]


 36 39  0  0  0  0  0  0  0  0999 V2000
   41.5329   14.1234  -13.6929 C   0  0  0  0  0  0  0  0  0  0  0  0
   42.8108   14.3085  -13.2537 C   0  0  0  0  0  0  0  0  0  0  0  0
   43.9182   13.9471  -14.0389 C   0  0  0  0  0  0  0  0  0  0  0  0
   43.6558   13.3957  -15.2774 C   0  0  0  0  0  0  0  0  0  0  0  0
   42.3943   13.1873  -15.7712 C   0  0  0  0  0  0  0  0  0  0  0  0
   41.3056   13.5618  -14.9546 C   0  0  0  0  0  0  0  0  0  0  0  0
   39.9738   15.7194  -12.5065 C   0  0  0  0  0  0  0  0  0  0  0  0
   40.5838   16.7838  -12.7378 O   0  0  0  0  0  0  0  0  0  0  0  0
   40.3845   14.4604  -12.9343 N   0  0  0  0  0  0  0  0  0  0  0  0
   39.7328   13.6506  -12.6431 H   0  0  0  0  0  0  0  0  0  0  0  0
   38.7006   15.8108  -11.7051 C   0  0  0  0  0  0  0  0  0  0  0  0
   38.9248   15.9450  -10.3156 N   0  0  0  0  0  0  0  0  0  0  0  0
   39.1220   14.6592   -8.2313 C   0  0  0  0  0  0  0  0  0  0  0  0
   38.3086   15.0234   -9.4432 C   0  0  0  0  0  0  0  0  0  0  0  0
   39.0768   17.2830   -9.8728 C   0  0  0  0  0  0  0  0  0  0  0  0
   37.7597   17.9611   -9.5653 C   0  0  0  0  0  0  0  0  0  0  0  0
   37.5668   18.9340  -10.5570 O   0  0  0  0  0  0  0  0  0  0  0  0
   38.0752   19.7764  -10.3532 H   0  0  0  0  0  0  0  0  0  0  0  0
   42.1098   12.6495  -17.0303 N   0  0  0  0  0  0  0  0  0  0  0  0
   42.8952   12.6610  -17.7558 H   0  0  0  0  0  0  0  0  0  0  0  0
   40.9001   12.0973  -17.4496 C   0  0  0  0  0  0  0  0  0  0  0  0
   40.8378   11.4375  -18.6653 N   0  0  0  0  0  0  0  0  0  0  0  0
   39.7228   10.8695  -19.1277 C   0  0  0  0  0  0  0  0  0  0  0  0
   38.5610   10.9226  -18.3876 C   0  0  0  0  0  0  0  0  0  0  0  0
   37.2719   10.4586  -18.5579 C   0  0  0  0  0  0  0  0  0  0  0  0
   36.5610   10.8417  -17.4407 C   0  0  0  0  0  0  0  0  0  0  0  0
   37.3461   11.5112  -16.6036 N   0  0  0  0  0  0  0  0  0  0  0  0
   38.5841   11.5706  -17.1720 C   0  0  0  0  0  0  0  0  0  0  0  0
   39.7443   12.1085  -16.7916 N   0  0  0  0  0  0  0  0  0  0  0  0
   37.0462   12.0928  -15.3374 C   0  0  0  0  0  0  0  0  0  0  0  0
   37.8866   12.0003  -14.2427 C   0  0  0  0  0  0  0  0  0  0  0  0
   37.6137   12.5436  -13.0484 N   0  0  0  0  0  0  0  0  0  0  0  0
   36.4572   13.2355  -12.8493 C   0  0  0  0  0  0  0  0  0  0  0  0
   35.5839   13.3568  -13.9097 C   0  0  0  0  0  0  0  0  0  0  0  0
   34.4310   14.0412  -13.7291 F   0  0  0  0  0  0  0  0  0  0  0  0
   35.8641   12.7981  -15.1393 C   0  0  0  0  0  0  0  0  0  0  0  0
 13 14  1  0  0  0
 14 12  1  0  0  0
 12 15  1  0  0  0
 15 16  1  0  0  0
 16 17  1  0  0  0
 12 11  1  0  0  0
 11  7  1  0  0  0
  7  8  2  0  0  0
  7  9  1  0  0  0
  9  1  1  0  0  0
  1  2  2  0  0  0
  2  3  1  0  0  0
  3  4  2  0  0  0
  4  5  1  0  0  0
  5 19  1  0  0  0
 19 21  1  0  0  0
 21 22  2  0  0  0
 22 23  1  0  0  0
 23 24  2  0  0  0
 24 25  1  0  0  0
 25 26  2  0  0  0
 26 27  1  0  0  0
 27 30  1  0  0  0
 30 31  2  0  0  0
 31 32  1  0  0  0
 32 33  2  0  0  0
 33 34  1  0  0  0
 34 35  1  0  0  0
 34 36  2  0  0  0
 27 28  1  0  0  0
 28 29  2  0  0  0
  5  6  2  0  0  0
  6  1  1  0  0  0
 29 21  1  0  0  0
 28 24  1  0  0  0
 36 30  1  0  0  0
 17 18  1  0  0  0
  9 10  1  0  0  0
 19 20  1  0  0  0
M  END
> <minimizedAffinity>
-9.27215

> <CNNscore>
0.9219838977

> <CNNaffinity>
7.7700867653

> <CNN_VS>
7.1638946533

> <CNNaffinity_variance>
0.1024271622

$$$$
[H]OC([H])([H])C([H])([H])N(C([H])([H])C(=O)N([H])c1c([H])c([H])c([H])c(N([H])c2nc([H])c3c([H])c([H])n(-c4c([H])nc([H])c(F)c4[H])c3n2)c1[H])C([H])([H])C([H])([H])[H]


 36 39  0  0  0  0  0  0  0  0999 V2000
   45.1560   13.6564  -15.1437 C   0  0  0  0  0  0  0  0  0  0  0  0
   45.6737   12.6300  -15.8777 C   0  0  0  0  0  0  0  0  0  0  0  0
   44.8536   11.7924  -16.6519 C   0  0  0  0  0  0  0  0  0  0  0  0
   43.4979   12.0547  -16.6377 C   0  0  0  0  0  0  0  0  0  0  0  0
   42.9220   13.0713  -15.9212 C   0  0  0  0  0  0  0  0  0  0  0  0
   43.7765   13.8923  -15.1542 C   0  0  0  0  0  0  0  0  0  0  0  0
   45.5092   15.5581  -13.5174 C   0  0  0  0  0  0  0  0  0  0  0  0
   44.3173   15.8957  -13.3624 O   0  0  0  0  0  0  0  0  0  0  0  0
   45.9395   14.5204  -14.3389 N   0  0  0  0  0  0  0  0  0  0  0  0
   47.0081   14.3684  -14.3508 H   0  0  0  0  0  0  0  0  0  0  0  0
   46.5536   16.3344  -12.7571 C   0  0  0  0  0  0  0  0  0  0  0  0
   46.8734   17.5741  -13.3570 N   0  0  0  0  0  0  0  0  0  0  0  0
   45.1183   19.2623  -13.0315 C   0  0  0  0  0  0  0  0  0  0  0  0
   46.4951   18.7598  -12.6927 C   0  0  0  0  0  0  0  0  0  0  0  0
   46.8425   17.5650  -14.7742 C   0  0  0  0  0  0  0  0  0  0  0  0
   48.2121   17.4109  -15.3981 C   0  0  0  0  0  0  0  0  0  0  0  0
   48.3150   16.0767  -15.8184 O   0  0  0  0  0  0  0  0  0  0  0  0
   48.5660   15.4677  -15.0597 H   0  0  0  0  0  0  0  0  0  0  0  0
   41.5547   13.3644  -15.9109 N   0  0  0  0  0  0  0  0  0  0  0  0
   41.2461   14.2390  -15.3789 H   0  0  0  0  0  0  0  0  0  0  0  0
   40.5380   12.6314  -16.5219 C   0  0  0  0  0  0  0  0  0  0  0  0
   40.7939   11.9749  -17.7138 N   0  0  0  0  0  0  0  0  0  0  0  0
   39.8793   11.2413  -18.3504 C   0  0  0  0  0  0  0  0  0  0  0  0
   38.6111   11.1093  -17.8263 C   0  0  0  0  0  0  0  0  0  0  0  0
   37.4597   10.4502  -18.2083 C   0  0  0  0  0  0  0  0  0  0  0  0
   36.5123   10.7131  -17.2420 C   0  0  0  0  0  0  0  0  0  0  0  0
   37.0245   11.4938  -16.2967 N   0  0  0  0  0  0  0  0  0  0  0  0
   38.3191   11.7482  -16.6411 C   0  0  0  0  0  0  0  0  0  0  0  0
   39.2966   12.4593  -16.0766 N   0  0  0  0  0  0  0  0  0  0  0  0
   36.4197   12.0164  -15.1166 C   0  0  0  0  0  0  0  0  0  0  0  0
   37.0535   12.0411  -13.8873 C   0  0  0  0  0  0  0  0  0  0  0  0
   36.4935   12.5303  -12.7723 N   0  0  0  0  0  0  0  0  0  0  0  0
   35.2317   13.0432  -12.7977 C   0  0  0  0  0  0  0  0  0  0  0  0
   34.5556   13.0419  -13.9996 C   0  0  0  0  0  0  0  0  0  0  0  0
   33.3018   13.5481  -14.0422 F   0  0  0  0  0  0  0  0  0  0  0  0
   35.1312   12.5388  -15.1477 C   0  0  0  0  0  0  0  0  0  0  0  0
 13 14  1  0  0  0
 14 12  1  0  0  0
 12 15  1  0  0  0
 15 16  1  0  0  0
 16 17  1  0  0  0
 12 11  1  0  0  0
 11  7  1  0  0  0
  7  8  2  0  0  0
  7  9  1  0  0  0
  9  1  1  0  0  0
  1  2  2  0  0  0
  2  3  1  0  0  0
  3  4  2  0  0  0
  4  5  1  0  0  0
  5 19  1  0  0  0
 19 21  1  0  0  0
 21 22  2  0  0  0
 22 23  1  0  0  0
 23 24  2  0  0  0
 24 25  1  0  0  0
 25 26  2  0  0  0
 26 27  1  0  0  0
 27 30  1  0  0  0
 30 31  2  0  0  0
 31 32  1  0  0  0
 32 33  2  0  0  0
 33 34  1  0  0  0
 34 35  1  0  0  0
 34 36  2  0  0  0
 27 28  1  0  0  0
 28 29  2  0  0  0
  5  6  2  0  0  0
  6  1  1  0  0  0
 29 21  1  0  0  0
 28 24  1  0  0  0
 36 30  1  0  0  0
 17 18  1  0  0  0
  9 10  1  0  0  0
 19 20  1  0  0  0
M  END
> <minimizedAffinity>
-8.52297

> <CNNscore>
0.8104868531

> <CNNaffinity>
7.4965944290

> <CNN_VS>
6.0758910179

> <CNNaffinity_variance>
0.4130140841

$$$$
[H]OC([H])([H])C([H])([H])N(C([H])([H])C(=O)N([H])c1c([H])c([H])c([H])c(N([H])c2nc([H])c3c([H])c([H])n(-c4c([H])nc([H])c(F)c4[H])c3n2)c1[H])C([H])([H])C([H])([H])[H]


 36 39  0  0  0  0  0  0  0  0999 V2000
   41.7547   14.0077  -13.8810 C   0  0  0  0  0  0  0  0  0  0  0  0
   43.1070   13.8427  -13.8159 C   0  0  0  0  0  0  0  0  0  0  0  0
   43.8266   13.2457  -14.8644 C   0  0  0  0  0  0  0  0  0  0  0  0
   43.1036   12.8329  -15.9659 C   0  0  0  0  0  0  0  0  0  0  0  0
   41.7456   12.9736  -16.0874 C   0  0  0  0  0  0  0  0  0  0  0  0
   41.0553   13.5772  -15.0142 C   0  0  0  0  0  0  0  0  0  0  0  0
   40.9492   15.9251  -12.4455 C   0  0  0  0  0  0  0  0  0  0  0  0
   41.6228   16.8410  -12.9613 O   0  0  0  0  0  0  0  0  0  0  0  0
   40.9836   14.5928  -12.8461 N   0  0  0  0  0  0  0  0  0  0  0  0
   40.3331   13.9372  -12.2872 H   0  0  0  0  0  0  0  0  0  0  0  0
   40.0342   16.2953  -11.3065 C   0  0  0  0  0  0  0  0  0  0  0  0
   40.5233   15.8890  -10.0437 N   0  0  0  0  0  0  0  0  0  0  0  0
   38.5039   15.0341   -8.9357 C   0  0  0  0  0  0  0  0  0  0  0  0
   39.6667   15.9885   -8.9272 C   0  0  0  0  0  0  0  0  0  0  0  0
   41.9065   16.1283   -9.8461 C   0  0  0  0  0  0  0  0  0  0  0  0
   42.6351   14.9458   -9.2461 C   0  0  0  0  0  0  0  0  0  0  0  0
   42.7943   14.0067  -10.2756 O   0  0  0  0  0  0  0  0  0  0  0  0
   41.9632   13.4578  -10.4080 H   0  0  0  0  0  0  0  0  0  0  0  0
   41.0000   12.5806  -17.2032 N   0  0  0  0  0  0  0  0  0  0  0  0
   41.4728   12.6576  -18.1591 H   0  0  0  0  0  0  0  0  0  0  0  0
   39.6921   12.0974  -17.2066 C   0  0  0  0  0  0  0  0  0  0  0  0
   39.2896   11.2291  -18.2073 N   0  0  0  0  0  0  0  0  0  0  0  0
   38.0616   10.7116  -18.2701 C   0  0  0  0  0  0  0  0  0  0  0  0
   37.1249   11.0345  -17.3117 C   0  0  0  0  0  0  0  0  0  0  0  0
   35.8073   10.6938  -17.0792 C   0  0  0  0  0  0  0  0  0  0  0  0
   35.4204   11.3601  -15.9361 C   0  0  0  0  0  0  0  0  0  0  0  0
   36.4286   12.0848  -15.4631 N   0  0  0  0  0  0  0  0  0  0  0  0
   37.4887   11.8958  -16.2997 C   0  0  0  0  0  0  0  0  0  0  0  0
   38.7381   12.3632  -16.3187 N   0  0  0  0  0  0  0  0  0  0  0  0
   36.4885   12.9271  -14.3149 C   0  0  0  0  0  0  0  0  0  0  0  0
   37.6275   13.0790  -13.5448 C   0  0  0  0  0  0  0  0  0  0  0  0
   37.6938   13.8684  -12.4638 N   0  0  0  0  0  0  0  0  0  0  0  0
   36.6064   14.5820  -12.0586 C   0  0  0  0  0  0  0  0  0  0  0  0
   35.4446   14.4656  -12.7924 C   0  0  0  0  0  0  0  0  0  0  0  0
   34.3556   15.1679  -12.4040 F   0  0  0  0  0  0  0  0  0  0  0  0
   35.3756   13.6535  -13.9053 C   0  0  0  0  0  0  0  0  0  0  0  0
 13 14  1  0  0  0
 14 12  1  0  0  0
 12 15  1  0  0  0
 15 16  1  0  0  0
 16 17  1  0  0  0
 12 11  1  0  0  0
 11  7  1  0  0  0
  7  8  2  0  0  0
  7  9  1  0  0  0
  9  1  1  0  0  0
  1  2  2  0  0  0
  2  3  1  0  0  0
  3  4  2  0  0  0
  4  5  1  0  0  0
  5 19  1  0  0  0
 19 21  1  0  0  0
 21 22  2  0  0  0
 22 23  1  0  0  0
 23 24  2  0  0  0
 24 25  1  0  0  0
 25 26  2  0  0  0
 26 27  1  0  0  0
 27 30  1  0  0  0
 30 31  2  0  0  0
 31 32  1  0  0  0
 32 33  2  0  0  0
 33 34  1  0  0  0
 34 35  1  0  0  0
 34 36  2  0  0  0
 27 28  1  0  0  0
 28 29  2  0  0  0
  5  6  2  0  0  0
  6  1  1  0  0  0
 29 21  1  0  0  0
 28 24  1  0  0  0
 36 30  1  0  0  0
 17 18  1  0  0  0
  9 10  1  0  0  0
 19 20  1  0  0  0
M  END
> <minimizedAffinity>
-8.73953

> <CNNscore>
0.7845382690

> <CNNaffinity>
7.5211610794

> <CNN_VS>
5.9006385803

> <CNNaffinity_variance>
0.0923085064

$$$$
[H]OC([H])([H])C([H])([H])N(C([H])([H])C(=O)N([H])c1c([H])c([H])c([H])c(N([H])c2nc([H])c3c([H])c([H])n(-c4c([H])nc([H])c(F)c4[H])c3n2)c1[H])C([H])([H])C([H])([H])[H]


 36 39  0  0  0  0  0  0  0  0999 V2000
   43.4055   13.6377  -14.7967 C   0  0  0  0  0  0  0  0  0  0  0  0
   42.7151   14.1020  -13.7160 C   0  0  0  0  0  0  0  0  0  0  0  0
   41.3138   14.0269  -13.6504 C   0  0  0  0  0  0  0  0  0  0  0  0
   40.6649   13.4608  -14.7299 C   0  0  0  0  0  0  0  0  0  0  0  0
   41.3053   12.9769  -15.8408 C   0  0  0  0  0  0  0  0  0  0  0  0
   42.7135   13.0696  -15.8724 C   0  0  0  0  0  0  0  0  0  0  0  0
   45.6753   12.7705  -15.4910 C   0  0  0  0  0  0  0  0  0  0  0  0
   45.3136   11.6947  -16.0111 O   0  0  0  0  0  0  0  0  0  0  0  0
   44.8161   13.7014  -14.9147 N   0  0  0  0  0  0  0  0  0  0  0  0
   45.3038   14.5768  -14.5134 H   0  0  0  0  0  0  0  0  0  0  0  0
   47.1507   13.0780  -15.4902 C   0  0  0  0  0  0  0  0  0  0  0  0
   47.6025   13.6395  -14.2738 N   0  0  0  0  0  0  0  0  0  0  0  0
   47.4996   15.9391  -13.4148 C   0  0  0  0  0  0  0  0  0  0  0  0
   48.1758   14.9282  -14.3002 C   0  0  0  0  0  0  0  0  0  0  0  0
   48.1221   12.6975  -13.3505 C   0  0  0  0  0  0  0  0  0  0  0  0
   49.3659   11.9970  -13.8519 C   0  0  0  0  0  0  0  0  0  0  0  0
   49.3072   10.6804  -13.3720 O   0  0  0  0  0  0  0  0  0  0  0  0
   49.6266   10.6181  -12.4214 H   0  0  0  0  0  0  0  0  0  0  0  0
   40.6667   12.3822  -16.9335 N   0  0  0  0  0  0  0  0  0  0  0  0
   41.2470   12.2380  -17.8200 H   0  0  0  0  0  0  0  0  0  0  0  0
   39.3409   11.9552  -16.9961 C   0  0  0  0  0  0  0  0  0  0  0  0
   38.9586   11.0635  -17.9840 N   0  0  0  0  0  0  0  0  0  0  0  0
   37.7143   10.5965  -18.0997 C   0  0  0  0  0  0  0  0  0  0  0  0
   36.7390   10.9988  -17.2125 C   0  0  0  0  0  0  0  0  0  0  0  0
   35.3962   10.7244  -17.0460 C   0  0  0  0  0  0  0  0  0  0  0  0
   34.9739   11.4539  -15.9552 C   0  0  0  0  0  0  0  0  0  0  0  0
   35.9845   12.1544  -15.4517 N   0  0  0  0  0  0  0  0  0  0  0  0
   37.0817   11.8857  -16.2154 C   0  0  0  0  0  0  0  0  0  0  0  0
   38.3499   12.2983  -16.1780 N   0  0  0  0  0  0  0  0  0  0  0  0
   36.0153   13.0409  -14.3361 C   0  0  0  0  0  0  0  0  0  0  0  0
   34.9060   13.7362  -13.8895 C   0  0  0  0  0  0  0  0  0  0  0  0
   34.9248   14.5716  -12.8418 N   0  0  0  0  0  0  0  0  0  0  0  0
   36.0755   14.7828  -12.1439 C   0  0  0  0  0  0  0  0  0  0  0  0
   37.2112   14.1133  -12.5488 C   0  0  0  0  0  0  0  0  0  0  0  0
   38.3623   14.3113  -11.8663 F   0  0  0  0  0  0  0  0  0  0  0  0
   37.1926   13.2531  -13.6269 C   0  0  0  0  0  0  0  0  0  0  0  0
 13 14  1  0  0  0
 14 12  1  0  0  0
 12 15  1  0  0  0
 15 16  1  0  0  0
 16 17  1  0  0  0
 12 11  1  0  0  0
 11  7  1  0  0  0
  7  8  2  0  0  0
  7  9  1  0  0  0
  9  1  1  0  0  0
  1  2  2  0  0  0
  2  3  1  0  0  0
  3  4  2  0  0  0
  4  5  1  0  0  0
  5 19  1  0  0  0
 19 21  1  0  0  0
 21 22  2  0  0  0
 22 23  1  0  0  0
 23 24  2  0  0  0
 24 25  1  0  0  0
 25 26  2  0  0  0
 26 27  1  0  0  0
 27 30  1  0  0  0
 30 31  2  0  0  0
 31 32  1  0  0  0
 32 33  2  0  0  0
 33 34  1  0  0  0
 34 35  1  0  0  0
 34 36  2  0  0  0
 27 28  1  0  0  0
 28 29  2  0  0  0
  5  6  2  0  0  0
  6  1  1  0  0  0
 29 21  1  0  0  0
 28 24  1  0  0  0
 36 30  1  0  0  0
 17 18  1  0  0  0
  9 10  1  0  0  0
 19 20  1  0  0  0
M  END
> <minimizedAffinity>
-8.21477

> <CNNscore>
0.7412412763

> <CNNaffinity>
7.5072069168

> <CNN_VS>
5.5646514893

> <CNNaffinity_variance>
0.0683102831

$$$$
[H]OC([H])([H])C([H])([H])N(C([H])([H])C(=O)N([H])c1c([H])c([H])c([H])c(N([H])c2nc([H])c3c([H])c([H])n(-c4c([H])nc([H])c(F)c4[H])c3n2)c1[H])C([H])([H])C([H])([H])[H]


 36 39  0  0  0  0  0  0  0  0999 V2000
   44.7258   13.3413  -14.6305 C   0  0  0  0  0  0  0  0  0  0  0  0
   45.3936   12.3779  -15.3278 C   0  0  0  0  0  0  0  0  0  0  0  0
   44.8144   11.7364  -16.4353 C   0  0  0  0  0  0  0  0  0  0  0  0
   43.5372   12.1251  -16.7880 C   0  0  0  0  0  0  0  0  0  0  0  0
   42.8191   13.0868  -16.1263 C   0  0  0  0  0  0  0  0  0  0  0  0
   43.4323   13.7096  -15.0179 C   0  0  0  0  0  0  0  0  0  0  0  0
   44.9543   13.8117  -12.1582 C   0  0  0  0  0  0  0  0  0  0  0  0
   44.1233   12.9829  -11.7323 O   0  0  0  0  0  0  0  0  0  0  0  0
   45.2621   14.0082  -13.5011 N   0  0  0  0  0  0  0  0  0  0  0  0
   46.0065   14.7677  -13.6865 H   0  0  0  0  0  0  0  0  0  0  0  0
   45.6731   14.6581  -11.1392 C   0  0  0  0  0  0  0  0  0  0  0  0
   44.9721   15.8383  -10.8003 N   0  0  0  0  0  0  0  0  0  0  0  0
   46.7642   17.0045  -12.0105 C   0  0  0  0  0  0  0  0  0  0  0  0
   45.5591   17.0823  -11.1136 C   0  0  0  0  0  0  0  0  0  0  0  0
   44.2045   15.7436   -9.6123 C   0  0  0  0  0  0  0  0  0  0  0  0
   42.7420   16.0699   -9.8213 C   0  0  0  0  0  0  0  0  0  0  0  0
   42.1645   14.9511  -10.4394 O   0  0  0  0  0  0  0  0  0  0  0  0
   42.3301   14.9488  -11.4304 H   0  0  0  0  0  0  0  0  0  0  0  0
   41.5336   13.5076  -16.4814 N   0  0  0  0  0  0  0  0  0  0  0  0
   41.3202   14.5519  -16.3969 H   0  0  0  0  0  0  0  0  0  0  0  0
   40.4870   12.7058  -16.9350 C   0  0  0  0  0  0  0  0  0  0  0  0
   40.6497   11.9648  -18.0933 N   0  0  0  0  0  0  0  0  0  0  0  0
   39.7023   11.1627  -18.5821 C   0  0  0  0  0  0  0  0  0  0  0  0
   38.4938   11.0420  -17.9300 C   0  0  0  0  0  0  0  0  0  0  0  0
   37.3324   10.3284  -18.1490 C   0  0  0  0  0  0  0  0  0  0  0  0
   36.4725   10.6432  -17.1186 C   0  0  0  0  0  0  0  0  0  0  0  0
   37.0470   11.5068  -16.2882 N   0  0  0  0  0  0  0  0  0  0  0  0
   38.2950   11.7640  -16.7736 C   0  0  0  0  0  0  0  0  0  0  0  0
   39.2989   12.5396  -16.3607 N   0  0  0  0  0  0  0  0  0  0  0  0
   36.5401   12.1051  -15.0980 C   0  0  0  0  0  0  0  0  0  0  0  0
   37.1937   12.0426  -13.8805 C   0  0  0  0  0  0  0  0  0  0  0  0
   36.7255   12.6018  -12.7562 N   0  0  0  0  0  0  0  0  0  0  0  0
   35.5444   13.2808  -12.7593 C   0  0  0  0  0  0  0  0  0  0  0  0
   34.8525   13.3722  -13.9486 C   0  0  0  0  0  0  0  0  0  0  0  0
   33.6781   14.0433  -13.9692 F   0  0  0  0  0  0  0  0  0  0  0  0
   35.3338   12.7971  -15.1063 C   0  0  0  0  0  0  0  0  0  0  0  0
 13 14  1  0  0  0
 14 12  1  0  0  0
 12 15  1  0  0  0
 15 16  1  0  0  0
 16 17  1  0  0  0
 12 11  1  0  0  0
 11  7  1  0  0  0
  7  8  2  0  0  0
  7  9  1  0  0  0
  9  1  1  0  0  0
  1  2  2  0  0  0
  2  3  1  0  0  0
  3  4  2  0  0  0
  4  5  1  0  0  0
  5 19  1  0  0  0
 19 21  1  0  0  0
 21 22  2  0  0  0
 22 23  1  0  0  0
 23 24  2  0  0  0
 24 25  1  0  0  0
 25 26  2  0  0  0
 26 27  1  0  0  0
 27 30  1  0  0  0
 30 31  2  0  0  0
 31 32  1  0  0  0
 32 33  2  0  0  0
 33 34  1  0  0  0
 34 35  1  0  0  0
 34 36  2  0  0  0
 27 28  1  0  0  0
 28 29  2  0  0  0
  5  6  2  0  0  0
  6  1  1  0  0  0
 29 21  1  0  0  0
 28 24  1  0  0  0
 36 30  1  0  0  0
 17 18  1  0  0  0
  9 10  1  0  0  0
 19 20  1  0  0  0
M  END
> <minimizedAffinity>
-7.88709

> <CNNscore>
0.6716442704

> <CNNaffinity>
7.3844137192

> <CNN_VS>
4.9596991539

> <CNNaffinity_variance>
0.2308921516

$$$$
[H]OC([H])([H])C([H])([H])N(C([H])([H])C(=O)N([H])c1c([H])c([H])c([H])c(N([H])c2nc([H])c3c([H])c([H])n(-c4c([H])nc([H])c(F)c4[H])c3n2)c1[H])C([H])([H])C([H])([H])[H]


 36 39  0  0  0  0  0  0  0  0999 V2000
   42.5579   14.8777  -12.5777 C   0  0  0  0  0  0  0  0  0  0  0  0
   41.3888   15.5221  -12.2982 C   0  0  0  0  0  0  0  0  0  0  0  0
   40.2629   15.3970  -13.1291 C   0  0  0  0  0  0  0  0  0  0  0  0
   40.3920   14.5912  -14.2430 C   0  0  0  0  0  0  0  0  0  0  0  0
   41.5399   13.9191  -14.5733 C   0  0  0  0  0  0  0  0  0  0  0  0
   42.6513   14.0687  -13.7159 C   0  0  0  0  0  0  0  0  0  0  0  0
   44.2628   14.0320  -10.9151 C   0  0  0  0  0  0  0  0  0  0  0  0
   43.7782   12.8999  -10.7094 O   0  0  0  0  0  0  0  0  0  0  0  0
   43.7230   14.9813  -11.7778 N   0  0  0  0  0  0  0  0  0  0  0  0
   44.2761   15.9067  -11.8327 H   0  0  0  0  0  0  0  0  0  0  0  0
   45.5240   14.3910  -10.1722 C   0  0  0  0  0  0  0  0  0  0  0  0
   45.2900   14.7879   -8.8355 N   0  0  0  0  0  0  0  0  0  0  0  0
   45.4021   17.1252   -9.5845 C   0  0  0  0  0  0  0  0  0  0  0  0
   45.5626   16.1238   -8.4734 C   0  0  0  0  0  0  0  0  0  0  0  0
   45.5274   13.7745   -7.8731 C   0  0  0  0  0  0  0  0  0  0  0  0
   46.4660   12.6948   -8.3652 C   0  0  0  0  0  0  0  0  0  0  0  0
   47.7008   12.9190   -7.7392 O   0  0  0  0  0  0  0  0  0  0  0  0
   48.2320   13.6292   -8.2116 H   0  0  0  0  0  0  0  0  0  0  0  0
   41.6825   13.0831  -15.6852 N   0  0  0  0  0  0  0  0  0  0  0  0
   42.6744   12.9183  -16.0490 H   0  0  0  0  0  0  0  0  0  0  0  0
   40.6620   12.4366  -16.3813 C   0  0  0  0  0  0  0  0  0  0  0  0
   40.9417   11.8357  -17.5970 N   0  0  0  0  0  0  0  0  0  0  0  0
   40.0241   11.1850  -18.3143 C   0  0  0  0  0  0  0  0  0  0  0  0
   38.7283   11.0867  -17.8543 C   0  0  0  0  0  0  0  0  0  0  0  0
   37.5662   10.5077  -18.3237 C   0  0  0  0  0  0  0  0  0  0  0  0
   36.5884   10.7628  -17.3860 C   0  0  0  0  0  0  0  0  0  0  0  0
   37.0923   11.4632  -16.3756 N   0  0  0  0  0  0  0  0  0  0  0  0
   38.4119   11.6722  -16.6480 C   0  0  0  0  0  0  0  0  0  0  0  0
   39.3946   12.3015  -16.0012 N   0  0  0  0  0  0  0  0  0  0  0  0
   36.4587   11.9484  -15.1946 C   0  0  0  0  0  0  0  0  0  0  0  0
   37.0752   11.9663  -13.9565 C   0  0  0  0  0  0  0  0  0  0  0  0
   36.4881   12.4205  -12.8406 N   0  0  0  0  0  0  0  0  0  0  0  0
   35.2141   12.9018  -12.8740 C   0  0  0  0  0  0  0  0  0  0  0  0
   34.5544   12.9058  -14.0850 C   0  0  0  0  0  0  0  0  0  0  0  0
   33.2887   13.3809  -14.1357 F   0  0  0  0  0  0  0  0  0  0  0  0
   35.1579   12.4387  -15.2340 C   0  0  0  0  0  0  0  0  0  0  0  0
 13 14  1  0  0  0
 14 12  1  0  0  0
 12 15  1  0  0  0
 15 16  1  0  0  0
 16 17  1  0  0  0
 12 11  1  0  0  0
 11  7  1  0  0  0
  7  8  2  0  0  0
  7  9  1  0  0  0
  9  1  1  0  0  0
  1  2  2  0  0  0
  2  3  1  0  0  0
  3  4  2  0  0  0
  4  5  1  0  0  0
  5 19  1  0  0  0
 19 21  1  0  0  0
 21 22  2  0  0  0
 22 23  1  0  0  0
 23 24  2  0  0  0
 24 25  1  0  0  0
 25 26  2  0  0  0
 26 27  1  0  0  0
 27 30  1  0  0  0
 30 31  2  0  0  0
 31 32  1  0  0  0
 32 33  2  0  0  0
 33 34  1  0  0  0
 34 35  1  0  0  0
 34 36  2  0  0  0
 27 28  1  0  0  0
 28 29  2  0  0  0
  5  6  2  0  0  0
  6  1  1  0  0  0
 29 21  1  0  0  0
 28 24  1  0  0  0
 36 30  1  0  0  0
 17 18  1  0  0  0
  9 10  1  0  0  0
 19 20  1  0  0  0
M  END
> <minimizedAffinity>
-7.44121

> <CNNscore>
0.5339610577

> <CNNaffinity>
7.0953702927

> <CNN_VS>
3.7886514664

> <CNNaffinity_variance>
0.1351714432

$$$$
[H]OC([H])([H])C([H])([H])N(C([H])([H])C(=O)N([H])c1c([H])c([H])c([H])c(N([H])c2nc([H])c3c([H])c([H])n(-c4c([H])nc([H])c(F)c4[H])c3n2)c1[H])C([H])([H])C([H])([H])[H]


 36 39  0  0  0  0  0  0  0  0999 V2000
   42.6609   14.6741  -12.6701 C   0  0  0  0  0  0  0  0  0  0  0  0
   41.5361   15.3648  -12.3265 C   0  0  0  0  0  0  0  0  0  0  0  0
   40.3836   15.3400  -13.1294 C   0  0  0  0  0  0  0  0  0  0  0  0
   40.4394   14.5840  -14.2835 C   0  0  0  0  0  0  0  0  0  0  0  0
   41.5402   13.8694  -14.6785 C   0  0  0  0  0  0  0  0  0  0  0  0
   42.6802   13.9180  -13.8476 C   0  0  0  0  0  0  0  0  0  0  0  0
   44.3749   13.6498  -11.1212 C   0  0  0  0  0  0  0  0  0  0  0  0
   43.8506   12.5258  -10.9789 O   0  0  0  0  0  0  0  0  0  0  0  0
   43.8507   14.6769  -11.9004 N   0  0  0  0  0  0  0  0  0  0  0  0
   44.4391   15.5819  -11.9084 H   0  0  0  0  0  0  0  0  0  0  0  0
   45.6694   13.9075  -10.3937 C   0  0  0  0  0  0  0  0  0  0  0  0
   46.5163   12.7764  -10.3449 N   0  0  0  0  0  0  0  0  0  0  0  0
   46.2000   10.8573   -8.8437 C   0  0  0  0  0  0  0  0  0  0  0  0
   46.8103   12.2106   -9.0864 C   0  0  0  0  0  0  0  0  0  0  0  0
   47.5289   12.7589  -11.3367 C   0  0  0  0  0  0  0  0  0  0  0  0
   47.4661   11.5390  -12.2295 C   0  0  0  0  0  0  0  0  0  0  0  0
   46.5611   11.8393  -13.2581 O   0  0  0  0  0  0  0  0  0  0  0  0
   45.6095   11.7035  -12.9655 H   0  0  0  0  0  0  0  0  0  0  0  0
   41.6079   13.0824  -15.8325 N   0  0  0  0  0  0  0  0  0  0  0  0
   42.5673   12.9672  -16.2902 H   0  0  0  0  0  0  0  0  0  0  0  0
   40.5496   12.4271  -16.4608 C   0  0  0  0  0  0  0  0  0  0  0  0
   40.7713   11.7687  -17.6585 N   0  0  0  0  0  0  0  0  0  0  0  0
   39.8150   11.1062  -18.3115 C   0  0  0  0  0  0  0  0  0  0  0  0
   38.5361   11.0542  -17.7995 C   0  0  0  0  0  0  0  0  0  0  0  0
   37.3463   10.4792  -18.1991 C   0  0  0  0  0  0  0  0  0  0  0  0
   36.4101   10.7943  -17.2375 C   0  0  0  0  0  0  0  0  0  0  0  0
   36.9652   11.5275  -16.2785 N   0  0  0  0  0  0  0  0  0  0  0  0
   38.2771   11.6976  -16.6091 C   0  0  0  0  0  0  0  0  0  0  0  0
   39.2954   12.3343  -16.0279 N   0  0  0  0  0  0  0  0  0  0  0  0
   36.3865   12.0761  -15.0972 C   0  0  0  0  0  0  0  0  0  0  0  0
   35.0221   12.1301  -14.8762 C   0  0  0  0  0  0  0  0  0  0  0  0
   34.4684   12.6437  -13.7691 N   0  0  0  0  0  0  0  0  0  0  0  0
   35.2490   13.1539  -12.7760 C   0  0  0  0  0  0  0  0  0  0  0  0
   36.6171   13.1243  -12.9472 C   0  0  0  0  0  0  0  0  0  0  0  0
   37.4068   13.6265  -11.9703 F   0  0  0  0  0  0  0  0  0  0  0  0
   37.1878   12.5958  -14.0863 C   0  0  0  0  0  0  0  0  0  0  0  0
 13 14  1  0  0  0
 14 12  1  0  0  0
 12 15  1  0  0  0
 15 16  1  0  0  0
 16 17  1  0  0  0
 12 11  1  0  0  0
 11  7  1  0  0  0
  7  8  2  0  0  0
  7  9  1  0  0  0
  9  1  1  0  0  0
  1  2  2  0  0  0
  2  3  1  0  0  0
  3  4  2  0  0  0
  4  5  1  0  0  0
  5 19  1  0  0  0
 19 21  1  0  0  0
 21 22  2  0  0  0
 22 23  1  0  0  0
 23 24  2  0  0  0
 24 25  1  0  0  0
 25 26  2  0  0  0
 26 27  1  0  0  0
 27 30  1  0  0  0
 30 31  2  0  0  0
 31 32  1  0  0  0
 32 33  2  0  0  0
 33 34  1  0  0  0
 34 35  1  0  0  0
 34 36  2  0  0  0
 27 28  1  0  0  0
 28 29  2  0  0  0
  5  6  2  0  0  0
  6  1  1  0  0  0
 29 21  1  0  0  0
 28 24  1  0  0  0
 36 30  1  0  0  0
 17 18  1  0  0  0
  9 10  1  0  0  0
 19 20  1  0  0  0
M  END
> <minimizedAffinity>
-7.68372

> <CNNscore>
0.5209062099

> <CNNaffinity>
7.1196174622

> <CNN_VS>
3.7086529732

> <CNNaffinity_variance>
0.0571300089

$$$$
[H]OC([H])([H])C([H])([H])N(C([H])([H])C(=O)N([H])c1c([H])c([H])c([H])c(N([H])c2nc([H])c3c([H])c([H])n(-c4c([H])nc([H])c(F)c4[H])c3n2)c1[H])C([H])([H])C([H])([H])[H]


 36 39  0  0  0  0  0  0  0  0999 V2000
   43.6577   13.3018  -13.5217 C   0  0  0  0  0  0  0  0  0  0  0  0
   44.9068   12.8874  -13.8798 C   0  0  0  0  0  0  0  0  0  0  0  0
   45.2371   12.6186  -15.2185 C   0  0  0  0  0  0  0  0  0  0  0  0
   44.2400   12.7932  -16.1577 C   0  0  0  0  0  0  0  0  0  0  0  0
   42.9688   13.2080  -15.8571 C   0  0  0  0  0  0  0  0  0  0  0  0
   42.6725   13.4681  -14.5017 C   0  0  0  0  0  0  0  0  0  0  0  0
   43.9318   13.2228  -11.0108 C   0  0  0  0  0  0  0  0  0  0  0  0
   45.0054   12.5876  -10.9595 O   0  0  0  0  0  0  0  0  0  0  0  0
   43.2731   13.5740  -12.1853 N   0  0  0  0  0  0  0  0  0  0  0  0
   42.3556   14.1242  -12.0403 H   0  0  0  0  0  0  0  0  0  0  0  0
   43.3085   13.6364   -9.7024 C   0  0  0  0  0  0  0  0  0  0  0  0
   43.8793   14.8104   -9.1593 N   0  0  0  0  0  0  0  0  0  0  0  0
   45.5789   13.8284   -7.6817 C   0  0  0  0  0  0  0  0  0  0  0  0
   44.4088   14.7582   -7.8528 C   0  0  0  0  0  0  0  0  0  0  0  0
   43.2571   16.0131   -9.5789 C   0  0  0  0  0  0  0  0  0  0  0  0
   41.7513   15.9016   -9.6752 C   0  0  0  0  0  0  0  0  0  0  0  0
   41.2288   16.4981   -8.5184 O   0  0  0  0  0  0  0  0  0  0  0  0
   41.2491   15.8686   -7.7356 H   0  0  0  0  0  0  0  0  0  0  0  0
   41.9528   13.4099  -16.7966 N   0  0  0  0  0  0  0  0  0  0  0  0
   42.1486   14.1025  -17.5872 H   0  0  0  0  0  0  0  0  0  0  0  0
   40.6975   12.8033  -16.8137 C   0  0  0  0  0  0  0  0  0  0  0  0
   40.4343   11.8090  -17.7408 N   0  0  0  0  0  0  0  0  0  0  0  0
   39.2649   11.1707  -17.8098 C   0  0  0  0  0  0  0  0  0  0  0  0
   38.2496   11.4901  -16.9337 C   0  0  0  0  0  0  0  0  0  0  0  0
   36.9581   11.0461  -16.7311 C   0  0  0  0  0  0  0  0  0  0  0  0
   36.4472   11.7767  -15.6796 C   0  0  0  0  0  0  0  0  0  0  0  0
   37.3557   12.6378  -15.2341 N   0  0  0  0  0  0  0  0  0  0  0  0
   38.4743   12.4747  -15.9966 C   0  0  0  0  0  0  0  0  0  0  0  0
   39.6743   13.0577  -16.0029 N   0  0  0  0  0  0  0  0  0  0  0  0
   37.2723   13.5868  -14.1740 C   0  0  0  0  0  0  0  0  0  0  0  0
   36.0779   13.9663  -13.5886 C   0  0  0  0  0  0  0  0  0  0  0  0
   35.9891   14.8574  -12.5915 N   0  0  0  0  0  0  0  0  0  0  0  0
   37.1082   15.4515  -12.0908 C   0  0  0  0  0  0  0  0  0  0  0  0
   38.3255   15.1078  -12.6403 C   0  0  0  0  0  0  0  0  0  0  0  0
   39.4467   15.6881  -12.1544 F   0  0  0  0  0  0  0  0  0  0  0  0
   38.4177   14.1906  -13.6664 C   0  0  0  0  0  0  0  0  0  0  0  0
 13 14  1  0  0  0
 14 12  1  0  0  0
 12 15  1  0  0  0
 15 16  1  0  0  0
 16 17  1  0  0  0
 12 11  1  0  0  0
 11  7  1  0  0  0
  7  8  2  0  0  0
  7  9  1  0  0  0
  9  1  1  0  0  0
  1  2  2  0  0  0
  2  3  1  0  0  0
  3  4  2  0  0  0
  4  5  1  0  0  0
  5 19  1  0  0  0
 19 21  1  0  0  0
 21 22  2  0  0  0
 22 23  1  0  0  0
 23 24  2  0  0  0
 24 25  1  0  0  0
 25 26  2  0  0  0
 26 27  1  0  0  0
 27 30  1  0  0  0
 30 31  2  0  0  0
 31 32  1  0  0  0
 32 33  2  0  0  0
 33 34  1  0  0  0
 34 35  1  0  0  0
 34 36  2  0  0  0
 27 28  1  0  0  0
 28 29  2  0  0  0
  5  6  2  0  0  0
  6  1  1  0  0  0
 29 21  1  0  0  0
 28 24  1  0  0  0
 36 30  1  0  0  0
 17 18  1  0  0  0
  9 10  1  0  0  0
 19 20  1  0  0  0
M  END
> <minimizedAffinity>
-7.58942

> <CNNscore>
0.4938928783

> <CNNaffinity>
7.0929756165

> <CNN_VS>
3.5031702518

> <CNNaffinity_variance>
0.0478374213

$$$$
[H]OC([H])([H])C([H])([H])N(C([H])([H])C(=O)N([H])c1c([H])c([H])c([H])c(N([H])c2nc([H])c3c([H])c([H])n(-c4c([H])nc([H])c(F)c4[H])c3n2)c1[H])C([H])([H])C([H])([H])[H]


 36 39  0  0  0  0  0  0  0  0999 V2000
   36.7857   15.8333  -10.3922 C   0  0  0  0  0  0  0  0  0  0  0  0
   38.1262   15.5848  -10.3502 C   0  0  0  0  0  0  0  0  0  0  0  0
   38.8347   15.1761  -11.4924 C   0  0  0  0  0  0  0  0  0  0  0  0
   38.1134   15.0372  -12.6616 C   0  0  0  0  0  0  0  0  0  0  0  0
   36.7672   15.2738  -12.7637 C   0  0  0  0  0  0  0  0  0  0  0  0
   36.0877   15.6822  -11.5958 C   0  0  0  0  0  0  0  0  0  0  0  0
   35.4810   15.4378   -8.2644 C   0  0  0  0  0  0  0  0  0  0  0  0
   35.5864   14.1951   -8.2084 O   0  0  0  0  0  0  0  0  0  0  0  0
   36.0255   16.2359   -9.2662 N   0  0  0  0  0  0  0  0  0  0  0  0
   35.8355   17.2925   -9.1538 H   0  0  0  0  0  0  0  0  0  0  0  0
   34.7067   16.1176   -7.1645 C   0  0  0  0  0  0  0  0  0  0  0  0
   33.3316   15.7889   -7.1654 N   0  0  0  0  0  0  0  0  0  0  0  0
   31.7534   15.5260   -9.0299 C   0  0  0  0  0  0  0  0  0  0  0  0
   32.4851   16.4410   -8.0864 C   0  0  0  0  0  0  0  0  0  0  0  0
   32.8054   15.4656   -5.8894 C   0  0  0  0  0  0  0  0  0  0  0  0
   33.1173   14.0491   -5.4588 C   0  0  0  0  0  0  0  0  0  0  0  0
   31.8862   13.4196   -5.2237 O   0  0  0  0  0  0  0  0  0  0  0  0
   31.5245   13.6421   -4.3131 H   0  0  0  0  0  0  0  0  0  0  0  0
   36.0246   15.1583  -13.9430 N   0  0  0  0  0  0  0  0  0  0  0  0
   35.7430   16.0653  -14.4343 H   0  0  0  0  0  0  0  0  0  0  0  0
   35.6032   13.9777  -14.5534 C   0  0  0  0  0  0  0  0  0  0  0  0
   34.3065   13.5343  -14.3560 N   0  0  0  0  0  0  0  0  0  0  0  0
   33.8244   12.4244  -14.9178 C   0  0  0  0  0  0  0  0  0  0  0  0
   34.6261   11.6597  -15.7380 C   0  0  0  0  0  0  0  0  0  0  0  0
   34.4578   10.4932  -16.4571 C   0  0  0  0  0  0  0  0  0  0  0  0
   35.6573   10.2381  -17.0867 C   0  0  0  0  0  0  0  0  0  0  0  0
   36.5423   11.1836  -16.7898 N   0  0  0  0  0  0  0  0  0  0  0  0
   35.9229   12.0693  -15.9584 C   0  0  0  0  0  0  0  0  0  0  0  0
   36.3171   13.1917  -15.3545 N   0  0  0  0  0  0  0  0  0  0  0  0
   37.8970   11.3307  -17.2079 C   0  0  0  0  0  0  0  0  0  0  0  0
   38.3564   10.9223  -18.4470 C   0  0  0  0  0  0  0  0  0  0  0  0
   39.6277   11.0563  -18.8494 N   0  0  0  0  0  0  0  0  0  0  0  0
   40.5586   11.6197  -18.0297 C   0  0  0  0  0  0  0  0  0  0  0  0
   40.1519   12.0438  -16.7821 C   0  0  0  0  0  0  0  0  0  0  0  0
   41.0637   12.6059  -15.9559 F   0  0  0  0  0  0  0  0  0  0  0  0
   38.8436   11.9064  -16.3673 C   0  0  0  0  0  0  0  0  0  0  0  0
 13 14  1  0  0  0
 14 12  1  0  0  0
 12 15  1  0  0  0
 15 16  1  0  0  0
 16 17  1  0  0  0
 12 11  1  0  0  0
 11  7  1  0  0  0
  7  8  2  0  0  0
  7  9  1  0  0  0
  9  1  1  0  0  0
  1  2  2  0  0  0
  2  3  1  0  0  0
  3  4  2  0  0  0
  4  5  1  0  0  0
  5 19  1  0  0  0
 19 21  1  0  0  0
 21 22  2  0  0  0
 22 23  1  0  0  0
 23 24  2  0  0  0
 24 25  1  0  0  0
 25 26  2  0  0  0
 26 27  1  0  0  0
 27 30  1  0  0  0
 30 31  2  0  0  0
 31 32  1  0  0  0
 32 33  2  0  0  0
 33 34  1  0  0  0
 34 35  1  0  0  0
 34 36  2  0  0  0
 27 28  1  0  0  0
 28 29  2  0  0  0
  5  6  2  0  0  0
  6  1  1  0  0  0
 29 21  1  0  0  0
 28 24  1  0  0  0
 36 30  1  0  0  0
 17 18  1  0  0  0
  9 10  1  0  0  0
 19 20  1  0  0  0
M  END
> <minimizedAffinity>
-8.48205

> <CNNscore>
0.4359295070

> <CNNaffinity>
7.0756211281

> <CNN_VS>
3.0844719410

> <CNNaffinity_variance>
0.3181993663

$$$$
[H]c1nc2c(c([H])c1-c1c([H])c([H])c(S(=O)(=O)C([H])([H])[H])c([H])c1[H])c(-c1c([H])c([H])c([H])c([H])c1[H])c([H])n2[H]


 26 29  0  0  0  0  0  0  0  0999 V2000
   40.6249   12.6342  -16.1902 C   0  0  0  0  0  0  0  0  0  0  0  0
   41.3777   12.2308  -17.2664 C   0  0  0  0  0  0  0  0  0  0  0  0
   40.7896   11.5557  -18.2786 N   0  0  0  0  0  0  0  0  0  0  0  0
   39.4847   11.2487  -18.2957 C   0  0  0  0  0  0  0  0  0  0  0  0
   38.7226   10.5893  -19.2035 N   0  0  0  0  0  0  0  0  0  0  0  0
   37.4669   10.5545  -18.7316 C   0  0  0  0  0  0  0  0  0  0  0  0
   37.4016   11.1972  -17.5013 C   0  0  0  0  0  0  0  0  0  0  0  0
   38.6845   11.6291  -17.2420 C   0  0  0  0  0  0  0  0  0  0  0  0
   39.2629   12.3169  -16.2019 C   0  0  0  0  0  0  0  0  0  0  0  0
   39.0589   10.1918  -20.0913 H   0  0  0  0  0  0  0  0  0  0  0  0
   42.3775   14.7692  -12.9633 C   0  0  0  0  0  0  0  0  0  0  0  0
   41.0363   14.8867  -13.2610 C   0  0  0  0  0  0  0  0  0  0  0  0
   40.4515   14.1888  -14.3206 C   0  0  0  0  0  0  0  0  0  0  0  0
   41.2284   13.3594  -15.0928 C   0  0  0  0  0  0  0  0  0  0  0  0
   42.5896   13.2427  -14.7874 C   0  0  0  0  0  0  0  0  0  0  0  0
   43.1580   13.9366  -13.7383 C   0  0  0  0  0  0  0  0  0  0  0  0
   41.7898   16.1003  -10.4323 C   0  0  0  0  0  0  0  0  0  0  0  0
   43.0195   15.6706  -11.6312 S   0  0  0  0  0  0  0  0  0  0  0  0
   44.0414   14.8027  -10.9355 O   0  0  0  0  0  0  0  0  0  0  0  0
   43.7059   16.9381  -12.0993 O   0  0  0  0  0  0  0  0  0  0  0  0
   36.2373   11.3795  -16.6660 C   0  0  0  0  0  0  0  0  0  0  0  0
   36.2992   12.2007  -15.5659 C   0  0  0  0  0  0  0  0  0  0  0  0
   35.1859   12.3728  -14.7686 C   0  0  0  0  0  0  0  0  0  0  0  0
   33.9973   11.7387  -15.0444 C   0  0  0  0  0  0  0  0  0  0  0  0
   33.9659   10.9210  -16.1548 C   0  0  0  0  0  0  0  0  0  0  0  0
   35.0678   10.7280  -16.9748 C   0  0  0  0  0  0  0  0  0  0  0  0
 17 18  1  0  0  0
 18 19  2  0  0  0
 18 20  2  0  0  0
 18 11  1  0  0  0
 11 12  2  0  0  0
 12 13  1  0  0  0
 13 14  2  0  0  0
 14 15  1  0  0  0
 15 16  2  0  0  0
 14  1  1  0  0  0
  1  2  2  0  0  0
  2  3  1  0  0  0
  3  4  2  0  0  0
  4  5  1  0  0  0
  5  6  1  0  0  0
  6  7  2  0  0  0
  7 21  1  0  0  0
 21 22  2  0  0  0
 22 23  1  0  0  0
 23 24  2  0  0  0
 24 25  1  0  0  0
 25 26  2  0  0  0
  7  8  1  0  0  0
  8  9  2  0  0  0
 16 11  1  0  0  0
  9  1  1  0  0  0
  8  4  1  0  0  0
 26 21  1  0  0  0
  5 10  1  0  0  0
M  END
> <minimizedAffinity>
-9.67009

> <CNNscore>
0.9266674519

> <CNNaffinity>
7.0885953903

> <CNN_VS>
6.5687704086

> <CNNaffinity_variance>
0.0975389555

$$$$
[H]c1nc2c(c([H])c1-c1c([H])c([H])c(S(=O)(=O)C([H])([H])[H])c([H])c1[H])c(-c1c([H])c([H])c([H])c([H])c1[H])c([H])n2[H]


 26 29  0  0  0  0  0  0  0  0999 V2000
   40.8756   12.2612  -16.5895 C   0  0  0  0  0  0  0  0  0  0  0  0
   41.0736   11.7130  -17.8337 C   0  0  0  0  0  0  0  0  0  0  0  0
   40.0326   11.1592  -18.4939 N   0  0  0  0  0  0  0  0  0  0  0  0
   38.7890   11.1117  -17.9955 C   0  0  0  0  0  0  0  0  0  0  0  0
   37.6331   10.6077  -18.4953 N   0  0  0  0  0  0  0  0  0  0  0  0
   36.6699   10.8203  -17.5855 C   0  0  0  0  0  0  0  0  0  0  0  0
   37.1966   11.4706  -16.4761 C   0  0  0  0  0  0  0  0  0  0  0  0
   38.5354   11.6464  -16.7525 C   0  0  0  0  0  0  0  0  0  0  0  0
   39.5805   12.2146  -16.0639 C   0  0  0  0  0  0  0  0  0  0  0  0
   37.5269   10.1473  -19.4097 H   0  0  0  0  0  0  0  0  0  0  0  0
   44.1066   14.0201  -14.4657 C   0  0  0  0  0  0  0  0  0  0  0  0
   44.2961   13.4034  -15.6844 C   0  0  0  0  0  0  0  0  0  0  0  0
   43.2396   12.8219  -16.3895 C   0  0  0  0  0  0  0  0  0  0  0  0
   41.9722   12.8616  -15.8604 C   0  0  0  0  0  0  0  0  0  0  0  0
   41.7838   13.4885  -14.6230 C   0  0  0  0  0  0  0  0  0  0  0  0
   42.8343   14.0601  -13.9340 C   0  0  0  0  0  0  0  0  0  0  0  0
   45.8695   16.3371  -14.2497 C   0  0  0  0  0  0  0  0  0  0  0  0
   45.4728   14.7157  -13.6602 S   0  0  0  0  0  0  0  0  0  0  0  0
   45.1302   14.8418  -12.1945 O   0  0  0  0  0  0  0  0  0  0  0  0
   46.7003   13.8366  -13.7918 O   0  0  0  0  0  0  0  0  0  0  0  0
   36.4941   11.8804  -15.2824 C   0  0  0  0  0  0  0  0  0  0  0  0
   37.1727   12.0174  -14.0954 C   0  0  0  0  0  0  0  0  0  0  0  0
   36.4995   12.4083  -12.9557 C   0  0  0  0  0  0  0  0  0  0  0  0
   35.1495   12.6695  -12.9704 C   0  0  0  0  0  0  0  0  0  0  0  0
   34.4957   12.5234  -14.1761 C   0  0  0  0  0  0  0  0  0  0  0  0
   35.1446   12.1320  -15.3378 C   0  0  0  0  0  0  0  0  0  0  0  0
 17 18  1  0  0  0
 18 19  2  0  0  0
 18 20  2  0  0  0
 18 11  1  0  0  0
 11 12  2  0  0  0
 12 13  1  0  0  0
 13 14  2  0  0  0
 14 15  1  0  0  0
 15 16  2  0  0  0
 14  1  1  0  0  0
  1  2  2  0  0  0
  2  3  1  0  0  0
  3  4  2  0  0  0
  4  5  1  0  0  0
  5  6  1  0  0  0
  6  7  2  0  0  0
  7 21  1  0  0  0
 21 22  2  0  0  0
 22 23  1  0  0  0
 23 24  2  0  0  0
 24 25  1  0  0  0
 25 26  2  0  0  0
  7  8  1  0  0  0
  8  9  2  0  0  0
 16 11  1  0  0  0
  9  1  1  0  0  0
  8  4  1  0  0  0
 26 21  1  0  0  0
  5 10  1  0  0  0
M  END
> <minimizedAffinity>
-9.83687

> <CNNscore>
0.8487291932

> <CNNaffinity>
6.8348670006

> <CNN_VS>
5.8009510040

> <CNNaffinity_variance>
0.0729489625

$$$$
[H]c1nc2c(c([H])c1-c1c([H])c([H])c(S(=O)(=O)C([H])([H])[H])c([H])c1[H])c(-c1c([H])c([H])c([H])c([H])c1[H])c([H])n2[H]


 26 29  0  0  0  0  0  0  0  0999 V2000
   41.1356   12.8549  -15.7276 C   0  0  0  0  0  0  0  0  0  0  0  0
   41.6345   12.3722  -16.9132 C   0  0  0  0  0  0  0  0  0  0  0  0
   40.8147   11.7229  -17.7690 N   0  0  0  0  0  0  0  0  0  0  0  0
   39.5128   11.5167  -17.5243 C   0  0  0  0  0  0  0  0  0  0  0  0
   38.5441   10.8986  -18.2448 N   0  0  0  0  0  0  0  0  0  0  0  0
   37.4046   10.9702  -17.5397 C   0  0  0  0  0  0  0  0  0  0  0  0
   37.6252   11.6420  -16.3434 C   0  0  0  0  0  0  0  0  0  0  0  0
   38.9615   11.9796  -16.3508 C   0  0  0  0  0  0  0  0  0  0  0  0
   39.7782   12.6429  -15.4663 C   0  0  0  0  0  0  0  0  0  0  0  0
   38.6725   10.4577  -19.1659 H   0  0  0  0  0  0  0  0  0  0  0  0
   43.6620   14.9040  -12.9959 C   0  0  0  0  0  0  0  0  0  0  0  0
   44.1786   14.1422  -14.0227 C   0  0  0  0  0  0  0  0  0  0  0  0
   43.3553   13.4646  -14.9253 C   0  0  0  0  0  0  0  0  0  0  0  0
   41.9907   13.5548  -14.7930 C   0  0  0  0  0  0  0  0  0  0  0  0
   41.4701   14.3290  -13.7494 C   0  0  0  0  0  0  0  0  0  0  0  0
   42.2920   14.9949  -12.8626 C   0  0  0  0  0  0  0  0  0  0  0  0
   45.2430   17.3093  -12.5079 C   0  0  0  0  0  0  0  0  0  0  0  0
   44.7557   15.7111  -11.9228 S   0  0  0  0  0  0  0  0  0  0  0  0
   44.0457   15.9124  -10.6048 O   0  0  0  0  0  0  0  0  0  0  0  0
   46.0009   14.8835  -11.6752 O   0  0  0  0  0  0  0  0  0  0  0  0
   36.6611   11.9307  -15.3072 C   0  0  0  0  0  0  0  0  0  0  0  0
   37.0734   12.0872  -14.0057 C   0  0  0  0  0  0  0  0  0  0  0  0
   36.1506   12.3622  -13.0169 C   0  0  0  0  0  0  0  0  0  0  0  0
   34.8101   12.4868  -13.2971 C   0  0  0  0  0  0  0  0  0  0  0  0
   34.4267   12.3244  -14.6121 C   0  0  0  0  0  0  0  0  0  0  0  0
   35.3303   12.0474  -15.6274 C   0  0  0  0  0  0  0  0  0  0  0  0
 17 18  1  0  0  0
 18 19  2  0  0  0
 18 20  2  0  0  0
 18 11  1  0  0  0
 11 12  2  0  0  0
 12 13  1  0  0  0
 13 14  2  0  0  0
 14 15  1  0  0  0
 15 16  2  0  0  0
 14  1  1  0  0  0
  1  2  2  0  0  0
  2  3  1  0  0  0
  3  4  2  0  0  0
  4  5  1  0  0  0
  5  6  1  0  0  0
  6  7  2  0  0  0
  7 21  1  0  0  0
 21 22  2  0  0  0
 22 23  1  0  0  0
 23 24  2  0  0  0
 24 25  1  0  0  0
 25 26  2  0  0  0
  7  8  1  0  0  0
  8  9  2  0  0  0
 16 11  1  0  0  0
  9  1  1  0  0  0
  8  4  1  0  0  0
 26 21  1  0  0  0
  5 10  1  0  0  0
M  END
> <minimizedAffinity>
-9.03474

> <CNNscore>
0.7839898467

> <CNNaffinity>
6.6404290199

> <CNN_VS>
5.2060289383

> <CNNaffinity_variance>
0.1208747178

$$$$
[H]c1nc2c(c([H])c1-c1c([H])c([H])c(S(=O)(=O)C([H])([H])[H])c([H])c1[H])c(-c1c([H])c([H])c([H])c([H])c1[H])c([H])n2[H]


 26 29  0  0  0  0  0  0  0  0999 V2000
   40.3360   12.4779  -16.1528 C   0  0  0  0  0  0  0  0  0  0  0  0
   40.7033   11.9276  -17.3569 C   0  0  0  0  0  0  0  0  0  0  0  0
   42.0086   11.8899  -17.7046 N   0  0  0  0  0  0  0  0  0  0  0  0
   42.9897   12.3686  -16.9264 C   0  0  0  0  0  0  0  0  0  0  0  0
   44.3343   12.4218  -17.0964 N   0  0  0  0  0  0  0  0  0  0  0  0
   44.8588   13.0061  -16.0082 C   0  0  0  0  0  0  0  0  0  0  0  0
   43.8499   13.3407  -15.1131 C   0  0  0  0  0  0  0  0  0  0  0  0
   42.6768   12.9308  -15.7093 C   0  0  0  0  0  0  0  0  0  0  0  0
   41.3547   12.9793  -15.3363 C   0  0  0  0  0  0  0  0  0  0  0  0
   44.8480   12.0731  -17.9171 H   0  0  0  0  0  0  0  0  0  0  0  0
   36.2506   12.6183  -14.9981 C   0  0  0  0  0  0  0  0  0  0  0  0
   36.6678   11.8752  -16.0821 C   0  0  0  0  0  0  0  0  0  0  0  0
   38.0091   11.8236  -16.4694 C   0  0  0  0  0  0  0  0  0  0  0  0
   38.9455   12.5307  -15.7546 C   0  0  0  0  0  0  0  0  0  0  0  0
   38.5181   13.2839  -14.6548 C   0  0  0  0  0  0  0  0  0  0  0  0
   37.1904   13.3285  -14.2802 C   0  0  0  0  0  0  0  0  0  0  0  0
   33.6162   11.4925  -15.5602 C   0  0  0  0  0  0  0  0  0  0  0  0
   34.5680   12.6252  -14.5880 S   0  0  0  0  0  0  0  0  0  0  0  0
   34.4422   12.1952  -13.1456 O   0  0  0  0  0  0  0  0  0  0  0  0
   33.9689   14.0101  -14.7296 O   0  0  0  0  0  0  0  0  0  0  0  0
   43.9938   13.9813  -13.8265 C   0  0  0  0  0  0  0  0  0  0  0  0
   43.6045   13.3268  -12.6826 C   0  0  0  0  0  0  0  0  0  0  0  0
   43.7420   13.9410  -11.4543 C   0  0  0  0  0  0  0  0  0  0  0  0
   44.2647   15.2074  -11.3366 C   0  0  0  0  0  0  0  0  0  0  0  0
   44.6463   15.8390  -12.5020 C   0  0  0  0  0  0  0  0  0  0  0  0
   44.5204   15.2479  -13.7505 C   0  0  0  0  0  0  0  0  0  0  0  0
 17 18  1  0  0  0
 18 19  2  0  0  0
 18 20  2  0  0  0
 18 11  1  0  0  0
 11 12  2  0  0  0
 12 13  1  0  0  0
 13 14  2  0  0  0
 14 15  1  0  0  0
 15 16  2  0  0  0
 14  1  1  0  0  0
  1  2  2  0  0  0
  2  3  1  0  0  0
  3  4  2  0  0  0
  4  5  1  0  0  0
  5  6  1  0  0  0
  6  7  2  0  0  0
  7 21  1  0  0  0
 21 22  2  0  0  0
 22 23  1  0  0  0
 23 24  2  0  0  0
 24 25  1  0  0  0
 25 26  2  0  0  0
  7  8  1  0  0  0
  8  9  2  0  0  0
 16 11  1  0  0  0
  9  1  1  0  0  0
  8  4  1  0  0  0
 26 21  1  0  0  0
  5 10  1  0  0  0
M  END
> <minimizedAffinity>
-8.67142

> <CNNscore>
0.6401297450

> <CNNaffinity>
6.4715347290

> <CNN_VS>
4.1426219940

> <CNNaffinity_variance>
0.2228990495

$$$$
[H]c1nc2c(c([H])c1-c1c([H])c([H])c(S(=O)(=O)C([H])([H])[H])c([H])c1[H])c(-c1c([H])c([H])c([H])c([H])c1[H])c([H])n2[H]


 26 29  0  0  0  0  0  0  0  0999 V2000
   40.4098   12.5170  -16.0538 C   0  0  0  0  0  0  0  0  0  0  0  0
   40.8619   12.0345  -17.2581 C   0  0  0  0  0  0  0  0  0  0  0  0
   42.1832   12.0692  -17.5390 N   0  0  0  0  0  0  0  0  0  0  0  0
   43.1010   12.5579  -16.6928 C   0  0  0  0  0  0  0  0  0  0  0  0
   44.4485   12.6778  -16.7908 N   0  0  0  0  0  0  0  0  0  0  0  0
   44.8905   13.2387  -15.6546 C   0  0  0  0  0  0  0  0  0  0  0  0
   43.8237   13.4904  -14.8004 C   0  0  0  0  0  0  0  0  0  0  0  0
   42.7021   13.0543  -15.4722 C   0  0  0  0  0  0  0  0  0  0  0  0
   41.3622   13.0284  -15.1665 C   0  0  0  0  0  0  0  0  0  0  0  0
   45.0182   12.3869  -17.5970 H   0  0  0  0  0  0  0  0  0  0  0  0
   36.2761   12.4564  -15.0782 C   0  0  0  0  0  0  0  0  0  0  0  0
   37.1807   13.1868  -14.3369 C   0  0  0  0  0  0  0  0  0  0  0  0
   38.5419   13.2122  -14.6501 C   0  0  0  0  0  0  0  0  0  0  0  0
   39.0003   12.4913  -15.7263 C   0  0  0  0  0  0  0  0  0  0  0  0
   38.0789   11.7511  -16.4764 C   0  0  0  0  0  0  0  0  0  0  0  0
   36.7358   11.7325  -16.1588 C   0  0  0  0  0  0  0  0  0  0  0  0
   33.6046   11.4008  -15.5999 C   0  0  0  0  0  0  0  0  0  0  0  0
   34.6063   12.4821  -14.6194 S   0  0  0  0  0  0  0  0  0  0  0  0
   34.5128   12.0070  -13.1887 O   0  0  0  0  0  0  0  0  0  0  0  0
   34.0315   13.8822  -14.6983 O   0  0  0  0  0  0  0  0  0  0  0  0
   43.8733   14.0823  -13.4837 C   0  0  0  0  0  0  0  0  0  0  0  0
   43.6819   13.3020  -12.3689 C   0  0  0  0  0  0  0  0  0  0  0  0
   43.7288   13.8695  -11.1118 C   0  0  0  0  0  0  0  0  0  0  0  0
   43.9651   15.2128  -10.9362 C   0  0  0  0  0  0  0  0  0  0  0  0
   44.1533   15.9702  -12.0736 C   0  0  0  0  0  0  0  0  0  0  0  0
   44.1117   15.4286  -13.3499 C   0  0  0  0  0  0  0  0  0  0  0  0
 17 18  1  0  0  0
 18 19  2  0  0  0
 18 20  2  0  0  0
 18 11  1  0  0  0
 11 12  2  0  0  0
 12 13  1  0  0  0
 13 14  2  0  0  0
 14 15  1  0  0  0
 15 16  2  0  0  0
 14  1  1  0  0  0
  1  2  2  0  0  0
  2  3  1  0  0  0
  3  4  2  0  0  0
  4  5  1  0  0  0
  5  6  1  0  0  0
  6  7  2  0  0  0
  7 21  1  0  0  0
 21 22  2  0  0  0
 22 23  1  0  0  0
 23 24  2  0  0  0
 24 25  1  0  0  0
 25 26  2  0  0  0
  7  8  1  0  0  0
  8  9  2  0  0  0
 16 11  1  0  0  0
  9  1  1  0  0  0
  8  4  1  0  0  0
 26 21  1  0  0  0
  5 10  1  0  0  0
M  END
> <minimizedAffinity>
-8.58032

> <CNNscore>
0.5965972543

> <CNNaffinity>
6.4102478027

> <CNN_VS>
3.8243362904

> <CNNaffinity_variance>
0.2251504958

$$$$
[H]c1nc2c(c([H])c1-c1c([H])c([H])c(S(=O)(=O)C([H])([H])[H])c([H])c1[H])c(-c1c([H])c([H])c([H])c([H])c1[H])c([H])n2[H]


 26 29  0  0  0  0  0  0  0  0999 V2000
   42.0746   13.0411  -15.4901 C   0  0  0  0  0  0  0  0  0  0  0  0
   42.2805   12.4902  -16.7317 C   0  0  0  0  0  0  0  0  0  0  0  0
   41.2356   11.9753  -17.4167 N   0  0  0  0  0  0  0  0  0  0  0  0
   39.9804   11.9700  -16.9459 C   0  0  0  0  0  0  0  0  0  0  0  0
   38.8189   11.5085  -17.4728 N   0  0  0  0  0  0  0  0  0  0  0  0
   37.8439   11.7520  -16.5835 C   0  0  0  0  0  0  0  0  0  0  0  0
   38.3685   12.3799  -15.4604 C   0  0  0  0  0  0  0  0  0  0  0  0
   39.7184   12.5095  -15.7067 C   0  0  0  0  0  0  0  0  0  0  0  0
   40.7674   13.0385  -14.9932 C   0  0  0  0  0  0  0  0  0  0  0  0
   38.7167   11.0549  -18.3910 H   0  0  0  0  0  0  0  0  0  0  0  0
   45.2919   14.6872  -13.2579 C   0  0  0  0  0  0  0  0  0  0  0  0
   43.9863   14.7967  -12.8280 C   0  0  0  0  0  0  0  0  0  0  0  0
   42.9220   14.2590  -13.5559 C   0  0  0  0  0  0  0  0  0  0  0  0
   43.1752   13.6004  -14.7348 C   0  0  0  0  0  0  0  0  0  0  0  0
   44.5019   13.4912  -15.1680 C   0  0  0  0  0  0  0  0  0  0  0  0
   45.5466   14.0261  -14.4416 C   0  0  0  0  0  0  0  0  0  0  0  0
   46.8909   17.0686  -12.7141 C   0  0  0  0  0  0  0  0  0  0  0  0
   46.5502   15.3832  -12.2928 S   0  0  0  0  0  0  0  0  0  0  0  0
   46.0931   15.3634  -10.8533 O   0  0  0  0  0  0  0  0  0  0  0  0
   47.8350   14.5863  -12.3988 O   0  0  0  0  0  0  0  0  0  0  0  0
   37.6547   12.8106  -14.2807 C   0  0  0  0  0  0  0  0  0  0  0  0
   36.5815   12.0860  -13.8209 C   0  0  0  0  0  0  0  0  0  0  0  0
   35.9002   12.4996  -12.6942 C   0  0  0  0  0  0  0  0  0  0  0  0
   36.2671   13.6319  -12.0056 C   0  0  0  0  0  0  0  0  0  0  0  0
   37.3479   14.3383  -12.4910 C   0  0  0  0  0  0  0  0  0  0  0  0
   38.0521   13.9480  -13.6205 C   0  0  0  0  0  0  0  0  0  0  0  0
 17 18  1  0  0  0
 18 19  2  0  0  0
 18 20  2  0  0  0
 18 11  1  0  0  0
 11 12  2  0  0  0
 12 13  1  0  0  0
 13 14  2  0  0  0
 14 15  1  0  0  0
 15 16  2  0  0  0
 14  1  1  0  0  0
  1  2  2  0  0  0
  2  3  1  0  0  0
  3  4  2  0  0  0
  4  5  1  0  0  0
  5  6  1  0  0  0
  6  7  2  0  0  0
  7 21  1  0  0  0
 21 22  2  0  0  0
 22 23  1  0  0  0
 23 24  2  0  0  0
 24 25  1  0  0  0
 25 26  2  0  0  0
  7  8  1  0  0  0
  8  9  2  0  0  0
 16 11  1  0  0  0
  9  1  1  0  0  0
  8  4  1  0  0  0
 26 21  1  0  0  0
  5 10  1  0  0  0
M  END
> <minimizedAffinity>
-7.51267

> <CNNscore>
0.5387263894

> <CNNaffinity>
6.1879858971

> <CNN_VS>
3.3336312771

> <CNNaffinity_variance>
0.1502837837

$$$$
[H]c1nc2c(c([H])c1-c1c([H])c([H])c(S(=O)(=O)C([H])([H])[H])c([H])c1[H])c(-c1c([H])c([H])c([H])c([H])c1[H])c([H])n2[H]


 26 29  0  0  0  0  0  0  0  0999 V2000
   40.3978   12.4551  -15.9514 C   0  0  0  0  0  0  0  0  0  0  0  0
   41.3151   12.0744  -16.9008 C   0  0  0  0  0  0  0  0  0  0  0  0
   42.6069   12.4489  -16.7707 N   0  0  0  0  0  0  0  0  0  0  0  0
   43.0576   13.1872  -15.7464 C   0  0  0  0  0  0  0  0  0  0  0  0
   44.2940   13.6561  -15.4447 N   0  0  0  0  0  0  0  0  0  0  0  0
   44.1984   14.3466  -14.2980 C   0  0  0  0  0  0  0  0  0  0  0  0
   42.8864   14.3321  -13.8404 C   0  0  0  0  0  0  0  0  0  0  0  0
   42.1803   13.5957  -14.7671 C   0  0  0  0  0  0  0  0  0  0  0  0
   40.8615   13.2256  -14.8804 C   0  0  0  0  0  0  0  0  0  0  0  0
   45.1449   13.5028  -16.0029 H   0  0  0  0  0  0  0  0  0  0  0  0
   36.3235   11.3057  -16.3019 C   0  0  0  0  0  0  0  0  0  0  0  0
   37.2527   10.9680  -17.2632 C   0  0  0  0  0  0  0  0  0  0  0  0
   38.5944   11.3421  -17.1564 C   0  0  0  0  0  0  0  0  0  0  0  0
   39.0080   12.0674  -16.0652 C   0  0  0  0  0  0  0  0  0  0  0  0
   38.0619   12.4083  -15.0915 C   0  0  0  0  0  0  0  0  0  0  0  0
   36.7383   12.0339  -15.2061 C   0  0  0  0  0  0  0  0  0  0  0  0
   33.6051   11.3975  -15.2412 C   0  0  0  0  0  0  0  0  0  0  0  0
   34.6808   10.8000  -16.5140 S   0  0  0  0  0  0  0  0  0  0  0  0
   34.1874   11.3694  -17.8232 O   0  0  0  0  0  0  0  0  0  0  0  0
   34.5694    9.2899  -16.5755 O   0  0  0  0  0  0  0  0  0  0  0  0
   42.3660   14.9541  -12.6450 C   0  0  0  0  0  0  0  0  0  0  0  0
   41.2037   15.6853  -12.6979 C   0  0  0  0  0  0  0  0  0  0  0  0
   40.7085   16.2795  -11.5549 C   0  0  0  0  0  0  0  0  0  0  0  0
   41.3515   16.1613  -10.3451 C   0  0  0  0  0  0  0  0  0  0  0  0
   42.5155   15.4215  -10.3234 C   0  0  0  0  0  0  0  0  0  0  0  0
   43.0378   14.8129  -11.4550 C   0  0  0  0  0  0  0  0  0  0  0  0
 17 18  1  0  0  0
 18 19  2  0  0  0
 18 20  2  0  0  0
 18 11  1  0  0  0
 11 12  2  0  0  0
 12 13  1  0  0  0
 13 14  2  0  0  0
 14 15  1  0  0  0
 15 16  2  0  0  0
 14  1  1  0  0  0
  1  2  2  0  0  0
  2  3  1  0  0  0
  3  4  2  0  0  0
  4  5  1  0  0  0
  5  6  1  0  0  0
  6  7  2  0  0  0
  7 21  1  0  0  0
 21 22  2  0  0  0
 22 23  1  0  0  0
 23 24  2  0  0  0
 24 25  1  0  0  0
 25 26  2  0  0  0
  7  8  1  0  0  0
  8  9  2  0  0  0
 16 11  1  0  0  0
  9  1  1  0  0  0
  8  4  1  0  0  0
 26 21  1  0  0  0
  5 10  1  0  0  0
M  END
> <minimizedAffinity>
-8.12108

> <CNNscore>
0.3369068801

> <CNNaffinity>
6.1174077988

> <CNN_VS>
2.0609967709

> <CNNaffinity_variance>
0.0487122014

$$$$
[H]c1nc2c(c([H])c1-c1c([H])c([H])c(S(=O)(=O)C([H])([H])[H])c([H])c1[H])c(-c1c([H])c([H])c([H])c([H])c1[H])c([H])n2[H]


 26 29  0  0  0  0  0  0  0  0999 V2000
   39.3816   11.9479  -16.4354 C   0  0  0  0  0  0  0  0  0  0  0  0
   39.1935   11.1536  -17.5405 C   0  0  0  0  0  0  0  0  0  0  0  0
   37.9466   10.7498  -17.8695 N   0  0  0  0  0  0  0  0  0  0  0  0
   36.8564   11.0859  -17.1653 C   0  0  0  0  0  0  0  0  0  0  0  0
   35.5442   10.7856  -17.3317 N   0  0  0  0  0  0  0  0  0  0  0  0
   34.8624   11.3786  -16.3397 C   0  0  0  0  0  0  0  0  0  0  0  0
   35.7341   12.0762  -15.5122 C   0  0  0  0  0  0  0  0  0  0  0  0
   36.9885   11.8803  -16.0486 C   0  0  0  0  0  0  0  0  0  0  0  0
   38.2483   12.3020  -15.6963 C   0  0  0  0  0  0  0  0  0  0  0  0
   35.1541   10.2060  -18.0874 H   0  0  0  0  0  0  0  0  0  0  0  0
   43.2604   13.2698  -15.3169 C   0  0  0  0  0  0  0  0  0  0  0  0
   42.1435   13.6116  -14.5840 C   0  0  0  0  0  0  0  0  0  0  0  0
   40.8641   13.1819  -14.9447 C   0  0  0  0  0  0  0  0  0  0  0  0
   40.7058   12.3956  -16.0603 C   0  0  0  0  0  0  0  0  0  0  0  0
   41.8420   12.0507  -16.8017 C   0  0  0  0  0  0  0  0  0  0  0  0
   43.1020   12.4803  -16.4371 C   0  0  0  0  0  0  0  0  0  0  0  0
   45.1607   13.4511  -13.1080 C   0  0  0  0  0  0  0  0  0  0  0  0
   44.8088   13.8459  -14.7974 S   0  0  0  0  0  0  0  0  0  0  0  0
   45.8612   13.1710  -15.6452 O   0  0  0  0  0  0  0  0  0  0  0  0
   44.9328   15.3450  -14.9824 O   0  0  0  0  0  0  0  0  0  0  0  0
   35.4018   12.8477  -14.3371 C   0  0  0  0  0  0  0  0  0  0  0  0
   36.2251   12.8186  -13.2373 C   0  0  0  0  0  0  0  0  0  0  0  0
   35.9054   13.5558  -12.1151 C   0  0  0  0  0  0  0  0  0  0  0  0
   34.7710   14.3311  -12.0617 C   0  0  0  0  0  0  0  0  0  0  0  0
   33.9644   14.3400  -13.1806 C   0  0  0  0  0  0  0  0  0  0  0  0
   34.2589   13.6099  -14.3226 C   0  0  0  0  0  0  0  0  0  0  0  0
 17 18  1  0  0  0
 18 19  2  0  0  0
 18 20  2  0  0  0
 18 11  1  0  0  0
 11 12  2  0  0  0
 12 13  1  0  0  0
 13 14  2  0  0  0
 14 15  1  0  0  0
 15 16  2  0  0  0
 14  1  1  0  0  0
  1  2  2  0  0  0
  2  3  1  0  0  0
  3  4  2  0  0  0
  4  5  1  0  0  0
  5  6  1  0  0  0
  6  7  2  0  0  0
  7 21  1  0  0  0
 21 22  2  0  0  0
 22 23  1  0  0  0
 23 24  2  0  0  0
 24 25  1  0  0  0
 25 26  2  0  0  0
  7  8  1  0  0  0
  8  9  2  0  0  0
 16 11  1  0  0  0
  9  1  1  0  0  0
  8  4  1  0  0  0
 26 21  1  0  0  0
  5 10  1  0  0  0
M  END
> <minimizedAffinity>
-9.29144

> <CNNscore>
0.3108034730

> <CNNaffinity>
6.3395080566

> <CNN_VS>
1.9703410864

> <CNNaffinity_variance>
0.0879663751

$$$$
[H]c1nc2c(c([H])c1-c1c([H])c([H])c(S(=O)(=O)C([H])([H])[H])c([H])c1[H])c(-c1c([H])c([H])c([H])c([H])c1[H])c([H])n2[H]


 26 29  0  0  0  0  0  0  0  0999 V2000
   40.6864   13.0933  -15.2679 C   0  0  0  0  0  0  0  0  0  0  0  0
   40.5258   12.4324  -16.4617 C   0  0  0  0  0  0  0  0  0  0  0  0
   41.6129   12.0818  -17.1837 N   0  0  0  0  0  0  0  0  0  0  0  0
   42.8685   12.3467  -16.7956 C   0  0  0  0  0  0  0  0  0  0  0  0
   44.0678   12.0816  -17.3709 N   0  0  0  0  0  0  0  0  0  0  0  0
   45.0228   12.5652  -16.5616 C   0  0  0  0  0  0  0  0  0  0  0  0
   44.4466   13.1544  -15.4427 C   0  0  0  0  0  0  0  0  0  0  0  0
   43.0862   13.0071  -15.6073 C   0  0  0  0  0  0  0  0  0  0  0  0
   41.9938   13.3728  -14.8575 C   0  0  0  0  0  0  0  0  0  0  0  0
   44.2072   11.5957  -18.2674 H   0  0  0  0  0  0  0  0  0  0  0  0
   37.3299   14.2467  -12.9341 C   0  0  0  0  0  0  0  0  0  0  0  0
   38.4481   15.0475  -13.0331 C   0  0  0  0  0  0  0  0  0  0  0  0
   39.5566   14.6760  -13.7979 C   0  0  0  0  0  0  0  0  0  0  0  0
   39.5399   13.4800  -14.4738 C   0  0  0  0  0  0  0  0  0  0  0  0
   38.4030   12.6698  -14.3709 C   0  0  0  0  0  0  0  0  0  0  0  0
   37.3127   13.0457  -13.6126 C   0  0  0  0  0  0  0  0  0  0  0  0
   34.4266   14.3393  -12.6419 C   0  0  0  0  0  0  0  0  0  0  0  0
   36.0001   14.7853  -11.9642 S   0  0  0  0  0  0  0  0  0  0  0  0
   36.1130   14.1183  -10.6137 O   0  0  0  0  0  0  0  0  0  0  0  0
   36.0342   16.2869  -11.7618 O   0  0  0  0  0  0  0  0  0  0  0  0
   45.1250   13.7878  -14.3358 C   0  0  0  0  0  0  0  0  0  0  0  0
   45.2217   15.1573  -14.2786 C   0  0  0  0  0  0  0  0  0  0  0  0
   45.8710   15.7606  -13.2206 C   0  0  0  0  0  0  0  0  0  0  0  0
   46.4331   15.0229  -12.2053 C   0  0  0  0  0  0  0  0  0  0  0  0
   46.3200   13.6508  -12.2903 C   0  0  0  0  0  0  0  0  0  0  0  0
   45.6739   13.0159  -13.3408 C   0  0  0  0  0  0  0  0  0  0  0  0
 17 18  1  0  0  0
 18 19  2  0  0  0
 18 20  2  0  0  0
 18 11  1  0  0  0
 11 12  2  0  0  0
 12 13  1  0  0  0
 13 14  2  0  0  0
 14 15  1  0  0  0
 15 16  2  0  0  0
 14  1  1  0  0  0
  1  2  2  0  0  0
  2  3  1  0  0  0
  3  4  2  0  0  0
  4  5  1  0  0  0
  5  6  1  0  0  0
  6  7  2  0  0  0
  7 21  1  0  0  0
 21 22  2  0  0  0
 22 23  1  0  0  0
 23 24  2  0  0  0
 24 25  1  0  0  0
 25 26  2  0  0  0
  7  8  1  0  0  0
  8  9  2  0  0  0
 16 11  1  0  0  0
  9  1  1  0  0  0
  8  4  1  0  0  0
 26 21  1  0  0  0
  5 10  1  0  0  0
M  END
> <minimizedAffinity>
-8.02724

> <CNNscore>
0.2703966498

> <CNNaffinity>
5.8872232437

> <CNN_VS>
1.5918854475

> <CNNaffinity_variance>
0.1282991469

$$$$
[H]c1c([H])c([H])c2c(c1[H])c1c3c(c4c5c([H])c([H])c([H])c([H])c5n5c4c1n2[C@@]1(C([H])([H])[H])O[C@]5([H])C([H])([H])[C@@]([H])(N([H])C([H])([H])[H])[C@@]1([H])OC([H])([H])[H])C(=O)N([H])C3([H])[H]


 37 44  0  0  0  0  0  0  0  0999 V2000
   36.7870   15.0641  -13.2459 C   0  0  0  0  0  0  0  0  0  0  0  0
   38.2101   14.7669  -13.0733 C   0  0  0  0  0  0  0  0  0  0  0  0
   38.4965   13.3209  -12.9763 C   0  0  0  0  0  0  0  0  0  0  0  0
   37.5571   12.4416  -12.7545 O   0  0  0  0  0  0  0  0  0  0  0  0
   36.2647   12.5707  -13.2559 C   0  0  0  0  0  0  0  0  0  0  0  0
   35.5025   11.6181  -12.3252 C   0  0  0  0  0  0  0  0  0  0  0  0
   35.8019   13.9416  -13.0781 C   0  0  0  0  0  0  0  0  0  0  0  0
   36.2687   12.0760  -14.6439 N   0  0  0  0  0  0  0  0  0  0  0  0
   35.2485   11.5666  -15.3317 C   0  0  0  0  0  0  0  0  0  0  0  0
   33.9287   11.3751  -15.0306 C   0  0  0  0  0  0  0  0  0  0  0  0
   33.0532   10.8191  -15.9362 C   0  0  0  0  0  0  0  0  0  0  0  0
   33.4803   10.4256  -17.2083 C   0  0  0  0  0  0  0  0  0  0  0  0
   34.7916   10.6144  -17.5124 C   0  0  0  0  0  0  0  0  0  0  0  0
   35.6531   11.1686  -16.6031 C   0  0  0  0  0  0  0  0  0  0  0  0
   36.9898   11.4569  -16.6838 C   0  0  0  0  0  0  0  0  0  0  0  0
   37.9467   11.2938  -17.6880 C   0  0  0  0  0  0  0  0  0  0  0  0
   37.8096   10.7280  -19.0496 C   0  0  0  0  0  0  0  0  0  0  0  0
   39.0948   10.7964  -19.6627 N   0  0  0  0  0  0  0  0  0  0  0  0
   40.0056   11.3807  -18.7257 C   0  0  0  0  0  0  0  0  0  0  0  0
   41.1917   11.5519  -19.0136 O   0  0  0  0  0  0  0  0  0  0  0  0
   39.2738   11.6812  -17.5094 C   0  0  0  0  0  0  0  0  0  0  0  0
   39.6022   12.2360  -16.2931 C   0  0  0  0  0  0  0  0  0  0  0  0
   40.7663   12.7436  -15.7450 C   0  0  0  0  0  0  0  0  0  0  0  0
   42.0400   12.8669  -16.2247 C   0  0  0  0  0  0  0  0  0  0  0  0
   43.0116   13.4298  -15.4204 C   0  0  0  0  0  0  0  0  0  0  0  0
   42.7116   13.8628  -14.1542 C   0  0  0  0  0  0  0  0  0  0  0  0
   41.4322   13.7448  -13.6574 C   0  0  0  0  0  0  0  0  0  0  0  0
   40.4776   13.1864  -14.4610 C   0  0  0  0  0  0  0  0  0  0  0  0
   39.2016   12.9650  -14.2242 N   0  0  0  0  0  0  0  0  0  0  0  0
   38.6318   12.3958  -15.2887 C   0  0  0  0  0  0  0  0  0  0  0  0
   37.3190   12.0024  -15.4849 C   0  0  0  0  0  0  0  0  0  0  0  0
   39.3084   10.4681  -20.6338 H   0  0  0  0  0  0  0  0  0  0  0  0
   37.8662   15.6094  -15.3190 C   0  0  0  0  0  0  0  0  0  0  0  0
   36.6258   15.7036  -14.5715 N   0  0  0  0  0  0  0  0  0  0  0  0
   35.9119   15.2028  -15.1426 H   0  0  0  0  0  0  0  0  0  0  0  0
   34.7124   14.3312  -13.8538 O   0  0  0  0  0  0  0  0  0  0  0  0
   33.5327   14.4353  -13.1272 C   0  0  0  0  0  0  0  0  0  0  0  0
 33 34  1  0  0  0
 34  1  1  0  0  0
  1  2  1  0  0  0
  2  3  1  0  0  0
  3  4  1  0  0  0
  4  5  1  0  0  0
  5  6  1  0  0  0
  5  7  1  0  0  0
  7 36  1  0  0  0
 36 37  1  0  0  0
  5  8  1  0  0  0
  8  9  1  0  0  0
  9 10  2  0  0  0
 10 11  1  0  0  0
 11 12  2  0  0  0
 12 13  1  0  0  0
 13 14  2  0  0  0
 14 15  1  0  0  0
 15 16  2  0  0  0
 16 17  1  0  0  0
 17 18  1  0  0  0
 18 19  1  0  0  0
 19 20  2  0  0  0
 19 21  1  0  0  0
 21 22  2  0  0  0
 22 23  1  0  0  0
 23 24  2  0  0  0
 24 25  1  0  0  0
 25 26  2  0  0  0
 26 27  1  0  0  0
 27 28  2  0  0  0
 28 29  1  0  0  0
 29 30  1  0  0  0
 30 31  2  0  0  0
  7  1  1  0  0  0
 31  8  1  0  0  0
 29  3  1  0  0  0
 14  9  1  0  0  0
 31 15  1  0  0  0
 21 16  1  0  0  0
 30 22  1  0  0  0
 28 23  1  0  0  0
 34 35  1  0  0  0
 18 32  1  0  0  0
M  END
> <minimizedAffinity>
-7.00294

> <CNNscore>
0.7400333285

> <CNNaffinity>
7.6930375099

> <CNN_VS>
5.6931042671

> <CNNaffinity_variance>
0.1844412386

$$$$
[H]c1c([H])c([H])c2c(c1[H])c1c3c(c4c5c([H])c([H])c([H])c([H])c5n5c4c1n2[C@@]1(C([H])([H])[H])O[C@]5([H])C([H])([H])[C@@]([H])(N([H])C([H])([H])[H])[C@@]1([H])OC([H])([H])[H])C(=O)N([H])C3([H])[H]


 37 44  0  0  0  0  0  0  0  0999 V2000
   36.0231   20.3044   -6.5330 C   0  0  0  0  0  0  0  0  0  0  0  0
   37.3674   20.1639   -5.9706 C   0  0  0  0  0  0  0  0  0  0  0  0
   37.4025   19.3473   -4.7400 C   0  0  0  0  0  0  0  0  0  0  0  0
   36.3203   19.0566   -4.0700 O   0  0  0  0  0  0  0  0  0  0  0  0
   35.0904   18.8254   -4.6803 C   0  0  0  0  0  0  0  0  0  0  0  0
   34.1402   19.0409   -3.4949 C   0  0  0  0  0  0  0  0  0  0  0  0
   34.8572   19.8269   -5.7137 C   0  0  0  0  0  0  0  0  0  0  0  0
   35.0703   17.4245   -5.1365 N   0  0  0  0  0  0  0  0  0  0  0  0
   34.0092   16.6408   -5.3194 C   0  0  0  0  0  0  0  0  0  0  0  0
   32.6644   16.8549   -5.1974 C   0  0  0  0  0  0  0  0  0  0  0  0
   31.7473   15.8603   -5.4531 C   0  0  0  0  0  0  0  0  0  0  0  0
   32.1560   14.5834   -5.8506 C   0  0  0  0  0  0  0  0  0  0  0  0
   33.4920   14.3660   -5.9737 C   0  0  0  0  0  0  0  0  0  0  0  0
   34.3949   15.3633   -5.7166 C   0  0  0  0  0  0  0  0  0  0  0  0
   35.7633   15.3816   -5.7775 C   0  0  0  0  0  0  0  0  0  0  0  0
   36.7210   14.4202   -6.1078 C   0  0  0  0  0  0  0  0  0  0  0  0
   36.5489   13.0069   -6.5150 C   0  0  0  0  0  0  0  0  0  0  0  0
   37.8523   12.4732   -6.7360 N   0  0  0  0  0  0  0  0  0  0  0  0
   38.8075   13.5075   -6.4778 C   0  0  0  0  0  0  0  0  0  0  0  0
   40.0168   13.3009   -6.5971 O   0  0  0  0  0  0  0  0  0  0  0  0
   38.0856   14.7048   -6.0901 C   0  0  0  0  0  0  0  0  0  0  0  0
   38.4504   15.9829   -5.7319 C   0  0  0  0  0  0  0  0  0  0  0  0
   39.6588   16.6447   -5.6096 C   0  0  0  0  0  0  0  0  0  0  0  0
   40.9544   16.2509   -5.7941 C   0  0  0  0  0  0  0  0  0  0  0  0
   41.9716   17.1627   -5.5900 C   0  0  0  0  0  0  0  0  0  0  0  0
   41.6950   18.4500   -5.2065 C   0  0  0  0  0  0  0  0  0  0  0  0
   40.3940   18.8610   -5.0167 C   0  0  0  0  0  0  0  0  0  0  0  0
   39.3943   17.9514   -5.2212 C   0  0  0  0  0  0  0  0  0  0  0  0
   38.0903   18.0932   -5.1080 N   0  0  0  0  0  0  0  0  0  0  0  0
   37.4788   16.9435   -5.4011 C   0  0  0  0  0  0  0  0  0  0  0  0
   36.1281   16.6403   -5.4226 C   0  0  0  0  0  0  0  0  0  0  0  0
   38.0487   11.4893   -7.0356 H   0  0  0  0  0  0  0  0  0  0  0  0
   37.3675   19.6760   -8.4191 C   0  0  0  0  0  0  0  0  0  0  0  0
   36.0281   19.6498   -7.8610 N   0  0  0  0  0  0  0  0  0  0  0  0
   35.7740   18.6420   -7.7808 H   0  0  0  0  0  0  0  0  0  0  0  0
   33.8826   19.5216   -6.6609 O   0  0  0  0  0  0  0  0  0  0  0  0
   32.7593   20.3345   -6.5718 C   0  0  0  0  0  0  0  0  0  0  0  0
 33 34  1  0  0  0
 34  1  1  0  0  0
  1  2  1  0  0  0
  2  3  1  0  0  0
  3  4  1  0  0  0
  4  5  1  0  0  0
  5  6  1  0  0  0
  5  7  1  0  0  0
  7 36  1  0  0  0
 36 37  1  0  0  0
  5  8  1  0  0  0
  8  9  1  0  0  0
  9 10  2  0  0  0
 10 11  1  0  0  0
 11 12  2  0  0  0
 12 13  1  0  0  0
 13 14  2  0  0  0
 14 15  1  0  0  0
 15 16  2  0  0  0
 16 17  1  0  0  0
 17 18  1  0  0  0
 18 19  1  0  0  0
 19 20  2  0  0  0
 19 21  1  0  0  0
 21 22  2  0  0  0
 22 23  1  0  0  0
 23 24  2  0  0  0
 24 25  1  0  0  0
 25 26  2  0  0  0
 26 27  1  0  0  0
 27 28  2  0  0  0
 28 29  1  0  0  0
 29 30  1  0  0  0
 30 31  2  0  0  0
  7  1  1  0  0  0
 31  8  1  0  0  0
 29  3  1  0  0  0
 14  9  1  0  0  0
 31 15  1  0  0  0
 21 16  1  0  0  0
 30 22  1  0  0  0
 28 23  1  0  0  0
 34 35  1  0  0  0
 18 32  1  0  0  0
M  END
> <minimizedAffinity>
-5.25037

> <CNNscore>
0.2917253673

> <CNNaffinity>
5.4645805359

> <CNN_VS>
1.5941567421

> <CNNaffinity_variance>
0.0890124887

$$$$
[H]c1c([H])c([H])c2c(c1[H])c1c3c(c4c5c([H])c([H])c([H])c([H])c5n5c4c1n2[C@@]1(C([H])([H])[H])O[C@]5([H])C([H])([H])[C@@]([H])(N([H])C([H])([H])[H])[C@@]1([H])OC([H])([H])[H])C(=O)N([H])C3([H])[H]


 37 44  0  0  0  0  0  0  0  0999 V2000
   41.6430   15.0751   -8.8702 C   0  0  0  0  0  0  0  0  0  0  0  0
   42.3812   14.1790   -7.9784 C   0  0  0  0  0  0  0  0  0  0  0  0
   43.5838   13.5929   -8.6052 C   0  0  0  0  0  0  0  0  0  0  0  0
   43.7794   13.6274   -9.8956 O   0  0  0  0  0  0  0  0  0  0  0  0
   43.3805   14.6959  -10.6942 C   0  0  0  0  0  0  0  0  0  0  0  0
   43.3744   14.0303  -12.0768 C   0  0  0  0  0  0  0  0  0  0  0  0
   42.0352   15.1149  -10.3204 C   0  0  0  0  0  0  0  0  0  0  0  0
   44.4189   15.7375  -10.6045 N   0  0  0  0  0  0  0  0  0  0  0  0
   44.7183   16.6711  -11.5056 C   0  0  0  0  0  0  0  0  0  0  0  0
   44.1826   16.9945  -12.7211 C   0  0  0  0  0  0  0  0  0  0  0  0
   44.6801   18.0313  -13.4785 C   0  0  0  0  0  0  0  0  0  0  0  0
   45.7596   18.8003  -13.0327 C   0  0  0  0  0  0  0  0  0  0  0  0
   46.2953   18.4828  -11.8245 C   0  0  0  0  0  0  0  0  0  0  0  0
   45.7917   17.4492  -11.0801 C   0  0  0  0  0  0  0  0  0  0  0  0
   46.1555   16.9567   -9.8547 C   0  0  0  0  0  0  0  0  0  0  0  0
   47.1479   17.3075   -8.9368 C   0  0  0  0  0  0  0  0  0  0  0  0
   48.1713   18.3757   -9.0043 C   0  0  0  0  0  0  0  0  0  0  0  0
   48.9351   18.3002   -7.8029 N   0  0  0  0  0  0  0  0  0  0  0  0
   48.4152   17.2276   -7.0104 C   0  0  0  0  0  0  0  0  0  0  0  0
   48.9055   16.9512   -5.9138 O   0  0  0  0  0  0  0  0  0  0  0  0
   47.3089   16.6263   -7.7312 C   0  0  0  0  0  0  0  0  0  0  0  0
   46.4411   15.5870   -7.4827 C   0  0  0  0  0  0  0  0  0  0  0  0
   46.2678   14.7024   -6.4336 C   0  0  0  0  0  0  0  0  0  0  0  0
   46.9214   14.5339   -5.2453 C   0  0  0  0  0  0  0  0  0  0  0  0
   46.5056   13.5388   -4.3825 C   0  0  0  0  0  0  0  0  0  0  0  0
   45.4505   12.7244   -4.7053 C   0  0  0  0  0  0  0  0  0  0  0  0
   44.7823   12.8826   -5.8995 C   0  0  0  0  0  0  0  0  0  0  0  0
   45.2013   13.8701   -6.7467 C   0  0  0  0  0  0  0  0  0  0  0  0
   44.7371   14.2194   -7.9282 N   0  0  0  0  0  0  0  0  0  0  0  0
   45.4455   15.2415   -8.4131 C   0  0  0  0  0  0  0  0  0  0  0  0
   45.3034   15.9293   -9.6062 C   0  0  0  0  0  0  0  0  0  0  0  0
   49.7346   18.9336   -7.5661 H   0  0  0  0  0  0  0  0  0  0  0  0
   41.9333   16.3384   -6.8503 C   0  0  0  0  0  0  0  0  0  0  0  0
   41.6978   16.4316   -8.2793 N   0  0  0  0  0  0  0  0  0  0  0  0
   42.5007   16.9737   -8.6642 H   0  0  0  0  0  0  0  0  0  0  0  0
   41.6448   16.3846  -10.7400 O   0  0  0  0  0  0  0  0  0  0  0  0
   40.6116   16.3603  -11.6686 C   0  0  0  0  0  0  0  0  0  0  0  0
 33 34  1  0  0  0
 34  1  1  0  0  0
  1  2  1  0  0  0
  2  3  1  0  0  0
  3  4  1  0  0  0
  4  5  1  0  0  0
  5  6  1  0  0  0
  5  7  1  0  0  0
  7 36  1  0  0  0
 36 37  1  0  0  0
  5  8  1  0  0  0
  8  9  1  0  0  0
  9 10  2  0  0  0
 10 11  1  0  0  0
 11 12  2  0  0  0
 12 13  1  0  0  0
 13 14  2  0  0  0
 14 15  1  0  0  0
 15 16  2  0  0  0
 16 17  1  0  0  0
 17 18  1  0  0  0
 18 19  1  0  0  0
 19 20  2  0  0  0
 19 21  1  0  0  0
 21 22  2  0  0  0
 22 23  1  0  0  0
 23 24  2  0  0  0
 24 25  1  0  0  0
 25 26  2  0  0  0
 26 27  1  0  0  0
 27 28  2  0  0  0
 28 29  1  0  0  0
 29 30  1  0  0  0
 30 31  2  0  0  0
  7  1  1  0  0  0
 31  8  1  0  0  0
 29  3  1  0  0  0
 14  9  1  0  0  0
 31 15  1  0  0  0
 21 16  1  0  0  0
 30 22  1  0  0  0
 28 23  1  0  0  0
 34 35  1  0  0  0
 18 32  1  0  0  0
M  END
> <minimizedAffinity>
-4.75037

> <CNNscore>
0.2795498371

> <CNNaffinity>
5.3606123924

> <CNN_VS>
1.4985582829

> <CNNaffinity_variance>
0.0923332125

$$$$
[H]c1c([H])c([H])c2c(c1[H])c1c3c(c4c5c([H])c([H])c([H])c([H])c5n5c4c1n2[C@@]1(C([H])([H])[H])O[C@]5([H])C([H])([H])[C@@]([H])(N([H])C([H])([H])[H])[C@@]1([H])OC([H])([H])[H])C(=O)N([H])C3([H])[H]


 37 44  0  0  0  0  0  0  0  0999 V2000
   35.5878   12.5336  -12.7236 C   0  0  0  0  0  0  0  0  0  0  0  0
   35.5983   12.2752  -14.1646 C   0  0  0  0  0  0  0  0  0  0  0  0
   36.0594   13.4308  -14.9611 C   0  0  0  0  0  0  0  0  0  0  0  0
   36.1422   14.6320  -14.4561 O   0  0  0  0  0  0  0  0  0  0  0  0
   36.5048   14.8747  -13.1339 C   0  0  0  0  0  0  0  0  0  0  0  0
   35.9652   16.2991  -12.9485 C   0  0  0  0  0  0  0  0  0  0  0  0
   35.8095   13.9437  -12.2535 C   0  0  0  0  0  0  0  0  0  0  0  0
   37.9760   14.8439  -13.0575 N   0  0  0  0  0  0  0  0  0  0  0  0
   38.7608   15.4637  -12.1781 C   0  0  0  0  0  0  0  0  0  0  0  0
   38.4977   16.2539  -11.0939 C   0  0  0  0  0  0  0  0  0  0  0  0
   39.5078   16.7847  -10.3233 C   0  0  0  0  0  0  0  0  0  0  0  0
   40.8515   16.5358  -10.6196 C   0  0  0  0  0  0  0  0  0  0  0  0
   41.1180   15.7503  -11.6964 C   0  0  0  0  0  0  0  0  0  0  0  0
   40.1046   15.2279  -12.4555 C   0  0  0  0  0  0  0  0  0  0  0  0
   40.1279   14.4199  -13.5615 C   0  0  0  0  0  0  0  0  0  0  0  0
   41.1597   13.8491  -14.3100 C   0  0  0  0  0  0  0  0  0  0  0  0
   42.6270   13.9442  -14.1347 C   0  0  0  0  0  0  0  0  0  0  0  0
   43.2237   13.1714  -15.1736 N   0  0  0  0  0  0  0  0  0  0  0  0
   42.1754   12.6125  -15.9720 C   0  0  0  0  0  0  0  0  0  0  0  0
   42.4281   11.8974  -16.9437 O   0  0  0  0  0  0  0  0  0  0  0  0
   40.9053   13.0447  -15.4198 C   0  0  0  0  0  0  0  0  0  0  0  0
   39.5847   12.8352  -15.7473 C   0  0  0  0  0  0  0  0  0  0  0  0
   38.9362   12.1137  -16.7332 C   0  0  0  0  0  0  0  0  0  0  0  0
   39.3882   11.3421  -17.7666 C   0  0  0  0  0  0  0  0  0  0  0  0
   38.4735   10.7339  -18.6039 C   0  0  0  0  0  0  0  0  0  0  0  0
   37.1258   10.8963  -18.4089 C   0  0  0  0  0  0  0  0  0  0  0  0
   36.6557   11.6712  -17.3715 C   0  0  0  0  0  0  0  0  0  0  0  0
   37.5688   12.2690  -16.5483 C   0  0  0  0  0  0  0  0  0  0  0  0
   37.3784   13.0463  -15.5029 N   0  0  0  0  0  0  0  0  0  0  0  0
   38.5534   13.4143  -14.9876 C   0  0  0  0  0  0  0  0  0  0  0  0
   38.8270   14.2123  -13.8898 C   0  0  0  0  0  0  0  0  0  0  0  0
   44.2552   13.0503  -15.3067 H   0  0  0  0  0  0  0  0  0  0  0  0
   37.4431   11.0644  -13.1223 C   0  0  0  0  0  0  0  0  0  0  0  0
   36.5715   11.6178  -12.1024 N   0  0  0  0  0  0  0  0  0  0  0  0
   37.1957   12.1318  -11.4444 H   0  0  0  0  0  0  0  0  0  0  0  0
   36.3377   13.7928  -10.9734 O   0  0  0  0  0  0  0  0  0  0  0  0
   35.7418   14.6251  -10.0340 C   0  0  0  0  0  0  0  0  0  0  0  0
 33 34  1  0  0  0
 34  1  1  0  0  0
  1  2  1  0  0  0
  2  3  1  0  0  0
  3  4  1  0  0  0
  4  5  1  0  0  0
  5  6  1  0  0  0
  5  7  1  0  0  0
  7 36  1  0  0  0
 36 37  1  0  0  0
  5  8  1  0  0  0
  8  9  1  0  0  0
  9 10  2  0  0  0
 10 11  1  0  0  0
 11 12  2  0  0  0
 12 13  1  0  0  0
 13 14  2  0  0  0
 14 15  1  0  0  0
 15 16  2  0  0  0
 16 17  1  0  0  0
 17 18  1  0  0  0
 18 19  1  0  0  0
 19 20  2  0  0  0
 19 21  1  0  0  0
 21 22  2  0  0  0
 22 23  1  0  0  0
 23 24  2  0  0  0
 24 25  1  0  0  0
 25 26  2  0  0  0
 26 27  1  0  0  0
 27 28  2  0  0  0
 28 29  1  0  0  0
 29 30  1  0  0  0
 30 31  2  0  0  0
  7  1  1  0  0  0
 31  8  1  0  0  0
 29  3  1  0  0  0
 14  9  1  0  0  0
 31 15  1  0  0  0
 21 16  1  0  0  0
 30 22  1  0  0  0
 28 23  1  0  0  0
 34 35  1  0  0  0
 18 32  1  0  0  0
M  END
> <minimizedAffinity>
-7.81701

> <CNNscore>
0.2322955579

> <CNNaffinity>
6.3245744705

> <CNN_VS>
1.4691705704

> <CNNaffinity_variance>
0.1288398057

$$$$
[H]c1c([H])c([H])c2c(c1[H])c1c3c(c4c5c([H])c([H])c([H])c([H])c5n5c4c1n2[C@@]1(C([H])([H])[H])O[C@]5([H])C([H])([H])[C@@]([H])(N([H])C([H])([H])[H])[C@@]1([H])OC([H])([H])[H])C(=O)N([H])C3([H])[H]


 37 44  0  0  0  0  0  0  0  0999 V2000
   42.1695   15.7675   -8.3202 C   0  0  0  0  0  0  0  0  0  0  0  0
   43.3819   16.5604   -8.5316 C   0  0  0  0  0  0  0  0  0  0  0  0
   44.3905   16.3790   -7.4675 C   0  0  0  0  0  0  0  0  0  0  0  0
   44.0980   15.8232   -6.3228 O   0  0  0  0  0  0  0  0  0  0  0  0
   43.1787   14.7850   -6.1974 C   0  0  0  0  0  0  0  0  0  0  0  0
   42.8537   14.8728   -4.7004 C   0  0  0  0  0  0  0  0  0  0  0  0
   41.9952   15.0757   -6.9975 C   0  0  0  0  0  0  0  0  0  0  0  0
   43.8732   13.5269   -6.5231 N   0  0  0  0  0  0  0  0  0  0  0  0
   43.5795   12.2992   -6.0991 C   0  0  0  0  0  0  0  0  0  0  0  0
   42.5821   11.8044   -5.3057 C   0  0  0  0  0  0  0  0  0  0  0  0
   42.4907   10.4626   -5.0104 C   0  0  0  0  0  0  0  0  0  0  0  0
   43.4194    9.5459   -5.5130 C   0  0  0  0  0  0  0  0  0  0  0  0
   44.4126   10.0331   -6.3027 C   0  0  0  0  0  0  0  0  0  0  0  0
   44.4931   11.3701   -6.5895 C   0  0  0  0  0  0  0  0  0  0  0  0
   45.3835   12.0789   -7.3519 C   0  0  0  0  0  0  0  0  0  0  0  0
   46.5103   11.7180   -8.0938 C   0  0  0  0  0  0  0  0  0  0  0  0
   47.1284   10.3880   -8.2984 C   0  0  0  0  0  0  0  0  0  0  0  0
   48.2614   10.5783   -9.1427 N   0  0  0  0  0  0  0  0  0  0  0  0
   48.3544   11.9716   -9.4570 C   0  0  0  0  0  0  0  0  0  0  0  0
   49.2565   12.4022  -10.1782 O   0  0  0  0  0  0  0  0  0  0  0  0
   47.2604   12.6592   -8.7973 C   0  0  0  0  0  0  0  0  0  0  0  0
   46.8389   13.9679   -8.7294 C   0  0  0  0  0  0  0  0  0  0  0  0
   47.2858   15.1569   -9.2769 C   0  0  0  0  0  0  0  0  0  0  0  0
   48.3392   15.4645  -10.0914 C   0  0  0  0  0  0  0  0  0  0  0  0
   48.5307   16.7761  -10.4794 C   0  0  0  0  0  0  0  0  0  0  0  0
   47.6794   17.7652  -10.0577 C   0  0  0  0  0  0  0  0  0  0  0  0
   46.6135   17.4700   -9.2366 C   0  0  0  0  0  0  0  0  0  0  0  0
   46.4324   16.1690   -8.8580 C   0  0  0  0  0  0  0  0  0  0  0  0
   45.5047   15.6365   -8.0905 N   0  0  0  0  0  0  0  0  0  0  0  0
   45.7034   14.3211   -7.9798 C   0  0  0  0  0  0  0  0  0  0  0  0
   44.9730   13.3715   -7.2860 C   0  0  0  0  0  0  0  0  0  0  0  0
   48.8994    9.8122   -9.4628 H   0  0  0  0  0  0  0  0  0  0  0  0
   42.8822   15.2466  -10.5519 C   0  0  0  0  0  0  0  0  0  0  0  0
   42.0775   14.7942   -9.4321 N   0  0  0  0  0  0  0  0  0  0  0  0
   42.4735   13.8710   -9.1532 H   0  0  0  0  0  0  0  0  0  0  0  0
   41.1665   13.9948   -7.2895 O   0  0  0  0  0  0  0  0  0  0  0  0
   39.9133   14.0905   -6.6972 C   0  0  0  0  0  0  0  0  0  0  0  0
 33 34  1  0  0  0
 34  1  1  0  0  0
  1  2  1  0  0  0
  2  3  1  0  0  0
  3  4  1  0  0  0
  4  5  1  0  0  0
  5  6  1  0  0  0
  5  7  1  0  0  0
  7 36  1  0  0  0
 36 37  1  0  0  0
  5  8  1  0  0  0
  8  9  1  0  0  0
  9 10  2  0  0  0
 10 11  1  0  0  0
 11 12  2  0  0  0
 12 13  1  0  0  0
 13 14  2  0  0  0
 14 15  1  0  0  0
 15 16  2  0  0  0
 16 17  1  0  0  0
 17 18  1  0  0  0
 18 19  1  0  0  0
 19 20  2  0  0  0
 19 21  1  0  0  0
 21 22  2  0  0  0
 22 23  1  0  0  0
 23 24  2  0  0  0
 24 25  1  0  0  0
 25 26  2  0  0  0
 26 27  1  0  0  0
 27 28  2  0  0  0
 28 29  1  0  0  0
 29 30  1  0  0  0
 30 31  2  0  0  0
  7  1  1  0  0  0
 31  8  1  0  0  0
 29  3  1  0  0  0
 14  9  1  0  0  0
 31 15  1  0  0  0
 21 16  1  0  0  0
 30 22  1  0  0  0
 28 23  1  0  0  0
 34 35  1  0  0  0
 18 32  1  0  0  0
M  END
> <minimizedAffinity>
-5.01162

> <CNNscore>
0.1776753068

> <CNNaffinity>
5.1258711815

> <CNN_VS>
0.9107407331

> <CNNaffinity_variance>
0.2284524441

$$$$
[H]c1c([H])c([H])c2c(c1[H])c1c3c(c4c5c([H])c([H])c([H])c([H])c5n5c4c1n2[C@@]1(C([H])([H])[H])O[C@]5([H])C([H])([H])[C@@]([H])(N([H])C([H])([H])[H])[C@@]1([H])OC([H])([H])[H])C(=O)N([H])C3([H])[H]


 37 44  0  0  0  0  0  0  0  0999 V2000
   38.6116   15.9205   -9.9546 C   0  0  0  0  0  0  0  0  0  0  0  0
   37.1892   15.5945   -9.8365 C   0  0  0  0  0  0  0  0  0  0  0  0
   36.8629   14.8442   -8.6064 C   0  0  0  0  0  0  0  0  0  0  0  0
   37.7837   14.2723   -7.8786 O   0  0  0  0  0  0  0  0  0  0  0  0
   39.0554   14.8116   -7.7045 C   0  0  0  0  0  0  0  0  0  0  0  0
   39.8291   13.5703   -7.2405 C   0  0  0  0  0  0  0  0  0  0  0  0
   39.5680   15.2876   -8.9835 C   0  0  0  0  0  0  0  0  0  0  0  0
   38.9733   15.8232   -6.6362 N   0  0  0  0  0  0  0  0  0  0  0  0
   39.9450   16.2314   -5.8224 C   0  0  0  0  0  0  0  0  0  0  0  0
   41.2705   15.9110   -5.7246 C   0  0  0  0  0  0  0  0  0  0  0  0
   42.0866   16.4884   -4.7777 C   0  0  0  0  0  0  0  0  0  0  0  0
   41.5903   17.4315   -3.8723 C   0  0  0  0  0  0  0  0  0  0  0  0
   40.2731   17.7536   -3.9660 C   0  0  0  0  0  0  0  0  0  0  0  0
   39.4712   17.1726   -4.9123 C   0  0  0  0  0  0  0  0  0  0  0  0
   38.1417   17.3402   -5.1969 C   0  0  0  0  0  0  0  0  0  0  0  0
   37.1358   18.1354   -4.6435 C   0  0  0  0  0  0  0  0  0  0  0  0
   37.1935   19.0950   -3.5171 C   0  0  0  0  0  0  0  0  0  0  0  0
   35.8846   19.6383   -3.3625 N   0  0  0  0  0  0  0  0  0  0  0  0
   35.0358   19.0450   -4.3505 C   0  0  0  0  0  0  0  0  0  0  0  0
   33.8436   19.3479   -4.4299 O   0  0  0  0  0  0  0  0  0  0  0  0
   35.8307   18.1173   -5.1331 C   0  0  0  0  0  0  0  0  0  0  0  0
   35.5751   17.2771   -6.1932 C   0  0  0  0  0  0  0  0  0  0  0  0
   34.4533   16.9886   -6.9491 C   0  0  0  0  0  0  0  0  0  0  0  0
   33.1636   17.4383   -6.9033 C   0  0  0  0  0  0  0  0  0  0  0  0
   32.2474   16.9519   -7.8151 C   0  0  0  0  0  0  0  0  0  0  0  0
   32.6176   16.0284   -8.7591 C   0  0  0  0  0  0  0  0  0  0  0  0
   33.9139   15.5661   -8.8172 C   0  0  0  0  0  0  0  0  0  0  0  0
   34.8134   16.0535   -7.9105 C   0  0  0  0  0  0  0  0  0  0  0  0
   36.0913   15.7757   -7.7590 N   0  0  0  0  0  0  0  0  0  0  0  0
   36.5945   16.4804   -6.7431 C   0  0  0  0  0  0  0  0  0  0  0  0
   37.8842   16.5112   -6.2409 C   0  0  0  0  0  0  0  0  0  0  0  0
   35.6173   20.3487   -2.6411 H   0  0  0  0  0  0  0  0  0  0  0  0
   37.4175   18.0013  -10.0194 C   0  0  0  0  0  0  0  0  0  0  0  0
   38.7323   17.3956   -9.9167 N   0  0  0  0  0  0  0  0  0  0  0  0
   39.1208   17.7145   -9.0034 H   0  0  0  0  0  0  0  0  0  0  0  0
   40.6329   16.1839   -8.9271 O   0  0  0  0  0  0  0  0  0  0  0  0
   41.7906   15.6963   -9.5208 C   0  0  0  0  0  0  0  0  0  0  0  0
 33 34  1  0  0  0
 34  1  1  0  0  0
  1  2  1  0  0  0
  2  3  1  0  0  0
  3  4  1  0  0  0
  4  5  1  0  0  0
  5  6  1  0  0  0
  5  7  1  0  0  0
  7 36  1  0  0  0
 36 37  1  0  0  0
  5  8  1  0  0  0
  8  9  1  0  0  0
  9 10  2  0  0  0
 10 11  1  0  0  0
 11 12  2  0  0  0
 12 13  1  0  0  0
 13 14  2  0  0  0
 14 15  1  0  0  0
 15 16  2  0  0  0
 16 17  1  0  0  0
 17 18  1  0  0  0
 18 19  1  0  0  0
 19 20  2  0  0  0
 19 21  1  0  0  0
 21 22  2  0  0  0
 22 23  1  0  0  0
 23 24  2  0  0  0
 24 25  1  0  0  0
 25 26  2  0  0  0
 26 27  1  0  0  0
 27 28  2  0  0  0
 28 29  1  0  0  0
 29 30  1  0  0  0
 30 31  2  0  0  0
  7  1  1  0  0  0
 31  8  1  0  0  0
 29  3  1  0  0  0
 14  9  1  0  0  0
 31 15  1  0  0  0
 21 16  1  0  0  0
 30 22  1  0  0  0
 28 23  1  0  0  0
 34 35  1  0  0  0
 18 32  1  0  0  0
M  END
> <minimizedAffinity>
-5.85309

> <CNNscore>
0.1499677747

> <CNNaffinity>
5.3980431557

> <CNN_VS>
0.8095325232

> <CNNaffinity_variance>
0.2332634628

$$$$
[H]c1c([H])c([H])c2c(c1[H])c1c3c(c4c5c([H])c([H])c([H])c([H])c5n5c4c1n2[C@@]1(C([H])([H])[H])O[C@]5([H])C([H])([H])[C@@]([H])(N([H])C([H])([H])[H])[C@@]1([H])OC([H])([H])[H])C(=O)N([H])C3([H])[H]


 37 44  0  0  0  0  0  0  0  0999 V2000
   45.1877   15.7222   -6.3298 C   0  0  0  0  0  0  0  0  0  0  0  0
   45.6469   15.3130   -7.6583 C   0  0  0  0  0  0  0  0  0  0  0  0
   44.9077   14.1540   -8.1996 C   0  0  0  0  0  0  0  0  0  0  0  0
   44.1554   13.3984   -7.4460 O   0  0  0  0  0  0  0  0  0  0  0  0
   43.4147   13.8935   -6.3761 C   0  0  0  0  0  0  0  0  0  0  0  0
   43.1651   12.6040   -5.5827 C   0  0  0  0  0  0  0  0  0  0  0  0
   44.2282   14.8232   -5.6020 C   0  0  0  0  0  0  0  0  0  0  0  0
   42.1585   14.4441   -6.9146 N   0  0  0  0  0  0  0  0  0  0  0  0
   40.9894   14.5720   -6.2898 C   0  0  0  0  0  0  0  0  0  0  0  0
   40.5834   14.2969   -5.0136 C   0  0  0  0  0  0  0  0  0  0  0  0
   39.2903   14.5270   -4.6002 C   0  0  0  0  0  0  0  0  0  0  0  0
   38.3341   15.0546   -5.4736 C   0  0  0  0  0  0  0  0  0  0  0  0
   38.7333   15.3301   -6.7433 C   0  0  0  0  0  0  0  0  0  0  0  0
   40.0225   15.0970   -7.1429 C   0  0  0  0  0  0  0  0  0  0  0  0
   40.6461   15.2973   -8.3461 C   0  0  0  0  0  0  0  0  0  0  0  0
   40.2146   15.7924   -9.5786 C   0  0  0  0  0  0  0  0  0  0  0  0
   38.8791   16.2796   -9.9932 C   0  0  0  0  0  0  0  0  0  0  0  0
   38.9821   16.6714  -11.3601 N   0  0  0  0  0  0  0  0  0  0  0  0
   40.3275   16.4399  -11.7903 C   0  0  0  0  0  0  0  0  0  0  0  0
   40.6801   16.6978  -12.9428 O   0  0  0  0  0  0  0  0  0  0  0  0
   41.0738   15.8953  -10.6716 C   0  0  0  0  0  0  0  0  0  0  0  0
   42.3745   15.4863  -10.4817 C   0  0  0  0  0  0  0  0  0  0  0  0
   43.5006   15.4424  -11.2836 C   0  0  0  0  0  0  0  0  0  0  0  0
   43.7250   15.7873  -12.5868 C   0  0  0  0  0  0  0  0  0  0  0  0
   44.9890   15.6246  -13.1191 C   0  0  0  0  0  0  0  0  0  0  0  0
   46.0134   15.1238  -12.3571 C   0  0  0  0  0  0  0  0  0  0  0  0
   45.8020   14.7719  -11.0421 C   0  0  0  0  0  0  0  0  0  0  0  0
   44.5476   14.9365  -10.5245 C   0  0  0  0  0  0  0  0  0  0  0  0
   44.0951   14.6795   -9.3151 N   0  0  0  0  0  0  0  0  0  0  0  0
   42.7990   14.9894   -9.2371 C   0  0  0  0  0  0  0  0  0  0  0  0
   41.9294   14.8929   -8.1643 C   0  0  0  0  0  0  0  0  0  0  0  0
   38.1927   17.0591  -11.9284 H   0  0  0  0  0  0  0  0  0  0  0  0
   45.1809   17.7412   -7.6272 C   0  0  0  0  0  0  0  0  0  0  0  0
   44.6277   17.0870   -6.4558 N   0  0  0  0  0  0  0  0  0  0  0  0
   43.5971   17.0543   -6.6095 H   0  0  0  0  0  0  0  0  0  0  0  0
   43.5403   15.6842   -4.7501 O   0  0  0  0  0  0  0  0  0  0  0  0
   43.8917   15.5290   -3.4148 C   0  0  0  0  0  0  0  0  0  0  0  0
 33 34  1  0  0  0
 34  1  1  0  0  0
  1  2  1  0  0  0
  2  3  1  0  0  0
  3  4  1  0  0  0
  4  5  1  0  0  0
  5  6  1  0  0  0
  5  7  1  0  0  0
  7 36  1  0  0  0
 36 37  1  0  0  0
  5  8  1  0  0  0
  8  9  1  0  0  0
  9 10  2  0  0  0
 10 11  1  0  0  0
 11 12  2  0  0  0
 12 13  1  0  0  0
 13 14  2  0  0  0
 14 15  1  0  0  0
 15 16  2  0  0  0
 16 17  1  0  0  0
 17 18  1  0  0  0
 18 19  1  0  0  0
 19 20  2  0  0  0
 19 21  1  0  0  0
 21 22  2  0  0  0
 22 23  1  0  0  0
 23 24  2  0  0  0
 24 25  1  0  0  0
 25 26  2  0  0  0
 26 27  1  0  0  0
 27 28  2  0  0  0
 28 29  1  0  0  0
 29 30  1  0  0  0
 30 31  2  0  0  0
  7  1  1  0  0  0
 31  8  1  0  0  0
 29  3  1  0  0  0
 14  9  1  0  0  0
 31 15  1  0  0  0
 21 16  1  0  0  0
 30 22  1  0  0  0
 28 23  1  0  0  0
 34 35  1  0  0  0
 18 32  1  0  0  0
M  END
> <minimizedAffinity>
-6.29361

> <CNNscore>
0.1366097182

> <CNNaffinity>
5.2215762138

> <CNN_VS>
0.7133180499

> <CNNaffinity_variance>
0.1984195262

$$$$
[H]c1c([H])c([H])c2c(c1[H])c1c3c(c4c5c([H])c([H])c([H])c([H])c5n5c4c1n2[C@@]1(C([H])([H])[H])O[C@]5([H])C([H])([H])[C@@]([H])(N([H])C([H])([H])[H])[C@@]1([H])OC([H])([H])[H])C(=O)N([H])C3([H])[H]


 37 44  0  0  0  0  0  0  0  0999 V2000
   37.3921   15.3528   -9.4633 C   0  0  0  0  0  0  0  0  0  0  0  0
   35.9458   15.1298   -9.4194 C   0  0  0  0  0  0  0  0  0  0  0  0
   35.4854   14.5368   -8.1470 C   0  0  0  0  0  0  0  0  0  0  0  0
   36.3127   13.9900   -7.2977 O   0  0  0  0  0  0  0  0  0  0  0  0
   37.6041   14.4651   -7.0848 C   0  0  0  0  0  0  0  0  0  0  0  0
   38.2564   13.2350   -6.4400 C   0  0  0  0  0  0  0  0  0  0  0  0
   38.2342   14.7692   -8.3638 C   0  0  0  0  0  0  0  0  0  0  0  0
   37.5198   15.5881   -6.1345 N   0  0  0  0  0  0  0  0  0  0  0  0
   38.4599   16.0200   -5.2961 C   0  0  0  0  0  0  0  0  0  0  0  0
   39.7503   15.6305   -5.0672 C   0  0  0  0  0  0  0  0  0  0  0  0
   40.5381   16.2541   -4.1257 C   0  0  0  0  0  0  0  0  0  0  0  0
   40.0480   17.3174   -3.3611 C   0  0  0  0  0  0  0  0  0  0  0  0
   38.7658   17.7084   -3.5855 C   0  0  0  0  0  0  0  0  0  0  0  0
   37.9917   17.0804   -4.5249 C   0  0  0  0  0  0  0  0  0  0  0  0
   36.6995   17.2986   -4.9238 C   0  0  0  0  0  0  0  0  0  0  0  0
   35.7159   18.2090   -4.5313 C   0  0  0  0  0  0  0  0  0  0  0  0
   35.7632   19.2779   -3.5075 C   0  0  0  0  0  0  0  0  0  0  0  0
   34.4876   19.9145   -3.5076 N   0  0  0  0  0  0  0  0  0  0  0  0
   33.6688   19.2728   -4.4908 C   0  0  0  0  0  0  0  0  0  0  0  0
   32.5087   19.6386   -4.6896 O   0  0  0  0  0  0  0  0  0  0  0  0
   34.4490   18.2194   -5.1129 C   0  0  0  0  0  0  0  0  0  0  0  0
   34.2083   17.2883   -6.0978 C   0  0  0  0  0  0  0  0  0  0  0  0
   33.1233   16.9907   -6.9022 C   0  0  0  0  0  0  0  0  0  0  0  0
   31.8677   17.5216   -6.9992 C   0  0  0  0  0  0  0  0  0  0  0  0
   30.9840   16.9982   -7.9227 C   0  0  0  0  0  0  0  0  0  0  0  0
   31.3527   15.9582   -8.7371 C   0  0  0  0  0  0  0  0  0  0  0  0
   32.6148   15.4130   -8.6505 C   0  0  0  0  0  0  0  0  0  0  0  0
   33.4821   15.9379   -7.7335 C   0  0  0  0  0  0  0  0  0  0  0  0
   34.7245   15.5993   -7.4592 N   0  0  0  0  0  0  0  0  0  0  0  0
   35.2051   16.3760   -6.4857 C   0  0  0  0  0  0  0  0  0  0  0  0
   36.4567   16.3804   -5.8941 C   0  0  0  0  0  0  0  0  0  0  0  0
   34.2218   20.7130   -2.8845 H   0  0  0  0  0  0  0  0  0  0  0  0
   36.7829   17.3633  -10.6237 C   0  0  0  0  0  0  0  0  0  0  0  0
   37.6120   16.8133   -9.5671 N   0  0  0  0  0  0  0  0  0  0  0  0
   37.3158   17.2979   -8.6930 H   0  0  0  0  0  0  0  0  0  0  0  0
   39.3523   15.5989   -8.3196 O   0  0  0  0  0  0  0  0  0  0  0  0
   40.5370   14.9368   -8.6171 C   0  0  0  0  0  0  0  0  0  0  0  0
 33 34  1  0  0  0
 34  1  1  0  0  0
  1  2  1  0  0  0
  2  3  1  0  0  0
  3  4  1  0  0  0
  4  5  1  0  0  0
  5  6  1  0  0  0
  5  7  1  0  0  0
  7 36  1  0  0  0
 36 37  1  0  0  0
  5  8  1  0  0  0
  8  9  1  0  0  0
  9 10  2  0  0  0
 10 11  1  0  0  0
 11 12  2  0  0  0
 12 13  1  0  0  0
 13 14  2  0  0  0
 14 15  1  0  0  0
 15 16  2  0  0  0
 16 17  1  0  0  0
 17 18  1  0  0  0
 18 19  1  0  0  0
 19 20  2  0  0  0
 19 21  1  0  0  0
 21 22  2  0  0  0
 22 23  1  0  0  0
 23 24  2  0  0  0
 24 25  1  0  0  0
 25 26  2  0  0  0
 26 27  1  0  0  0
 27 28  2  0  0  0
 28 29  1  0  0  0
 29 30  1  0  0  0
 30 31  2  0  0  0
  7  1  1  0  0  0
 31  8  1  0  0  0
 29  3  1  0  0  0
 14  9  1  0  0  0
 31 15  1  0  0  0
 21 16  1  0  0  0
 30 22  1  0  0  0
 28 23  1  0  0  0
 34 35  1  0  0  0
 18 32  1  0  0  0
M  END
> <minimizedAffinity>
-6.06829

> <CNNscore>
0.1305533350

> <CNNaffinity>
5.4454736710

> <CNN_VS>
0.7109247446

> <CNNaffinity_variance>
0.1668576896

$$$$
[H]c1c([H])c([H])c2c(c1[H])c1c3c(c4c5c([H])c([H])c([H])c([H])c5n5c4c1n2[C@@]1(C([H])([H])[H])O[C@]5([H])C([H])([H])[C@@]([H])(N([H])C([H])([H])[H])[C@@]1([H])OC([H])([H])[H])C(=O)N([H])C3([H])[H]


 37 44  0  0  0  0  0  0  0  0999 V2000
   37.8317   17.2838   -9.8047 C   0  0  0  0  0  0  0  0  0  0  0  0
   36.7256   16.7781  -10.6197 C   0  0  0  0  0  0  0  0  0  0  0  0
   36.4018   15.3622  -10.3495 C   0  0  0  0  0  0  0  0  0  0  0  0
   37.2138   14.5788   -9.6925 O   0  0  0  0  0  0  0  0  0  0  0  0
   38.0123   15.0241   -8.6425 C   0  0  0  0  0  0  0  0  0  0  0  0
   39.0661   13.9097   -8.5949 C   0  0  0  0  0  0  0  0  0  0  0  0
   38.6273   16.2974   -8.9970 C   0  0  0  0  0  0  0  0  0  0  0  0
   37.1867   15.0347   -7.4220 N   0  0  0  0  0  0  0  0  0  0  0  0
   37.5944   14.9154   -6.1599 C   0  0  0  0  0  0  0  0  0  0  0  0
   38.8315   14.7918   -5.5912 C   0  0  0  0  0  0  0  0  0  0  0  0
   38.9940   14.6861   -4.2280 C   0  0  0  0  0  0  0  0  0  0  0  0
   37.8941   14.7011   -3.3646 C   0  0  0  0  0  0  0  0  0  0  0  0
   36.6621   14.8243   -3.9254 C   0  0  0  0  0  0  0  0  0  0  0  0
   36.5131   14.9288   -5.2829 C   0  0  0  0  0  0  0  0  0  0  0  0
   35.3944   15.0657   -6.0615 C   0  0  0  0  0  0  0  0  0  0  0  0
   34.0298   15.1413   -5.7740 C   0  0  0  0  0  0  0  0  0  0  0  0
   33.3283   15.0934   -4.4708 C   0  0  0  0  0  0  0  0  0  0  0  0
   31.9336   15.2126   -4.7414 N   0  0  0  0  0  0  0  0  0  0  0  0
   31.7625   15.3299   -6.1576 C   0  0  0  0  0  0  0  0  0  0  0  0
   30.6409   15.4461   -6.6554 O   0  0  0  0  0  0  0  0  0  0  0  0
   33.0732   15.2835   -6.7780 C   0  0  0  0  0  0  0  0  0  0  0  0
   33.5350   15.3476   -8.0733 C   0  0  0  0  0  0  0  0  0  0  0  0
   32.9306   15.4955   -9.3086 C   0  0  0  0  0  0  0  0  0  0  0  0
   31.6253   15.6219   -9.6930 C   0  0  0  0  0  0  0  0  0  0  0  0
   31.3278   15.7571  -11.0349 C   0  0  0  0  0  0  0  0  0  0  0  0
   32.3235   15.7657  -11.9781 C   0  0  0  0  0  0  0  0  0  0  0  0
   33.6436   15.6392  -11.6053 C   0  0  0  0  0  0  0  0  0  0  0  0
   33.9278   15.5059  -10.2749 C   0  0  0  0  0  0  0  0  0  0  0  0
   35.0900   15.3710   -9.6713 N   0  0  0  0  0  0  0  0  0  0  0  0
   34.9106   15.2705   -8.3524 C   0  0  0  0  0  0  0  0  0  0  0  0
   35.8449   15.1270   -7.3409 C   0  0  0  0  0  0  0  0  0  0  0  0
   31.1840   15.2114   -4.0102 H   0  0  0  0  0  0  0  0  0  0  0  0
   37.8510   19.6331   -9.3146 C   0  0  0  0  0  0  0  0  0  0  0  0
   37.2883   18.3507   -8.9338 N   0  0  0  0  0  0  0  0  0  0  0  0
   36.2576   18.4451   -9.0587 H   0  0  0  0  0  0  0  0  0  0  0  0
   39.1313   17.0548   -7.9421 O   0  0  0  0  0  0  0  0  0  0  0  0
   40.4899   16.8584   -7.7276 C   0  0  0  0  0  0  0  0  0  0  0  0
 33 34  1  0  0  0
 34  1  1  0  0  0
  1  2  1  0  0  0
  2  3  1  0  0  0
  3  4  1  0  0  0
  4  5  1  0  0  0
  5  6  1  0  0  0
  5  7  1  0  0  0
  7 36  1  0  0  0
 36 37  1  0  0  0
  5  8  1  0  0  0
  8  9  1  0  0  0
  9 10  2  0  0  0
 10 11  1  0  0  0
 11 12  2  0  0  0
 12 13  1  0  0  0
 13 14  2  0  0  0
 14 15  1  0  0  0
 15 16  2  0  0  0
 16 17  1  0  0  0
 17 18  1  0  0  0
 18 19  1  0  0  0
 19 20  2  0  0  0
 19 21  1  0  0  0
 21 22  2  0  0  0
 22 23  1  0  0  0
 23 24  2  0  0  0
 24 25  1  0  0  0
 25 26  2  0  0  0
 26 27  1  0  0  0
 27 28  2  0  0  0
 28 29  1  0  0  0
 29 30  1  0  0  0
 30 31  2  0  0  0
  7  1  1  0  0  0
 31  8  1  0  0  0
 29  3  1  0  0  0
 14  9  1  0  0  0
 31 15  1  0  0  0
 21 16  1  0  0  0
 30 22  1  0  0  0
 28 23  1  0  0  0
 34 35  1  0  0  0
 18 32  1  0  0  0
M  END
> <minimizedAffinity>
-5.38107

> <CNNscore>
0.1270100325

> <CNNaffinity>
5.5534143448

> <CNN_VS>
0.7053393126

> <CNNaffinity_variance>
0.1316618770

$$$$
[H]c1c([H])c([H])c2c(c1[H])c1c3c(c4c5c([H])c([H])c([H])c([H])c5n5c4c1n2[C@@]1(C([H])([H])[H])O[C@]5([H])C([H])([H])[C@@]([H])(N([H])C([H])([H])[H])[C@@]1([H])OC([H])([H])[H])C(=O)N([H])C3([H])[H]


 37 44  0  0  0  0  0  0  0  0999 V2000
   36.7870   15.0641  -13.2459 C   0  0  0  0  0  0  0  0  0  0  0  0
   38.2101   14.7669  -13.0733 C   0  0  0  0  0  0  0  0  0  0  0  0
   38.4965   13.3209  -12.9763 C   0  0  0  0  0  0  0  0  0  0  0  0
   37.5571   12.4416  -12.7545 O   0  0  0  0  0  0  0  0  0  0  0  0
   36.2647   12.5707  -13.2559 C   0  0  0  0  0  0  0  0  0  0  0  0
   35.5025   11.6181  -12.3252 C   0  0  0  0  0  0  0  0  0  0  0  0
   35.8019   13.9416  -13.0781 C   0  0  0  0  0  0  0  0  0  0  0  0
   36.2687   12.0760  -14.6439 N   0  0  0  0  0  0  0  0  0  0  0  0
   35.2485   11.5666  -15.3317 C   0  0  0  0  0  0  0  0  0  0  0  0
   33.9287   11.3751  -15.0306 C   0  0  0  0  0  0  0  0  0  0  0  0
   33.0532   10.8191  -15.9362 C   0  0  0  0  0  0  0  0  0  0  0  0
   33.4803   10.4256  -17.2083 C   0  0  0  0  0  0  0  0  0  0  0  0
   34.7916   10.6144  -17.5124 C   0  0  0  0  0  0  0  0  0  0  0  0
   35.6531   11.1686  -16.6031 C   0  0  0  0  0  0  0  0  0  0  0  0
   36.9898   11.4569  -16.6838 C   0  0  0  0  0  0  0  0  0  0  0  0
   37.9467   11.2938  -17.6880 C   0  0  0  0  0  0  0  0  0  0  0  0
   37.8096   10.7280  -19.0496 C   0  0  0  0  0  0  0  0  0  0  0  0
   39.0948   10.7964  -19.6627 N   0  0  0  0  0  0  0  0  0  0  0  0
   40.0056   11.3807  -18.7257 C   0  0  0  0  0  0  0  0  0  0  0  0
   41.1917   11.5519  -19.0136 O   0  0  0  0  0  0  0  0  0  0  0  0
   39.2738   11.6812  -17.5094 C   0  0  0  0  0  0  0  0  0  0  0  0
   39.6022   12.2360  -16.2931 C   0  0  0  0  0  0  0  0  0  0  0  0
   40.7663   12.7436  -15.7450 C   0  0  0  0  0  0  0  0  0  0  0  0
   42.0400   12.8669  -16.2247 C   0  0  0  0  0  0  0  0  0  0  0  0
   43.0116   13.4298  -15.4204 C   0  0  0  0  0  0  0  0  0  0  0  0
   42.7116   13.8628  -14.1542 C   0  0  0  0  0  0  0  0  0  0  0  0
   41.4322   13.7448  -13.6574 C   0  0  0  0  0  0  0  0  0  0  0  0
   40.4776   13.1864  -14.4610 C   0  0  0  0  0  0  0  0  0  0  0  0
   39.2016   12.9650  -14.2242 N   0  0  0  0  0  0  0  0  0  0  0  0
   38.6318   12.3958  -15.2887 C   0  0  0  0  0  0  0  0  0  0  0  0
   37.3190   12.0024  -15.4849 C   0  0  0  0  0  0  0  0  0  0  0  0
   39.3084   10.4681  -20.6338 H   0  0  0  0  0  0  0  0  0  0  0  0
   37.8662   15.6094  -15.3190 C   0  0  0  0  0  0  0  0  0  0  0  0
   36.6258   15.7036  -14.5715 N   0  0  0  0  0  0  0  0  0  0  0  0
   35.9119   15.2028  -15.1426 H   0  0  0  0  0  0  0  0  0  0  0  0
   34.7124   14.3312  -13.8538 O   0  0  0  0  0  0  0  0  0  0  0  0
   33.5327   14.4353  -13.1272 C   0  0  0  0  0  0  0  0  0  0  0  0
 33 34  1  0  0  0
 34  1  1  0  0  0
  1  2  1  0  0  0
  2  3  1  0  0  0
  3  4  1  0  0  0
  4  5  1  0  0  0
  5  6  1  0  0  0
  5  7  1  0  0  0
  7 36  1  0  0  0
 36 37  1  0  0  0
  5  8  1  0  0  0
  8  9  1  0  0  0
  9 10  2  0  0  0
 10 11  1  0  0  0
 11 12  2  0  0  0
 12 13  1  0  0  0
 13 14  2  0  0  0
 14 15  1  0  0  0
 15 16  2  0  0  0
 16 17  1  0  0  0
 17 18  1  0  0  0
 18 19  1  0  0  0
 19 20  2  0  0  0
 19 21  1  0  0  0
 21 22  2  0  0  0
 22 23  1  0  0  0
 23 24  2  0  0  0
 24 25  1  0  0  0
 25 26  2  0  0  0
 26 27  1  0  0  0
 27 28  2  0  0  0
 28 29  1  0  0  0
 29 30  1  0  0  0
 30 31  2  0  0  0
  7  1  1  0  0  0
 31  8  1  0  0  0
 29  3  1  0  0  0
 14  9  1  0  0  0
 31 15  1  0  0  0
 21 16  1  0  0  0
 30 22  1  0  0  0
 28 23  1  0  0  0
 34 35  1  0  0  0
 18 32  1  0  0  0
M  END
> <minimizedAffinity>
-7.00294

> <CNNscore>
0.7400333285

> <CNNaffinity>
7.6930375099

> <CNN_VS>
5.6931042671

> <CNNaffinity_variance>
0.1844412386

$$$$
[H]c1c([H])c([H])c2c(c1[H])c1c3c(c4c5c([H])c([H])c([H])c([H])c5n5c4c1n2[C@@]1(C([H])([H])[H])O[C@]5([H])C([H])([H])[C@@]([H])(N([H])C([H])([H])[H])[C@@]1([H])OC([H])([H])[H])C(=O)N([H])C3([H])[H]


 37 44  0  0  0  0  0  0  0  0999 V2000
   36.0231   20.3044   -6.5330 C   0  0  0  0  0  0  0  0  0  0  0  0
   37.3674   20.1639   -5.9706 C   0  0  0  0  0  0  0  0  0  0  0  0
   37.4025   19.3473   -4.7400 C   0  0  0  0  0  0  0  0  0  0  0  0
   36.3203   19.0566   -4.0700 O   0  0  0  0  0  0  0  0  0  0  0  0
   35.0904   18.8254   -4.6803 C   0  0  0  0  0  0  0  0  0  0  0  0
   34.1402   19.0409   -3.4949 C   0  0  0  0  0  0  0  0  0  0  0  0
   34.8572   19.8269   -5.7137 C   0  0  0  0  0  0  0  0  0  0  0  0
   35.0703   17.4245   -5.1365 N   0  0  0  0  0  0  0  0  0  0  0  0
   34.0092   16.6408   -5.3194 C   0  0  0  0  0  0  0  0  0  0  0  0
   32.6644   16.8549   -5.1974 C   0  0  0  0  0  0  0  0  0  0  0  0
   31.7473   15.8603   -5.4531 C   0  0  0  0  0  0  0  0  0  0  0  0
   32.1560   14.5834   -5.8506 C   0  0  0  0  0  0  0  0  0  0  0  0
   33.4920   14.3660   -5.9737 C   0  0  0  0  0  0  0  0  0  0  0  0
   34.3949   15.3633   -5.7166 C   0  0  0  0  0  0  0  0  0  0  0  0
   35.7633   15.3816   -5.7775 C   0  0  0  0  0  0  0  0  0  0  0  0
   36.7210   14.4202   -6.1078 C   0  0  0  0  0  0  0  0  0  0  0  0
   36.5489   13.0069   -6.5150 C   0  0  0  0  0  0  0  0  0  0  0  0
   37.8523   12.4732   -6.7360 N   0  0  0  0  0  0  0  0  0  0  0  0
   38.8075   13.5075   -6.4778 C   0  0  0  0  0  0  0  0  0  0  0  0
   40.0168   13.3009   -6.5971 O   0  0  0  0  0  0  0  0  0  0  0  0
   38.0856   14.7048   -6.0901 C   0  0  0  0  0  0  0  0  0  0  0  0
   38.4504   15.9829   -5.7319 C   0  0  0  0  0  0  0  0  0  0  0  0
   39.6588   16.6447   -5.6096 C   0  0  0  0  0  0  0  0  0  0  0  0
   40.9544   16.2509   -5.7941 C   0  0  0  0  0  0  0  0  0  0  0  0
   41.9716   17.1627   -5.5900 C   0  0  0  0  0  0  0  0  0  0  0  0
   41.6950   18.4500   -5.2065 C   0  0  0  0  0  0  0  0  0  0  0  0
   40.3940   18.8610   -5.0167 C   0  0  0  0  0  0  0  0  0  0  0  0
   39.3943   17.9514   -5.2212 C   0  0  0  0  0  0  0  0  0  0  0  0
   38.0903   18.0932   -5.1080 N   0  0  0  0  0  0  0  0  0  0  0  0
   37.4788   16.9435   -5.4011 C   0  0  0  0  0  0  0  0  0  0  0  0
   36.1281   16.6403   -5.4226 C   0  0  0  0  0  0  0  0  0  0  0  0
   38.0487   11.4893   -7.0356 H   0  0  0  0  0  0  0  0  0  0  0  0
   37.3675   19.6760   -8.4191 C   0  0  0  0  0  0  0  0  0  0  0  0
   36.0281   19.6498   -7.8610 N   0  0  0  0  0  0  0  0  0  0  0  0
   35.7740   18.6420   -7.7808 H   0  0  0  0  0  0  0  0  0  0  0  0
   33.8826   19.5216   -6.6609 O   0  0  0  0  0  0  0  0  0  0  0  0
   32.7593   20.3345   -6.5718 C   0  0  0  0  0  0  0  0  0  0  0  0
 33 34  1  0  0  0
 34  1  1  0  0  0
  1  2  1  0  0  0
  2  3  1  0  0  0
  3  4  1  0  0  0
  4  5  1  0  0  0
  5  6  1  0  0  0
  5  7  1  0  0  0
  7 36  1  0  0  0
 36 37  1  0  0  0
  5  8  1  0  0  0
  8  9  1  0  0  0
  9 10  2  0  0  0
 10 11  1  0  0  0
 11 12  2  0  0  0
 12 13  1  0  0  0
 13 14  2  0  0  0
 14 15  1  0  0  0
 15 16  2  0  0  0
 16 17  1  0  0  0
 17 18  1  0  0  0
 18 19  1  0  0  0
 19 20  2  0  0  0
 19 21  1  0  0  0
 21 22  2  0  0  0
 22 23  1  0  0  0
 23 24  2  0  0  0
 24 25  1  0  0  0
 25 26  2  0  0  0
 26 27  1  0  0  0
 27 28  2  0  0  0
 28 29  1  0  0  0
 29 30  1  0  0  0
 30 31  2  0  0  0
  7  1  1  0  0  0
 31  8  1  0  0  0
 29  3  1  0  0  0
 14  9  1  0  0  0
 31 15  1  0  0  0
 21 16  1  0  0  0
 30 22  1  0  0  0
 28 23  1  0  0  0
 34 35  1  0  0  0
 18 32  1  0  0  0
M  END
> <minimizedAffinity>
-5.25037

> <CNNscore>
0.2917253673

> <CNNaffinity>
5.4645805359

> <CNN_VS>
1.5941567421

> <CNNaffinity_variance>
0.0890124887

$$$$
[H]c1c([H])c([H])c2c(c1[H])c1c3c(c4c5c([H])c([H])c([H])c([H])c5n5c4c1n2[C@@]1(C([H])([H])[H])O[C@]5([H])C([H])([H])[C@@]([H])(N([H])C([H])([H])[H])[C@@]1([H])OC([H])([H])[H])C(=O)N([H])C3([H])[H]


 37 44  0  0  0  0  0  0  0  0999 V2000
   41.6430   15.0751   -8.8702 C   0  0  0  0  0  0  0  0  0  0  0  0
   42.3812   14.1790   -7.9784 C   0  0  0  0  0  0  0  0  0  0  0  0
   43.5838   13.5929   -8.6052 C   0  0  0  0  0  0  0  0  0  0  0  0
   43.7794   13.6274   -9.8956 O   0  0  0  0  0  0  0  0  0  0  0  0
   43.3805   14.6959  -10.6942 C   0  0  0  0  0  0  0  0  0  0  0  0
   43.3744   14.0303  -12.0768 C   0  0  0  0  0  0  0  0  0  0  0  0
   42.0352   15.1149  -10.3204 C   0  0  0  0  0  0  0  0  0  0  0  0
   44.4189   15.7375  -10.6045 N   0  0  0  0  0  0  0  0  0  0  0  0
   44.7183   16.6711  -11.5056 C   0  0  0  0  0  0  0  0  0  0  0  0
   44.1826   16.9945  -12.7211 C   0  0  0  0  0  0  0  0  0  0  0  0
   44.6801   18.0313  -13.4785 C   0  0  0  0  0  0  0  0  0  0  0  0
   45.7596   18.8003  -13.0327 C   0  0  0  0  0  0  0  0  0  0  0  0
   46.2953   18.4828  -11.8245 C   0  0  0  0  0  0  0  0  0  0  0  0
   45.7917   17.4492  -11.0801 C   0  0  0  0  0  0  0  0  0  0  0  0
   46.1555   16.9567   -9.8547 C   0  0  0  0  0  0  0  0  0  0  0  0
   47.1479   17.3075   -8.9368 C   0  0  0  0  0  0  0  0  0  0  0  0
   48.1713   18.3757   -9.0043 C   0  0  0  0  0  0  0  0  0  0  0  0
   48.9351   18.3002   -7.8029 N   0  0  0  0  0  0  0  0  0  0  0  0
   48.4152   17.2276   -7.0104 C   0  0  0  0  0  0  0  0  0  0  0  0
   48.9055   16.9512   -5.9138 O   0  0  0  0  0  0  0  0  0  0  0  0
   47.3089   16.6263   -7.7312 C   0  0  0  0  0  0  0  0  0  0  0  0
   46.4411   15.5870   -7.4827 C   0  0  0  0  0  0  0  0  0  0  0  0
   46.2678   14.7024   -6.4336 C   0  0  0  0  0  0  0  0  0  0  0  0
   46.9214   14.5339   -5.2453 C   0  0  0  0  0  0  0  0  0  0  0  0
   46.5056   13.5388   -4.3825 C   0  0  0  0  0  0  0  0  0  0  0  0
   45.4505   12.7244   -4.7053 C   0  0  0  0  0  0  0  0  0  0  0  0
   44.7823   12.8826   -5.8995 C   0  0  0  0  0  0  0  0  0  0  0  0
   45.2013   13.8701   -6.7467 C   0  0  0  0  0  0  0  0  0  0  0  0
   44.7371   14.2194   -7.9282 N   0  0  0  0  0  0  0  0  0  0  0  0
   45.4455   15.2415   -8.4131 C   0  0  0  0  0  0  0  0  0  0  0  0
   45.3034   15.9293   -9.6062 C   0  0  0  0  0  0  0  0  0  0  0  0
   49.7346   18.9336   -7.5661 H   0  0  0  0  0  0  0  0  0  0  0  0
   41.9333   16.3384   -6.8503 C   0  0  0  0  0  0  0  0  0  0  0  0
   41.6978   16.4316   -8.2793 N   0  0  0  0  0  0  0  0  0  0  0  0
   42.5007   16.9737   -8.6642 H   0  0  0  0  0  0  0  0  0  0  0  0
   41.6448   16.3846  -10.7400 O   0  0  0  0  0  0  0  0  0  0  0  0
   40.6116   16.3603  -11.6686 C   0  0  0  0  0  0  0  0  0  0  0  0
 33 34  1  0  0  0
 34  1  1  0  0  0
  1  2  1  0  0  0
  2  3  1  0  0  0
  3  4  1  0  0  0
  4  5  1  0  0  0
  5  6  1  0  0  0
  5  7  1  0  0  0
  7 36  1  0  0  0
 36 37  1  0  0  0
  5  8  1  0  0  0
  8  9  1  0  0  0
  9 10  2  0  0  0
 10 11  1  0  0  0
 11 12  2  0  0  0
 12 13  1  0  0  0
 13 14  2  0  0  0
 14 15  1  0  0  0
 15 16  2  0  0  0
 16 17  1  0  0  0
 17 18  1  0  0  0
 18 19  1  0  0  0
 19 20  2  0  0  0
 19 21  1  0  0  0
 21 22  2  0  0  0
 22 23  1  0  0  0
 23 24  2  0  0  0
 24 25  1  0  0  0
 25 26  2  0  0  0
 26 27  1  0  0  0
 27 28  2  0  0  0
 28 29  1  0  0  0
 29 30  1  0  0  0
 30 31  2  0  0  0
  7  1  1  0  0  0
 31  8  1  0  0  0
 29  3  1  0  0  0
 14  9  1  0  0  0
 31 15  1  0  0  0
 21 16  1  0  0  0
 30 22  1  0  0  0
 28 23  1  0  0  0
 34 35  1  0  0  0
 18 32  1  0  0  0
M  END
> <minimizedAffinity>
-4.75037

> <CNNscore>
0.2795498371

> <CNNaffinity>
5.3606123924

> <CNN_VS>
1.4985582829

> <CNNaffinity_variance>
0.0923332125

$$$$
[H]c1c([H])c([H])c2c(c1[H])c1c3c(c4c5c([H])c([H])c([H])c([H])c5n5c4c1n2[C@@]1(C([H])([H])[H])O[C@]5([H])C([H])([H])[C@@]([H])(N([H])C([H])([H])[H])[C@@]1([H])OC([H])([H])[H])C(=O)N([H])C3([H])[H]


 37 44  0  0  0  0  0  0  0  0999 V2000
   35.5878   12.5336  -12.7236 C   0  0  0  0  0  0  0  0  0  0  0  0
   35.5983   12.2752  -14.1646 C   0  0  0  0  0  0  0  0  0  0  0  0
   36.0594   13.4308  -14.9611 C   0  0  0  0  0  0  0  0  0  0  0  0
   36.1422   14.6320  -14.4561 O   0  0  0  0  0  0  0  0  0  0  0  0
   36.5048   14.8747  -13.1339 C   0  0  0  0  0  0  0  0  0  0  0  0
   35.9652   16.2991  -12.9485 C   0  0  0  0  0  0  0  0  0  0  0  0
   35.8095   13.9437  -12.2535 C   0  0  0  0  0  0  0  0  0  0  0  0
   37.9760   14.8439  -13.0575 N   0  0  0  0  0  0  0  0  0  0  0  0
   38.7608   15.4637  -12.1781 C   0  0  0  0  0  0  0  0  0  0  0  0
   38.4977   16.2539  -11.0939 C   0  0  0  0  0  0  0  0  0  0  0  0
   39.5078   16.7847  -10.3233 C   0  0  0  0  0  0  0  0  0  0  0  0
   40.8515   16.5358  -10.6196 C   0  0  0  0  0  0  0  0  0  0  0  0
   41.1180   15.7503  -11.6964 C   0  0  0  0  0  0  0  0  0  0  0  0
   40.1046   15.2279  -12.4555 C   0  0  0  0  0  0  0  0  0  0  0  0
   40.1279   14.4199  -13.5615 C   0  0  0  0  0  0  0  0  0  0  0  0
   41.1597   13.8491  -14.3100 C   0  0  0  0  0  0  0  0  0  0  0  0
   42.6270   13.9442  -14.1347 C   0  0  0  0  0  0  0  0  0  0  0  0
   43.2237   13.1714  -15.1736 N   0  0  0  0  0  0  0  0  0  0  0  0
   42.1754   12.6125  -15.9720 C   0  0  0  0  0  0  0  0  0  0  0  0
   42.4281   11.8974  -16.9437 O   0  0  0  0  0  0  0  0  0  0  0  0
   40.9053   13.0447  -15.4198 C   0  0  0  0  0  0  0  0  0  0  0  0
   39.5847   12.8352  -15.7473 C   0  0  0  0  0  0  0  0  0  0  0  0
   38.9362   12.1137  -16.7332 C   0  0  0  0  0  0  0  0  0  0  0  0
   39.3882   11.3421  -17.7666 C   0  0  0  0  0  0  0  0  0  0  0  0
   38.4735   10.7339  -18.6039 C   0  0  0  0  0  0  0  0  0  0  0  0
   37.1258   10.8963  -18.4089 C   0  0  0  0  0  0  0  0  0  0  0  0
   36.6557   11.6712  -17.3715 C   0  0  0  0  0  0  0  0  0  0  0  0
   37.5688   12.2690  -16.5483 C   0  0  0  0  0  0  0  0  0  0  0  0
   37.3784   13.0463  -15.5029 N   0  0  0  0  0  0  0  0  0  0  0  0
   38.5534   13.4143  -14.9876 C   0  0  0  0  0  0  0  0  0  0  0  0
   38.8270   14.2123  -13.8898 C   0  0  0  0  0  0  0  0  0  0  0  0
   44.2552   13.0503  -15.3067 H   0  0  0  0  0  0  0  0  0  0  0  0
   37.4431   11.0644  -13.1223 C   0  0  0  0  0  0  0  0  0  0  0  0
   36.5715   11.6178  -12.1024 N   0  0  0  0  0  0  0  0  0  0  0  0
   37.1957   12.1318  -11.4444 H   0  0  0  0  0  0  0  0  0  0  0  0
   36.3377   13.7928  -10.9734 O   0  0  0  0  0  0  0  0  0  0  0  0
   35.7418   14.6251  -10.0340 C   0  0  0  0  0  0  0  0  0  0  0  0
 33 34  1  0  0  0
 34  1  1  0  0  0
  1  2  1  0  0  0
  2  3  1  0  0  0
  3  4  1  0  0  0
  4  5  1  0  0  0
  5  6  1  0  0  0
  5  7  1  0  0  0
  7 36  1  0  0  0
 36 37  1  0  0  0
  5  8  1  0  0  0
  8  9  1  0  0  0
  9 10  2  0  0  0
 10 11  1  0  0  0
 11 12  2  0  0  0
 12 13  1  0  0  0
 13 14  2  0  0  0
 14 15  1  0  0  0
 15 16  2  0  0  0
 16 17  1  0  0  0
 17 18  1  0  0  0
 18 19  1  0  0  0
 19 20  2  0  0  0
 19 21  1  0  0  0
 21 22  2  0  0  0
 22 23  1  0  0  0
 23 24  2  0  0  0
 24 25  1  0  0  0
 25 26  2  0  0  0
 26 27  1  0  0  0
 27 28  2  0  0  0
 28 29  1  0  0  0
 29 30  1  0  0  0
 30 31  2  0  0  0
  7  1  1  0  0  0
 31  8  1  0  0  0
 29  3  1  0  0  0
 14  9  1  0  0  0
 31 15  1  0  0  0
 21 16  1  0  0  0
 30 22  1  0  0  0
 28 23  1  0  0  0
 34 35  1  0  0  0
 18 32  1  0  0  0
M  END
> <minimizedAffinity>
-7.81701

> <CNNscore>
0.2322955579

> <CNNaffinity>
6.3245744705

> <CNN_VS>
1.4691705704

> <CNNaffinity_variance>
0.1288398057

$$$$
[H]c1c([H])c([H])c2c(c1[H])c1c3c(c4c5c([H])c([H])c([H])c([H])c5n5c4c1n2[C@@]1(C([H])([H])[H])O[C@]5([H])C([H])([H])[C@@]([H])(N([H])C([H])([H])[H])[C@@]1([H])OC([H])([H])[H])C(=O)N([H])C3([H])[H]


 37 44  0  0  0  0  0  0  0  0999 V2000
   42.1695   15.7675   -8.3202 C   0  0  0  0  0  0  0  0  0  0  0  0
   43.3819   16.5604   -8.5316 C   0  0  0  0  0  0  0  0  0  0  0  0
   44.3905   16.3790   -7.4675 C   0  0  0  0  0  0  0  0  0  0  0  0
   44.0980   15.8232   -6.3228 O   0  0  0  0  0  0  0  0  0  0  0  0
   43.1787   14.7850   -6.1974 C   0  0  0  0  0  0  0  0  0  0  0  0
   42.8537   14.8728   -4.7004 C   0  0  0  0  0  0  0  0  0  0  0  0
   41.9952   15.0757   -6.9975 C   0  0  0  0  0  0  0  0  0  0  0  0
   43.8732   13.5269   -6.5231 N   0  0  0  0  0  0  0  0  0  0  0  0
   43.5795   12.2992   -6.0991 C   0  0  0  0  0  0  0  0  0  0  0  0
   42.5821   11.8044   -5.3057 C   0  0  0  0  0  0  0  0  0  0  0  0
   42.4907   10.4626   -5.0104 C   0  0  0  0  0  0  0  0  0  0  0  0
   43.4194    9.5459   -5.5130 C   0  0  0  0  0  0  0  0  0  0  0  0
   44.4126   10.0331   -6.3027 C   0  0  0  0  0  0  0  0  0  0  0  0
   44.4931   11.3701   -6.5895 C   0  0  0  0  0  0  0  0  0  0  0  0
   45.3835   12.0789   -7.3519 C   0  0  0  0  0  0  0  0  0  0  0  0
   46.5103   11.7180   -8.0938 C   0  0  0  0  0  0  0  0  0  0  0  0
   47.1284   10.3880   -8.2984 C   0  0  0  0  0  0  0  0  0  0  0  0
   48.2614   10.5783   -9.1427 N   0  0  0  0  0  0  0  0  0  0  0  0
   48.3544   11.9716   -9.4570 C   0  0  0  0  0  0  0  0  0  0  0  0
   49.2565   12.4022  -10.1782 O   0  0  0  0  0  0  0  0  0  0  0  0
   47.2604   12.6592   -8.7973 C   0  0  0  0  0  0  0  0  0  0  0  0
   46.8389   13.9679   -8.7294 C   0  0  0  0  0  0  0  0  0  0  0  0
   47.2858   15.1569   -9.2769 C   0  0  0  0  0  0  0  0  0  0  0  0
   48.3392   15.4645  -10.0914 C   0  0  0  0  0  0  0  0  0  0  0  0
   48.5307   16.7761  -10.4794 C   0  0  0  0  0  0  0  0  0  0  0  0
   47.6794   17.7652  -10.0577 C   0  0  0  0  0  0  0  0  0  0  0  0
   46.6135   17.4700   -9.2366 C   0  0  0  0  0  0  0  0  0  0  0  0
   46.4324   16.1690   -8.8580 C   0  0  0  0  0  0  0  0  0  0  0  0
   45.5047   15.6365   -8.0905 N   0  0  0  0  0  0  0  0  0  0  0  0
   45.7034   14.3211   -7.9798 C   0  0  0  0  0  0  0  0  0  0  0  0
   44.9730   13.3715   -7.2860 C   0  0  0  0  0  0  0  0  0  0  0  0
   48.8994    9.8122   -9.4628 H   0  0  0  0  0  0  0  0  0  0  0  0
   42.8822   15.2466  -10.5519 C   0  0  0  0  0  0  0  0  0  0  0  0
   42.0775   14.7942   -9.4321 N   0  0  0  0  0  0  0  0  0  0  0  0
   42.4735   13.8710   -9.1532 H   0  0  0  0  0  0  0  0  0  0  0  0
   41.1665   13.9948   -7.2895 O   0  0  0  0  0  0  0  0  0  0  0  0
   39.9133   14.0905   -6.6972 C   0  0  0  0  0  0  0  0  0  0  0  0
 33 34  1  0  0  0
 34  1  1  0  0  0
  1  2  1  0  0  0
  2  3  1  0  0  0
  3  4  1  0  0  0
  4  5  1  0  0  0
  5  6  1  0  0  0
  5  7  1  0  0  0
  7 36  1  0  0  0
 36 37  1  0  0  0
  5  8  1  0  0  0
  8  9  1  0  0  0
  9 10  2  0  0  0
 10 11  1  0  0  0
 11 12  2  0  0  0
 12 13  1  0  0  0
 13 14  2  0  0  0
 14 15  1  0  0  0
 15 16  2  0  0  0
 16 17  1  0  0  0
 17 18  1  0  0  0
 18 19  1  0  0  0
 19 20  2  0  0  0
 19 21  1  0  0  0
 21 22  2  0  0  0
 22 23  1  0  0  0
 23 24  2  0  0  0
 24 25  1  0  0  0
 25 26  2  0  0  0
 26 27  1  0  0  0
 27 28  2  0  0  0
 28 29  1  0  0  0
 29 30  1  0  0  0
 30 31  2  0  0  0
  7  1  1  0  0  0
 31  8  1  0  0  0
 29  3  1  0  0  0
 14  9  1  0  0  0
 31 15  1  0  0  0
 21 16  1  0  0  0
 30 22  1  0  0  0
 28 23  1  0  0  0
 34 35  1  0  0  0
 18 32  1  0  0  0
M  END
> <minimizedAffinity>
-5.01162

> <CNNscore>
0.1776753068

> <CNNaffinity>
5.1258711815

> <CNN_VS>
0.9107407331

> <CNNaffinity_variance>
0.2284524441

$$$$
[H]c1c([H])c([H])c2c(c1[H])c1c3c(c4c5c([H])c([H])c([H])c([H])c5n5c4c1n2[C@@]1(C([H])([H])[H])O[C@]5([H])C([H])([H])[C@@]([H])(N([H])C([H])([H])[H])[C@@]1([H])OC([H])([H])[H])C(=O)N([H])C3([H])[H]


 37 44  0  0  0  0  0  0  0  0999 V2000
   38.6116   15.9205   -9.9546 C   0  0  0  0  0  0  0  0  0  0  0  0
   37.1892   15.5945   -9.8365 C   0  0  0  0  0  0  0  0  0  0  0  0
   36.8629   14.8442   -8.6064 C   0  0  0  0  0  0  0  0  0  0  0  0
   37.7837   14.2723   -7.8786 O   0  0  0  0  0  0  0  0  0  0  0  0
   39.0554   14.8116   -7.7045 C   0  0  0  0  0  0  0  0  0  0  0  0
   39.8291   13.5703   -7.2405 C   0  0  0  0  0  0  0  0  0  0  0  0
   39.5680   15.2876   -8.9835 C   0  0  0  0  0  0  0  0  0  0  0  0
   38.9733   15.8232   -6.6362 N   0  0  0  0  0  0  0  0  0  0  0  0
   39.9450   16.2314   -5.8224 C   0  0  0  0  0  0  0  0  0  0  0  0
   41.2705   15.9110   -5.7246 C   0  0  0  0  0  0  0  0  0  0  0  0
   42.0866   16.4884   -4.7777 C   0  0  0  0  0  0  0  0  0  0  0  0
   41.5903   17.4315   -3.8723 C   0  0  0  0  0  0  0  0  0  0  0  0
   40.2731   17.7536   -3.9660 C   0  0  0  0  0  0  0  0  0  0  0  0
   39.4712   17.1726   -4.9123 C   0  0  0  0  0  0  0  0  0  0  0  0
   38.1417   17.3402   -5.1969 C   0  0  0  0  0  0  0  0  0  0  0  0
   37.1358   18.1354   -4.6435 C   0  0  0  0  0  0  0  0  0  0  0  0
   37.1935   19.0950   -3.5171 C   0  0  0  0  0  0  0  0  0  0  0  0
   35.8846   19.6383   -3.3625 N   0  0  0  0  0  0  0  0  0  0  0  0
   35.0358   19.0450   -4.3505 C   0  0  0  0  0  0  0  0  0  0  0  0
   33.8436   19.3479   -4.4299 O   0  0  0  0  0  0  0  0  0  0  0  0
   35.8307   18.1173   -5.1331 C   0  0  0  0  0  0  0  0  0  0  0  0
   35.5751   17.2771   -6.1932 C   0  0  0  0  0  0  0  0  0  0  0  0
   34.4533   16.9886   -6.9491 C   0  0  0  0  0  0  0  0  0  0  0  0
   33.1636   17.4383   -6.9033 C   0  0  0  0  0  0  0  0  0  0  0  0
   32.2474   16.9519   -7.8151 C   0  0  0  0  0  0  0  0  0  0  0  0
   32.6176   16.0284   -8.7591 C   0  0  0  0  0  0  0  0  0  0  0  0
   33.9139   15.5661   -8.8172 C   0  0  0  0  0  0  0  0  0  0  0  0
   34.8134   16.0535   -7.9105 C   0  0  0  0  0  0  0  0  0  0  0  0
   36.0913   15.7757   -7.7590 N   0  0  0  0  0  0  0  0  0  0  0  0
   36.5945   16.4804   -6.7431 C   0  0  0  0  0  0  0  0  0  0  0  0
   37.8842   16.5112   -6.2409 C   0  0  0  0  0  0  0  0  0  0  0  0
   35.6173   20.3487   -2.6411 H   0  0  0  0  0  0  0  0  0  0  0  0
   37.4175   18.0013  -10.0194 C   0  0  0  0  0  0  0  0  0  0  0  0
   38.7323   17.3956   -9.9167 N   0  0  0  0  0  0  0  0  0  0  0  0
   39.1208   17.7145   -9.0034 H   0  0  0  0  0  0  0  0  0  0  0  0
   40.6329   16.1839   -8.9271 O   0  0  0  0  0  0  0  0  0  0  0  0
   41.7906   15.6963   -9.5208 C   0  0  0  0  0  0  0  0  0  0  0  0
 33 34  1  0  0  0
 34  1  1  0  0  0
  1  2  1  0  0  0
  2  3  1  0  0  0
  3  4  1  0  0  0
  4  5  1  0  0  0
  5  6  1  0  0  0
  5  7  1  0  0  0
  7 36  1  0  0  0
 36 37  1  0  0  0
  5  8  1  0  0  0
  8  9  1  0  0  0
  9 10  2  0  0  0
 10 11  1  0  0  0
 11 12  2  0  0  0
 12 13  1  0  0  0
 13 14  2  0  0  0
 14 15  1  0  0  0
 15 16  2  0  0  0
 16 17  1  0  0  0
 17 18  1  0  0  0
 18 19  1  0  0  0
 19 20  2  0  0  0
 19 21  1  0  0  0
 21 22  2  0  0  0
 22 23  1  0  0  0
 23 24  2  0  0  0
 24 25  1  0  0  0
 25 26  2  0  0  0
 26 27  1  0  0  0
 27 28  2  0  0  0
 28 29  1  0  0  0
 29 30  1  0  0  0
 30 31  2  0  0  0
  7  1  1  0  0  0
 31  8  1  0  0  0
 29  3  1  0  0  0
 14  9  1  0  0  0
 31 15  1  0  0  0
 21 16  1  0  0  0
 30 22  1  0  0  0
 28 23  1  0  0  0
 34 35  1  0  0  0
 18 32  1  0  0  0
M  END
> <minimizedAffinity>
-5.85309

> <CNNscore>
0.1499677747

> <CNNaffinity>
5.3980431557

> <CNN_VS>
0.8095325232

> <CNNaffinity_variance>
0.2332634628

$$$$
[H]c1c([H])c([H])c2c(c1[H])c1c3c(c4c5c([H])c([H])c([H])c([H])c5n5c4c1n2[C@@]1(C([H])([H])[H])O[C@]5([H])C([H])([H])[C@@]([H])(N([H])C([H])([H])[H])[C@@]1([H])OC([H])([H])[H])C(=O)N([H])C3([H])[H]


 37 44  0  0  0  0  0  0  0  0999 V2000
   45.1877   15.7222   -6.3298 C   0  0  0  0  0  0  0  0  0  0  0  0
   45.6469   15.3130   -7.6583 C   0  0  0  0  0  0  0  0  0  0  0  0
   44.9077   14.1540   -8.1996 C   0  0  0  0  0  0  0  0  0  0  0  0
   44.1554   13.3984   -7.4460 O   0  0  0  0  0  0  0  0  0  0  0  0
   43.4147   13.8935   -6.3761 C   0  0  0  0  0  0  0  0  0  0  0  0
   43.1651   12.6040   -5.5827 C   0  0  0  0  0  0  0  0  0  0  0  0
   44.2282   14.8232   -5.6020 C   0  0  0  0  0  0  0  0  0  0  0  0
   42.1585   14.4441   -6.9146 N   0  0  0  0  0  0  0  0  0  0  0  0
   40.9894   14.5720   -6.2898 C   0  0  0  0  0  0  0  0  0  0  0  0
   40.5834   14.2969   -5.0136 C   0  0  0  0  0  0  0  0  0  0  0  0
   39.2903   14.5270   -4.6002 C   0  0  0  0  0  0  0  0  0  0  0  0
   38.3341   15.0546   -5.4736 C   0  0  0  0  0  0  0  0  0  0  0  0
   38.7333   15.3301   -6.7433 C   0  0  0  0  0  0  0  0  0  0  0  0
   40.0225   15.0970   -7.1429 C   0  0  0  0  0  0  0  0  0  0  0  0
   40.6461   15.2973   -8.3461 C   0  0  0  0  0  0  0  0  0  0  0  0
   40.2146   15.7924   -9.5786 C   0  0  0  0  0  0  0  0  0  0  0  0
   38.8791   16.2796   -9.9932 C   0  0  0  0  0  0  0  0  0  0  0  0
   38.9821   16.6714  -11.3601 N   0  0  0  0  0  0  0  0  0  0  0  0
   40.3275   16.4399  -11.7903 C   0  0  0  0  0  0  0  0  0  0  0  0
   40.6801   16.6978  -12.9428 O   0  0  0  0  0  0  0  0  0  0  0  0
   41.0738   15.8953  -10.6716 C   0  0  0  0  0  0  0  0  0  0  0  0
   42.3745   15.4863  -10.4817 C   0  0  0  0  0  0  0  0  0  0  0  0
   43.5006   15.4424  -11.2836 C   0  0  0  0  0  0  0  0  0  0  0  0
   43.7250   15.7873  -12.5868 C   0  0  0  0  0  0  0  0  0  0  0  0
   44.9890   15.6246  -13.1191 C   0  0  0  0  0  0  0  0  0  0  0  0
   46.0134   15.1238  -12.3571 C   0  0  0  0  0  0  0  0  0  0  0  0
   45.8020   14.7719  -11.0421 C   0  0  0  0  0  0  0  0  0  0  0  0
   44.5476   14.9365  -10.5245 C   0  0  0  0  0  0  0  0  0  0  0  0
   44.0951   14.6795   -9.3151 N   0  0  0  0  0  0  0  0  0  0  0  0
   42.7990   14.9894   -9.2371 C   0  0  0  0  0  0  0  0  0  0  0  0
   41.9294   14.8929   -8.1643 C   0  0  0  0  0  0  0  0  0  0  0  0
   38.1927   17.0591  -11.9284 H   0  0  0  0  0  0  0  0  0  0  0  0
   45.1809   17.7412   -7.6272 C   0  0  0  0  0  0  0  0  0  0  0  0
   44.6277   17.0870   -6.4558 N   0  0  0  0  0  0  0  0  0  0  0  0
   43.5971   17.0543   -6.6095 H   0  0  0  0  0  0  0  0  0  0  0  0
   43.5403   15.6842   -4.7501 O   0  0  0  0  0  0  0  0  0  0  0  0
   43.8917   15.5290   -3.4148 C   0  0  0  0  0  0  0  0  0  0  0  0
 33 34  1  0  0  0
 34  1  1  0  0  0
  1  2  1  0  0  0
  2  3  1  0  0  0
  3  4  1  0  0  0
  4  5  1  0  0  0
  5  6  1  0  0  0
  5  7  1  0  0  0
  7 36  1  0  0  0
 36 37  1  0  0  0
  5  8  1  0  0  0
  8  9  1  0  0  0
  9 10  2  0  0  0
 10 11  1  0  0  0
 11 12  2  0  0  0
 12 13  1  0  0  0
 13 14  2  0  0  0
 14 15  1  0  0  0
 15 16  2  0  0  0
 16 17  1  0  0  0
 17 18  1  0  0  0
 18 19  1  0  0  0
 19 20  2  0  0  0
 19 21  1  0  0  0
 21 22  2  0  0  0
 22 23  1  0  0  0
 23 24  2  0  0  0
 24 25  1  0  0  0
 25 26  2  0  0  0
 26 27  1  0  0  0
 27 28  2  0  0  0
 28 29  1  0  0  0
 29 30  1  0  0  0
 30 31  2  0  0  0
  7  1  1  0  0  0
 31  8  1  0  0  0
 29  3  1  0  0  0
 14  9  1  0  0  0
 31 15  1  0  0  0
 21 16  1  0  0  0
 30 22  1  0  0  0
 28 23  1  0  0  0
 34 35  1  0  0  0
 18 32  1  0  0  0
M  END
> <minimizedAffinity>
-6.29361

> <CNNscore>
0.1366097182

> <CNNaffinity>
5.2215762138

> <CNN_VS>
0.7133180499

> <CNNaffinity_variance>
0.1984195262

$$$$
[H]c1c([H])c([H])c2c(c1[H])c1c3c(c4c5c([H])c([H])c([H])c([H])c5n5c4c1n2[C@@]1(C([H])([H])[H])O[C@]5([H])C([H])([H])[C@@]([H])(N([H])C([H])([H])[H])[C@@]1([H])OC([H])([H])[H])C(=O)N([H])C3([H])[H]


 37 44  0  0  0  0  0  0  0  0999 V2000
   37.3921   15.3528   -9.4633 C   0  0  0  0  0  0  0  0  0  0  0  0
   35.9458   15.1298   -9.4194 C   0  0  0  0  0  0  0  0  0  0  0  0
   35.4854   14.5368   -8.1470 C   0  0  0  0  0  0  0  0  0  0  0  0
   36.3127   13.9900   -7.2977 O   0  0  0  0  0  0  0  0  0  0  0  0
   37.6041   14.4651   -7.0848 C   0  0  0  0  0  0  0  0  0  0  0  0
   38.2564   13.2350   -6.4400 C   0  0  0  0  0  0  0  0  0  0  0  0
   38.2342   14.7692   -8.3638 C   0  0  0  0  0  0  0  0  0  0  0  0
   37.5198   15.5881   -6.1345 N   0  0  0  0  0  0  0  0  0  0  0  0
   38.4599   16.0200   -5.2961 C   0  0  0  0  0  0  0  0  0  0  0  0
   39.7503   15.6305   -5.0672 C   0  0  0  0  0  0  0  0  0  0  0  0
   40.5381   16.2541   -4.1257 C   0  0  0  0  0  0  0  0  0  0  0  0
   40.0480   17.3174   -3.3611 C   0  0  0  0  0  0  0  0  0  0  0  0
   38.7658   17.7084   -3.5855 C   0  0  0  0  0  0  0  0  0  0  0  0
   37.9917   17.0804   -4.5249 C   0  0  0  0  0  0  0  0  0  0  0  0
   36.6995   17.2986   -4.9238 C   0  0  0  0  0  0  0  0  0  0  0  0
   35.7159   18.2090   -4.5313 C   0  0  0  0  0  0  0  0  0  0  0  0
   35.7632   19.2779   -3.5075 C   0  0  0  0  0  0  0  0  0  0  0  0
   34.4876   19.9145   -3.5076 N   0  0  0  0  0  0  0  0  0  0  0  0
   33.6688   19.2728   -4.4908 C   0  0  0  0  0  0  0  0  0  0  0  0
   32.5087   19.6386   -4.6896 O   0  0  0  0  0  0  0  0  0  0  0  0
   34.4490   18.2194   -5.1129 C   0  0  0  0  0  0  0  0  0  0  0  0
   34.2083   17.2883   -6.0978 C   0  0  0  0  0  0  0  0  0  0  0  0
   33.1233   16.9907   -6.9022 C   0  0  0  0  0  0  0  0  0  0  0  0
   31.8677   17.5216   -6.9992 C   0  0  0  0  0  0  0  0  0  0  0  0
   30.9840   16.9982   -7.9227 C   0  0  0  0  0  0  0  0  0  0  0  0
   31.3527   15.9582   -8.7371 C   0  0  0  0  0  0  0  0  0  0  0  0
   32.6148   15.4130   -8.6505 C   0  0  0  0  0  0  0  0  0  0  0  0
   33.4821   15.9379   -7.7335 C   0  0  0  0  0  0  0  0  0  0  0  0
   34.7245   15.5993   -7.4592 N   0  0  0  0  0  0  0  0  0  0  0  0
   35.2051   16.3760   -6.4857 C   0  0  0  0  0  0  0  0  0  0  0  0
   36.4567   16.3804   -5.8941 C   0  0  0  0  0  0  0  0  0  0  0  0
   34.2218   20.7130   -2.8845 H   0  0  0  0  0  0  0  0  0  0  0  0
   36.7829   17.3633  -10.6237 C   0  0  0  0  0  0  0  0  0  0  0  0
   37.6120   16.8133   -9.5671 N   0  0  0  0  0  0  0  0  0  0  0  0
   37.3158   17.2979   -8.6930 H   0  0  0  0  0  0  0  0  0  0  0  0
   39.3523   15.5989   -8.3196 O   0  0  0  0  0  0  0  0  0  0  0  0
   40.5370   14.9368   -8.6171 C   0  0  0  0  0  0  0  0  0  0  0  0
 33 34  1  0  0  0
 34  1  1  0  0  0
  1  2  1  0  0  0
  2  3  1  0  0  0
  3  4  1  0  0  0
  4  5  1  0  0  0
  5  6  1  0  0  0
  5  7  1  0  0  0
  7 36  1  0  0  0
 36 37  1  0  0  0
  5  8  1  0  0  0
  8  9  1  0  0  0
  9 10  2  0  0  0
 10 11  1  0  0  0
 11 12  2  0  0  0
 12 13  1  0  0  0
 13 14  2  0  0  0
 14 15  1  0  0  0
 15 16  2  0  0  0
 16 17  1  0  0  0
 17 18  1  0  0  0
 18 19  1  0  0  0
 19 20  2  0  0  0
 19 21  1  0  0  0
 21 22  2  0  0  0
 22 23  1  0  0  0
 23 24  2  0  0  0
 24 25  1  0  0  0
 25 26  2  0  0  0
 26 27  1  0  0  0
 27 28  2  0  0  0
 28 29  1  0  0  0
 29 30  1  0  0  0
 30 31  2  0  0  0
  7  1  1  0  0  0
 31  8  1  0  0  0
 29  3  1  0  0  0
 14  9  1  0  0  0
 31 15  1  0  0  0
 21 16  1  0  0  0
 30 22  1  0  0  0
 28 23  1  0  0  0
 34 35  1  0  0  0
 18 32  1  0  0  0
M  END
> <minimizedAffinity>
-6.06829

> <CNNscore>
0.1305533350

> <CNNaffinity>
5.4454736710

> <CNN_VS>
0.7109247446

> <CNNaffinity_variance>
0.1668576896

$$$$
[H]c1c([H])c([H])c2c(c1[H])c1c3c(c4c5c([H])c([H])c([H])c([H])c5n5c4c1n2[C@@]1(C([H])([H])[H])O[C@]5([H])C([H])([H])[C@@]([H])(N([H])C([H])([H])[H])[C@@]1([H])OC([H])([H])[H])C(=O)N([H])C3([H])[H]


 37 44  0  0  0  0  0  0  0  0999 V2000
   37.8317   17.2838   -9.8047 C   0  0  0  0  0  0  0  0  0  0  0  0
   36.7256   16.7781  -10.6197 C   0  0  0  0  0  0  0  0  0  0  0  0
   36.4018   15.3622  -10.3495 C   0  0  0  0  0  0  0  0  0  0  0  0
   37.2138   14.5788   -9.6925 O   0  0  0  0  0  0  0  0  0  0  0  0
   38.0123   15.0241   -8.6425 C   0  0  0  0  0  0  0  0  0  0  0  0
   39.0661   13.9097   -8.5949 C   0  0  0  0  0  0  0  0  0  0  0  0
   38.6273   16.2974   -8.9970 C   0  0  0  0  0  0  0  0  0  0  0  0
   37.1867   15.0347   -7.4220 N   0  0  0  0  0  0  0  0  0  0  0  0
   37.5944   14.9154   -6.1599 C   0  0  0  0  0  0  0  0  0  0  0  0
   38.8315   14.7918   -5.5912 C   0  0  0  0  0  0  0  0  0  0  0  0
   38.9940   14.6861   -4.2280 C   0  0  0  0  0  0  0  0  0  0  0  0
   37.8941   14.7011   -3.3646 C   0  0  0  0  0  0  0  0  0  0  0  0
   36.6621   14.8243   -3.9254 C   0  0  0  0  0  0  0  0  0  0  0  0
   36.5131   14.9288   -5.2829 C   0  0  0  0  0  0  0  0  0  0  0  0
   35.3944   15.0657   -6.0615 C   0  0  0  0  0  0  0  0  0  0  0  0
   34.0298   15.1413   -5.7740 C   0  0  0  0  0  0  0  0  0  0  0  0
   33.3283   15.0934   -4.4708 C   0  0  0  0  0  0  0  0  0  0  0  0
   31.9336   15.2126   -4.7414 N   0  0  0  0  0  0  0  0  0  0  0  0
   31.7625   15.3299   -6.1576 C   0  0  0  0  0  0  0  0  0  0  0  0
   30.6409   15.4461   -6.6554 O   0  0  0  0  0  0  0  0  0  0  0  0
   33.0732   15.2835   -6.7780 C   0  0  0  0  0  0  0  0  0  0  0  0
   33.5350   15.3476   -8.0733 C   0  0  0  0  0  0  0  0  0  0  0  0
   32.9306   15.4955   -9.3086 C   0  0  0  0  0  0  0  0  0  0  0  0
   31.6253   15.6219   -9.6930 C   0  0  0  0  0  0  0  0  0  0  0  0
   31.3278   15.7571  -11.0349 C   0  0  0  0  0  0  0  0  0  0  0  0
   32.3235   15.7657  -11.9781 C   0  0  0  0  0  0  0  0  0  0  0  0
   33.6436   15.6392  -11.6053 C   0  0  0  0  0  0  0  0  0  0  0  0
   33.9278   15.5059  -10.2749 C   0  0  0  0  0  0  0  0  0  0  0  0
   35.0900   15.3710   -9.6713 N   0  0  0  0  0  0  0  0  0  0  0  0
   34.9106   15.2705   -8.3524 C   0  0  0  0  0  0  0  0  0  0  0  0
   35.8449   15.1270   -7.3409 C   0  0  0  0  0  0  0  0  0  0  0  0
   31.1840   15.2114   -4.0102 H   0  0  0  0  0  0  0  0  0  0  0  0
   37.8510   19.6331   -9.3146 C   0  0  0  0  0  0  0  0  0  0  0  0
   37.2883   18.3507   -8.9338 N   0  0  0  0  0  0  0  0  0  0  0  0
   36.2576   18.4451   -9.0587 H   0  0  0  0  0  0  0  0  0  0  0  0
   39.1313   17.0548   -7.9421 O   0  0  0  0  0  0  0  0  0  0  0  0
   40.4899   16.8584   -7.7276 C   0  0  0  0  0  0  0  0  0  0  0  0
 33 34  1  0  0  0
 34  1  1  0  0  0
  1  2  1  0  0  0
  2  3  1  0  0  0
  3  4  1  0  0  0
  4  5  1  0  0  0
  5  6  1  0  0  0
  5  7  1  0  0  0
  7 36  1  0  0  0
 36 37  1  0  0  0
  5  8  1  0  0  0
  8  9  1  0  0  0
  9 10  2  0  0  0
 10 11  1  0  0  0
 11 12  2  0  0  0
 12 13  1  0  0  0
 13 14  2  0  0  0
 14 15  1  0  0  0
 15 16  2  0  0  0
 16 17  1  0  0  0
 17 18  1  0  0  0
 18 19  1  0  0  0
 19 20  2  0  0  0
 19 21  1  0  0  0
 21 22  2  0  0  0
 22 23  1  0  0  0
 23 24  2  0  0  0
 24 25  1  0  0  0
 25 26  2  0  0  0
 26 27  1  0  0  0
 27 28  2  0  0  0
 28 29  1  0  0  0
 29 30  1  0  0  0
 30 31  2  0  0  0
  7  1  1  0  0  0
 31  8  1  0  0  0
 29  3  1  0  0  0
 14  9  1  0  0  0
 31 15  1  0  0  0
 21 16  1  0  0  0
 30 22  1  0  0  0
 28 23  1  0  0  0
 34 35  1  0  0  0
 18 32  1  0  0  0
M  END
> <minimizedAffinity>
-5.38107

> <CNNscore>
0.1270100325

> <CNNaffinity>
5.5534143448

> <CNN_VS>
0.7053393126

> <CNNaffinity_variance>
0.1316618770

$$$$
[H]c1c([H])c(N([H])C(=O)N([H])c2c([H])c([H])c(-c3nc4c([H])c(C([H])([H])N5C([H])([H])C([H])([H])N(C([H])([H])[H])C([H])([H])C5([H])[H])c([H])c([H])c4n3[H])c([H])c2[H])c([H])c([H])c1OC([H])([H])C([H])([H])N1C([H])([H])C([H])([H])C([H])([H])C1([H])[H]


 44 49  0  0  0  0  0  0  0  0999 V2000
   41.7684   13.8785   -7.8039 C   0  0  0  0  0  0  0  0  0  0  0  0
   42.1333   14.3416   -6.5604 C   0  0  0  0  0  0  0  0  0  0  0  0
   41.2864   14.2280   -5.4865 C   0  0  0  0  0  0  0  0  0  0  0  0
   40.0124   13.6449   -5.5682 C   0  0  0  0  0  0  0  0  0  0  0  0
   39.6552   13.1857   -6.8074 C   0  0  0  0  0  0  0  0  0  0  0  0
   40.5223   13.3026   -7.9066 C   0  0  0  0  0  0  0  0  0  0  0  0
   45.2293   15.0666  -12.5546 C   0  0  0  0  0  0  0  0  0  0  0  0
   45.4295   13.7141  -12.5391 C   0  0  0  0  0  0  0  0  0  0  0  0
   44.8262   12.9122  -11.5897 C   0  0  0  0  0  0  0  0  0  0  0  0
   44.0003   13.5004  -10.6341 C   0  0  0  0  0  0  0  0  0  0  0  0
   43.2899   13.0070   -9.6069 N   0  0  0  0  0  0  0  0  0  0  0  0
   42.6443   13.9845   -8.9644 C   0  0  0  0  0  0  0  0  0  0  0  0
   42.9615   15.1159   -9.6093 N   0  0  0  0  0  0  0  0  0  0  0  0
   43.7880   14.8591  -10.6352 C   0  0  0  0  0  0  0  0  0  0  0  0
   44.4102   15.6243  -11.6018 C   0  0  0  0  0  0  0  0  0  0  0  0
   43.2663   11.9887   -9.3684 H   0  0  0  0  0  0  0  0  0  0  0  0
   45.8523   15.9860  -13.5448 C   0  0  0  0  0  0  0  0  0  0  0  0
   50.9519   16.4406  -12.9241 C   0  0  0  0  0  0  0  0  0  0  0  0
   49.8630   17.0635  -13.6581 N   0  0  0  0  0  0  0  0  0  0  0  0
   48.8289   17.5474  -12.7621 C   0  0  0  0  0  0  0  0  0  0  0  0
   47.8683   16.4567  -12.3686 C   0  0  0  0  0  0  0  0  0  0  0  0
   47.2864   15.7863  -13.4894 N   0  0  0  0  0  0  0  0  0  0  0  0
   47.8399   16.1803  -14.7675 C   0  0  0  0  0  0  0  0  0  0  0  0
   49.3509   16.2262  -14.6987 C   0  0  0  0  0  0  0  0  0  0  0  0
   39.2339   13.5557   -4.3975 N   0  0  0  0  0  0  0  0  0  0  0  0
   38.1959   14.4194   -3.9890 C   0  0  0  0  0  0  0  0  0  0  0  0
   37.8957   15.3997   -4.7037 O   0  0  0  0  0  0  0  0  0  0  0  0
   37.4985   14.1913   -2.7934 N   0  0  0  0  0  0  0  0  0  0  0  0
   39.4253   12.7449   -3.7164 H   0  0  0  0  0  0  0  0  0  0  0  0
   37.8224   13.3222   -2.2473 H   0  0  0  0  0  0  0  0  0  0  0  0
   36.4522   14.9351   -2.2196 C   0  0  0  0  0  0  0  0  0  0  0  0
   35.1627   14.7730   -2.7554 C   0  0  0  0  0  0  0  0  0  0  0  0
   34.1446   15.4958   -2.1682 C   0  0  0  0  0  0  0  0  0  0  0  0
   34.2761   16.3523   -1.1180 C   0  0  0  0  0  0  0  0  0  0  0  0
   35.5867   16.4822   -0.6123 C   0  0  0  0  0  0  0  0  0  0  0  0
   36.6410   15.7847   -1.1587 C   0  0  0  0  0  0  0  0  0  0  0  0
   33.2629   17.0689   -0.5485 O   0  0  0  0  0  0  0  0  0  0  0  0
   32.6089   18.1345   -1.1269 C   0  0  0  0  0  0  0  0  0  0  0  0
   33.2330   19.4913   -0.9193 C   0  0  0  0  0  0  0  0  0  0  0  0
   32.7277   20.5031   -1.7894 N   0  0  0  0  0  0  0  0  0  0  0  0
   32.8617   20.2429   -3.1843 C   0  0  0  0  0  0  0  0  0  0  0  0
   32.9552   21.5863   -3.8792 C   0  0  0  0  0  0  0  0  0  0  0  0
   32.7162   22.5923   -2.7735 C   0  0  0  0  0  0  0  0  0  0  0  0
   33.1083   21.8423   -1.5141 C   0  0  0  0  0  0  0  0  0  0  0  0
 18 19  1  0  0  0
 19 20  1  0  0  0
 20 21  1  0  0  0
 21 22  1  0  0  0
 22 17  1  0  0  0
 17  7  1  0  0  0
  7  8  2  0  0  0
  8  9  1  0  0  0
  9 10  2  0  0  0
 10 11  1  0  0  0
 11 12  1  0  0  0
 12 13  2  0  0  0
 13 14  1  0  0  0
 14 15  2  0  0  0
 12  1  1  0  0  0
  1  2  2  0  0  0
  2  3  1  0  0  0
  3  4  2  0  0  0
  4 25  1  0  0  0
 25 26  1  0  0  0
 26 27  2  0  0  0
 26 28  1  0  0  0
 28 31  1  0  0  0
 31 32  2  0  0  0
 32 33  1  0  0  0
 33 34  2  0  0  0
 34 37  1  0  0  0
 37 38  1  0  0  0
 38 39  1  0  0  0
 39 40  1  0  0  0
 40 41  1  0  0  0
 41 42  1  0  0  0
 42 43  1  0  0  0
 43 44  1  0  0  0
 34 35  1  0  0  0
 35 36  2  0  0  0
  4  5  1  0  0  0
  5  6  2  0  0  0
 22 23  1  0  0  0
 23 24  1  0  0  0
 24 19  1  0  0  0
 15  7  1  0  0  0
  6  1  1  0  0  0
 14 10  1  0  0  0
 36 31  1  0  0  0
 44 40  1  0  0  0
 11 16  1  0  0  0
 25 29  1  0  0  0
 28 30  1  0  0  0
M  END
> <minimizedAffinity>
-6.39081

> <CNNscore>
0.5199378133

> <CNNaffinity>
5.5753026009

> <CNN_VS>
2.8988106251

> <CNNaffinity_variance>
0.5715987086

$$$$
[H]c1c([H])c(N([H])C(=O)N([H])c2c([H])c([H])c(-c3nc4c([H])c(C([H])([H])N5C([H])([H])C([H])([H])N(C([H])([H])[H])C([H])([H])C5([H])[H])c([H])c([H])c4n3[H])c([H])c2[H])c([H])c([H])c1OC([H])([H])C([H])([H])N1C([H])([H])C([H])([H])C([H])([H])C1([H])[H]


 44 49  0  0  0  0  0  0  0  0999 V2000
   42.2550   15.6929   -9.6827 C   0  0  0  0  0  0  0  0  0  0  0  0
   42.4548   14.7866   -8.6665 C   0  0  0  0  0  0  0  0  0  0  0  0
   41.4032   14.3178   -7.9197 C   0  0  0  0  0  0  0  0  0  0  0  0
   40.0731   14.7148   -8.1272 C   0  0  0  0  0  0  0  0  0  0  0  0
   39.8806   15.6160   -9.1396 C   0  0  0  0  0  0  0  0  0  0  0  0
   40.9575   16.0960   -9.9036 C   0  0  0  0  0  0  0  0  0  0  0  0
   46.3897   17.5257  -13.6202 C   0  0  0  0  0  0  0  0  0  0  0  0
   46.9985   18.0200  -12.5000 C   0  0  0  0  0  0  0  0  0  0  0  0
   46.4326   17.8629  -11.2496 C   0  0  0  0  0  0  0  0  0  0  0  0
   45.2192   17.1874  -11.1368 C   0  0  0  0  0  0  0  0  0  0  0  0
   44.4344   16.8796  -10.0915 N   0  0  0  0  0  0  0  0  0  0  0  0
   43.3503   16.2105  -10.4937 C   0  0  0  0  0  0  0  0  0  0  0  0
   43.4639   16.0990  -11.8246 N   0  0  0  0  0  0  0  0  0  0  0  0
   44.5934   16.6839  -12.2530 C   0  0  0  0  0  0  0  0  0  0  0  0
   45.1932   16.8627  -13.4839 C   0  0  0  0  0  0  0  0  0  0  0  0
   44.6692   17.1430   -9.1066 H   0  0  0  0  0  0  0  0  0  0  0  0
   46.9425   17.6651  -14.9945 C   0  0  0  0  0  0  0  0  0  0  0  0
   51.9908   17.1768  -15.9291 C   0  0  0  0  0  0  0  0  0  0  0  0
   50.7233   16.6038  -16.3506 N   0  0  0  0  0  0  0  0  0  0  0  0
   49.8327   17.6201  -16.8801 C   0  0  0  0  0  0  0  0  0  0  0  0
   49.0840   18.3378  -15.7885 C   0  0  0  0  0  0  0  0  0  0  0  0
   48.3739   17.4546  -14.9168 N   0  0  0  0  0  0  0  0  0  0  0  0
   48.6308   16.0509  -15.1593 C   0  0  0  0  0  0  0  0  0  0  0  0
   50.1141   15.8059  -15.3315 C   0  0  0  0  0  0  0  0  0  0  0  0
   39.0659   14.1514   -7.3193 N   0  0  0  0  0  0  0  0  0  0  0  0
   38.4280   14.7402   -6.2073 C   0  0  0  0  0  0  0  0  0  0  0  0
   38.7614   15.8889   -5.8451 O   0  0  0  0  0  0  0  0  0  0  0  0
   37.4260   14.0535   -5.5056 N   0  0  0  0  0  0  0  0  0  0  0  0
   38.7182   13.1601   -7.5522 H   0  0  0  0  0  0  0  0  0  0  0  0
   37.2025   13.0742   -5.8921 H   0  0  0  0  0  0  0  0  0  0  0  0
   36.6886   14.4642   -4.3810 C   0  0  0  0  0  0  0  0  0  0  0  0
   37.4025   14.8188   -3.2232 C   0  0  0  0  0  0  0  0  0  0  0  0
   36.6644   15.2376   -2.1353 C   0  0  0  0  0  0  0  0  0  0  0  0
   35.3076   15.3373   -2.0814 C   0  0  0  0  0  0  0  0  0  0  0  0
   34.6333   14.9728   -3.2658 C   0  0  0  0  0  0  0  0  0  0  0  0
   35.3189   14.5482   -4.3822 C   0  0  0  0  0  0  0  0  0  0  0  0
   34.5857   15.7460   -0.9970 O   0  0  0  0  0  0  0  0  0  0  0  0
   33.2478   16.0746   -0.9999 C   0  0  0  0  0  0  0  0  0  0  0  0
   32.9235   17.5462   -1.0531 C   0  0  0  0  0  0  0  0  0  0  0  0
   33.2150   18.1609   -2.3074 N   0  0  0  0  0  0  0  0  0  0  0  0
   34.0676   19.3017   -2.2538 C   0  0  0  0  0  0  0  0  0  0  0  0
   33.7078   20.1803   -3.4350 C   0  0  0  0  0  0  0  0  0  0  0  0
   32.6991   19.3612   -4.2117 C   0  0  0  0  0  0  0  0  0  0  0  0
   32.1188   18.4232   -3.1697 C   0  0  0  0  0  0  0  0  0  0  0  0
 18 19  1  0  0  0
 19 20  1  0  0  0
 20 21  1  0  0  0
 21 22  1  0  0  0
 22 17  1  0  0  0
 17  7  1  0  0  0
  7  8  2  0  0  0
  8  9  1  0  0  0
  9 10  2  0  0  0
 10 11  1  0  0  0
 11 12  1  0  0  0
 12 13  2  0  0  0
 13 14  1  0  0  0
 14 15  2  0  0  0
 12  1  1  0  0  0
  1  2  2  0  0  0
  2  3  1  0  0  0
  3  4  2  0  0  0
  4 25  1  0  0  0
 25 26  1  0  0  0
 26 27  2  0  0  0
 26 28  1  0  0  0
 28 31  1  0  0  0
 31 32  2  0  0  0
 32 33  1  0  0  0
 33 34  2  0  0  0
 34 37  1  0  0  0
 37 38  1  0  0  0
 38 39  1  0  0  0
 39 40  1  0  0  0
 40 41  1  0  0  0
 41 42  1  0  0  0
 42 43  1  0  0  0
 43 44  1  0  0  0
 34 35  1  0  0  0
 35 36  2  0  0  0
  4  5  1  0  0  0
  5  6  2  0  0  0
 22 23  1  0  0  0
 23 24  1  0  0  0
 24 19  1  0  0  0
 15  7  1  0  0  0
  6  1  1  0  0  0
 14 10  1  0  0  0
 36 31  1  0  0  0
 44 40  1  0  0  0
 11 16  1  0  0  0
 25 29  1  0  0  0
 28 30  1  0  0  0
M  END
> <minimizedAffinity>
-6.08133

> <CNNscore>
0.4087730348

> <CNNaffinity>
5.3673682213

> <CNN_VS>
2.1940352917

> <CNNaffinity_variance>
0.1534032822

$$$$
[H]c1c([H])c(N([H])C(=O)N([H])c2c([H])c([H])c(-c3nc4c([H])c(C([H])([H])N5C([H])([H])C([H])([H])N(C([H])([H])[H])C([H])([H])C5([H])[H])c([H])c([H])c4n3[H])c([H])c2[H])c([H])c([H])c1OC([H])([H])C([H])([H])N1C([H])([H])C([H])([H])C([H])([H])C1([H])[H]


 44 49  0  0  0  0  0  0  0  0999 V2000
   41.0141   15.9348   -9.4149 C   0  0  0  0  0  0  0  0  0  0  0  0
   40.4922   15.1419   -8.4185 C   0  0  0  0  0  0  0  0  0  0  0  0
   39.1631   14.8000   -8.4095 C   0  0  0  0  0  0  0  0  0  0  0  0
   38.2525   15.2208   -9.3911 C   0  0  0  0  0  0  0  0  0  0  0  0
   38.7775   16.0087  -10.3798 C   0  0  0  0  0  0  0  0  0  0  0  0
   40.1381   16.3588  -10.3885 C   0  0  0  0  0  0  0  0  0  0  0  0
   46.7627   17.3774  -10.3261 C   0  0  0  0  0  0  0  0  0  0  0  0
   46.7561   17.5740   -8.9729 C   0  0  0  0  0  0  0  0  0  0  0  0
   45.6123   17.3697   -8.2258 C   0  0  0  0  0  0  0  0  0  0  0  0
   44.4485   16.9560   -8.8707 C   0  0  0  0  0  0  0  0  0  0  0  0
   43.2079   16.6802   -8.4369 N   0  0  0  0  0  0  0  0  0  0  0  0
   42.4207   16.3161   -9.4530 C   0  0  0  0  0  0  0  0  0  0  0  0
   43.1921   16.3668  -10.5479 N   0  0  0  0  0  0  0  0  0  0  0  0
   44.4376   16.7537  -10.2308 C   0  0  0  0  0  0  0  0  0  0  0  0
   45.6026   16.9691  -10.9402 C   0  0  0  0  0  0  0  0  0  0  0  0
   42.9279   16.7506   -7.4314 H   0  0  0  0  0  0  0  0  0  0  0  0
   47.9575   17.5844  -11.1884 C   0  0  0  0  0  0  0  0  0  0  0  0
   49.4529   22.4038  -12.2536 C   0  0  0  0  0  0  0  0  0  0  0  0
   49.9932   21.0549  -12.2234 N   0  0  0  0  0  0  0  0  0  0  0  0
   49.2416   20.1639  -13.0880 C   0  0  0  0  0  0  0  0  0  0  0  0
   48.0088   19.6276  -12.4098 C   0  0  0  0  0  0  0  0  0  0  0  0
   48.2839   18.9958  -11.1571 N   0  0  0  0  0  0  0  0  0  0  0  0
   49.6571   19.1250  -10.7180 C   0  0  0  0  0  0  0  0  0  0  0  0
   50.1372   20.5494  -10.8930 C   0  0  0  0  0  0  0  0  0  0  0  0
   36.9143   14.7902   -9.3002 N   0  0  0  0  0  0  0  0  0  0  0  0
   35.8779   15.3645   -8.5344 C   0  0  0  0  0  0  0  0  0  0  0  0
   36.1194   16.3665   -7.8277 O   0  0  0  0  0  0  0  0  0  0  0  0
   34.5829   14.8257   -8.5572 N   0  0  0  0  0  0  0  0  0  0  0  0
   36.6142   13.9287   -9.8708 H   0  0  0  0  0  0  0  0  0  0  0  0
   34.4683   13.9677   -9.1970 H   0  0  0  0  0  0  0  0  0  0  0  0
   33.4335   15.2465   -7.8651 C   0  0  0  0  0  0  0  0  0  0  0  0
   33.0500   14.5161   -6.7269 C   0  0  0  0  0  0  0  0  0  0  0  0
   31.9309   14.9540   -6.0489 C   0  0  0  0  0  0  0  0  0  0  0  0
   31.1643   16.0284   -6.3830 C   0  0  0  0  0  0  0  0  0  0  0  0
   31.5873   16.7317   -7.5305 C   0  0  0  0  0  0  0  0  0  0  0  0
   32.6972   16.3401   -8.2457 C   0  0  0  0  0  0  0  0  0  0  0  0
   30.0538   16.4495   -5.7093 O   0  0  0  0  0  0  0  0  0  0  0  0
   28.8514   16.8009   -6.2826 C   0  0  0  0  0  0  0  0  0  0  0  0
   28.5828   16.2472   -7.6591 C   0  0  0  0  0  0  0  0  0  0  0  0
   27.8381   15.0299   -7.6611 N   0  0  0  0  0  0  0  0  0  0  0  0
   27.2160   14.6834   -6.4265 C   0  0  0  0  0  0  0  0  0  0  0  0
   27.1126   13.1719   -6.3908 C   0  0  0  0  0  0  0  0  0  0  0  0
   27.5920   12.7358   -7.7589 C   0  0  0  0  0  0  0  0  0  0  0  0
   28.4692   13.8864   -8.2162 C   0  0  0  0  0  0  0  0  0  0  0  0
 18 19  1  0  0  0
 19 20  1  0  0  0
 20 21  1  0  0  0
 21 22  1  0  0  0
 22 17  1  0  0  0
 17  7  1  0  0  0
  7  8  2  0  0  0
  8  9  1  0  0  0
  9 10  2  0  0  0
 10 11  1  0  0  0
 11 12  1  0  0  0
 12 13  2  0  0  0
 13 14  1  0  0  0
 14 15  2  0  0  0
 12  1  1  0  0  0
  1  2  2  0  0  0
  2  3  1  0  0  0
  3  4  2  0  0  0
  4 25  1  0  0  0
 25 26  1  0  0  0
 26 27  2  0  0  0
 26 28  1  0  0  0
 28 31  1  0  0  0
 31 32  2  0  0  0
 32 33  1  0  0  0
 33 34  2  0  0  0
 34 37  1  0  0  0
 37 38  1  0  0  0
 38 39  1  0  0  0
 39 40  1  0  0  0
 40 41  1  0  0  0
 41 42  1  0  0  0
 42 43  1  0  0  0
 43 44  1  0  0  0
 34 35  1  0  0  0
 35 36  2  0  0  0
  4  5  1  0  0  0
  5  6  2  0  0  0
 22 23  1  0  0  0
 23 24  1  0  0  0
 24 19  1  0  0  0
 15  7  1  0  0  0
  6  1  1  0  0  0
 14 10  1  0  0  0
 36 31  1  0  0  0
 44 40  1  0  0  0
 11 16  1  0  0  0
 25 29  1  0  0  0
 28 30  1  0  0  0
M  END
> <minimizedAffinity>
-6.58310

> <CNNscore>
0.3536499143

> <CNNaffinity>
5.2673296928

> <CNN_VS>
1.8627907038

> <CNNaffinity_variance>
0.3505089879

$$$$
[H]c1c([H])c(N([H])C(=O)N([H])c2c([H])c([H])c(-c3nc4c([H])c(C([H])([H])N5C([H])([H])C([H])([H])N(C([H])([H])[H])C([H])([H])C5([H])[H])c([H])c([H])c4n3[H])c([H])c2[H])c([H])c([H])c1OC([H])([H])C([H])([H])N1C([H])([H])C([H])([H])C([H])([H])C1([H])[H]


 44 49  0  0  0  0  0  0  0  0999 V2000
   39.1652   13.4931  -14.8604 C   0  0  0  0  0  0  0  0  0  0  0  0
   38.6856   14.5955  -14.1905 C   0  0  0  0  0  0  0  0  0  0  0  0
   37.3374   14.7921  -14.0259 C   0  0  0  0  0  0  0  0  0  0  0  0
   36.3642   13.9069  -14.5147 C   0  0  0  0  0  0  0  0  0  0  0  0
   36.8472   12.8121  -15.1796 C   0  0  0  0  0  0  0  0  0  0  0  0
   38.2275   12.6114  -15.3484 C   0  0  0  0  0  0  0  0  0  0  0  0
   45.1257   12.8450  -14.9669 C   0  0  0  0  0  0  0  0  0  0  0  0
   44.8765   12.2767  -16.1854 C   0  0  0  0  0  0  0  0  0  0  0  0
   43.5890   12.1677  -16.6742 C   0  0  0  0  0  0  0  0  0  0  0  0
   42.5310   12.6480  -15.9052 C   0  0  0  0  0  0  0  0  0  0  0  0
   41.2023   12.6873  -16.0958 N   0  0  0  0  0  0  0  0  0  0  0  0
   40.5907   13.2555  -15.0527 C   0  0  0  0  0  0  0  0  0  0  0  0
   41.5649   13.5782  -14.1906 N   0  0  0  0  0  0  0  0  0  0  0  0
   42.7639   13.2223  -14.6776 C   0  0  0  0  0  0  0  0  0  0  0  0
   44.0659   13.3118  -14.2263 C   0  0  0  0  0  0  0  0  0  0  0  0
   40.7396   12.3146  -16.9568 H   0  0  0  0  0  0  0  0  0  0  0  0
   46.4860   12.9880  -14.3812 C   0  0  0  0  0  0  0  0  0  0  0  0
   49.9335   16.1522  -16.5490 C   0  0  0  0  0  0  0  0  0  0  0  0
   49.5385   15.6738  -15.2347 N   0  0  0  0  0  0  0  0  0  0  0  0
   49.6133   14.2267  -15.1533 C   0  0  0  0  0  0  0  0  0  0  0  0
   48.3780   13.5664  -15.7058 C   0  0  0  0  0  0  0  0  0  0  0  0
   47.1694   14.0398  -15.1065 N   0  0  0  0  0  0  0  0  0  0  0  0
   47.3544   15.1553  -14.2029 C   0  0  0  0  0  0  0  0  0  0  0  0
   48.2707   16.1899  -14.8193 C   0  0  0  0  0  0  0  0  0  0  0  0
   35.0068   14.1913  -14.2673 N   0  0  0  0  0  0  0  0  0  0  0  0
   34.3973   14.4501  -13.0216 C   0  0  0  0  0  0  0  0  0  0  0  0
   35.0907   14.4277  -11.9821 O   0  0  0  0  0  0  0  0  0  0  0  0
   33.0258   14.7321  -12.9363 N   0  0  0  0  0  0  0  0  0  0  0  0
   34.3307   14.2260  -15.1036 H   0  0  0  0  0  0  0  0  0  0  0  0
   32.5115   14.7344  -13.8818 H   0  0  0  0  0  0  0  0  0  0  0  0
   32.2439   15.0042  -11.7997 C   0  0  0  0  0  0  0  0  0  0  0  0
   30.9624   14.4302  -11.7333 C   0  0  0  0  0  0  0  0  0  0  0  0
   30.2162   14.6920  -10.6026 C   0  0  0  0  0  0  0  0  0  0  0  0
   30.6082   15.4565   -9.5464 C   0  0  0  0  0  0  0  0  0  0  0  0
   31.9010   16.0104   -9.6558 C   0  0  0  0  0  0  0  0  0  0  0  0
   32.6903   15.7821  -10.7611 C   0  0  0  0  0  0  0  0  0  0  0  0
   29.8590   15.7156   -8.4347 O   0  0  0  0  0  0  0  0  0  0  0  0
   30.1612   16.6411   -7.4600 C   0  0  0  0  0  0  0  0  0  0  0  0
   30.3258   16.1047   -6.0605 C   0  0  0  0  0  0  0  0  0  0  0  0
   31.6405   15.6324   -5.7695 N   0  0  0  0  0  0  0  0  0  0  0  0
   32.7064   16.5043   -6.1371 C   0  0  0  0  0  0  0  0  0  0  0  0
   33.9141   15.6337   -6.4199 C   0  0  0  0  0  0  0  0  0  0  0  0
   33.4632   14.2400   -6.0378 C   0  0  0  0  0  0  0  0  0  0  0  0
   31.9523   14.3044   -6.1611 C   0  0  0  0  0  0  0  0  0  0  0  0
 18 19  1  0  0  0
 19 20  1  0  0  0
 20 21  1  0  0  0
 21 22  1  0  0  0
 22 17  1  0  0  0
 17  7  1  0  0  0
  7  8  2  0  0  0
  8  9  1  0  0  0
  9 10  2  0  0  0
 10 11  1  0  0  0
 11 12  1  0  0  0
 12 13  2  0  0  0
 13 14  1  0  0  0
 14 15  2  0  0  0
 12  1  1  0  0  0
  1  2  2  0  0  0
  2  3  1  0  0  0
  3  4  2  0  0  0
  4 25  1  0  0  0
 25 26  1  0  0  0
 26 27  2  0  0  0
 26 28  1  0  0  0
 28 31  1  0  0  0
 31 32  2  0  0  0
 32 33  1  0  0  0
 33 34  2  0  0  0
 34 37  1  0  0  0
 37 38  1  0  0  0
 38 39  1  0  0  0
 39 40  1  0  0  0
 40 41  1  0  0  0
 41 42  1  0  0  0
 42 43  1  0  0  0
 43 44  1  0  0  0
 34 35  1  0  0  0
 35 36  2  0  0  0
  4  5  1  0  0  0
  5  6  2  0  0  0
 22 23  1  0  0  0
 23 24  1  0  0  0
 24 19  1  0  0  0
 15  7  1  0  0  0
  6  1  1  0  0  0
 14 10  1  0  0  0
 36 31  1  0  0  0
 44 40  1  0  0  0
 11 16  1  0  0  0
 25 29  1  0  0  0
 28 30  1  0  0  0
M  END
> <minimizedAffinity>
-9.10213

> <CNNscore>
0.3231686652

> <CNNaffinity>
6.2915735245

> <CNN_VS>
2.0332393646

> <CNNaffinity_variance>
0.1648169011

$$$$
[H]c1c([H])c(N([H])C(=O)N([H])c2c([H])c([H])c(-c3nc4c([H])c(C([H])([H])N5C([H])([H])C([H])([H])N(C([H])([H])[H])C([H])([H])C5([H])[H])c([H])c([H])c4n3[H])c([H])c2[H])c([H])c([H])c1OC([H])([H])C([H])([H])N1C([H])([H])C([H])([H])C([H])([H])C1([H])[H]


 44 49  0  0  0  0  0  0  0  0999 V2000
   39.0852   13.6790  -14.7044 C   0  0  0  0  0  0  0  0  0  0  0  0
   38.5816   14.7445  -13.9937 C   0  0  0  0  0  0  0  0  0  0  0  0
   37.2285   14.9246  -13.8526 C   0  0  0  0  0  0  0  0  0  0  0  0
   36.2738   14.0584  -14.4076 C   0  0  0  0  0  0  0  0  0  0  0  0
   36.7806   13.0003  -15.1130 C   0  0  0  0  0  0  0  0  0  0  0  0
   38.1660   12.8165  -15.2575 C   0  0  0  0  0  0  0  0  0  0  0  0
   45.0583   13.1498  -14.7353 C   0  0  0  0  0  0  0  0  0  0  0  0
   44.8296   12.5025  -15.9179 C   0  0  0  0  0  0  0  0  0  0  0  0
   43.5482   12.3369  -16.4067 C   0  0  0  0  0  0  0  0  0  0  0  0
   42.4750   12.8414  -15.6751 C   0  0  0  0  0  0  0  0  0  0  0  0
   41.1472   12.8414  -15.8756 N   0  0  0  0  0  0  0  0  0  0  0  0
   40.5166   13.4598  -14.8733 C   0  0  0  0  0  0  0  0  0  0  0  0
   41.4777   13.8551  -14.0268 N   0  0  0  0  0  0  0  0  0  0  0  0
   42.6872   13.4949  -14.4839 C   0  0  0  0  0  0  0  0  0  0  0  0
   43.9838   13.6390  -14.0311 C   0  0  0  0  0  0  0  0  0  0  0  0
   40.6985   12.4069  -16.7149 H   0  0  0  0  0  0  0  0  0  0  0  0
   46.4111   13.3567  -14.1513 C   0  0  0  0  0  0  0  0  0  0  0  0
   47.5609    9.7130  -10.6874 C   0  0  0  0  0  0  0  0  0  0  0  0
   48.0072   11.0334  -11.0994 N   0  0  0  0  0  0  0  0  0  0  0  0
   46.9320   12.0049  -11.0189 C   0  0  0  0  0  0  0  0  0  0  0  0
   46.0554   11.9782  -12.2428 C   0  0  0  0  0  0  0  0  0  0  0  0
   46.7844   12.1380  -13.4624 N   0  0  0  0  0  0  0  0  0  0  0  0
   48.2222   12.1438  -13.2958 C   0  0  0  0  0  0  0  0  0  0  0  0
   48.6534   11.0226  -12.3755 C   0  0  0  0  0  0  0  0  0  0  0  0
   34.9088   14.3222  -14.1798 N   0  0  0  0  0  0  0  0  0  0  0  0
   34.2680   14.5187  -12.9384 C   0  0  0  0  0  0  0  0  0  0  0  0
   34.9368   14.4523  -11.8848 O   0  0  0  0  0  0  0  0  0  0  0  0
   32.8928   14.7874  -12.8730 N   0  0  0  0  0  0  0  0  0  0  0  0
   34.2524   14.3915  -15.0296 H   0  0  0  0  0  0  0  0  0  0  0  0
   32.4010   14.8305  -13.8295 H   0  0  0  0  0  0  0  0  0  0  0  0
   32.0822   15.0012  -11.7441 C   0  0  0  0  0  0  0  0  0  0  0  0
   30.8124   14.3985  -11.7257 C   0  0  0  0  0  0  0  0  0  0  0  0
   30.0378   14.6028  -10.6023 C   0  0  0  0  0  0  0  0  0  0  0  0
   30.3915   15.3361   -9.5110 C   0  0  0  0  0  0  0  0  0  0  0  0
   31.6740   15.9206   -9.5729 C   0  0  0  0  0  0  0  0  0  0  0  0
   32.4903   15.7497  -10.6687 C   0  0  0  0  0  0  0  0  0  0  0  0
   29.6143   15.5385   -8.4067 O   0  0  0  0  0  0  0  0  0  0  0  0
   29.9914   15.2973   -7.1038 C   0  0  0  0  0  0  0  0  0  0  0  0
   30.3222   16.5099   -6.2709 C   0  0  0  0  0  0  0  0  0  0  0  0
   29.7763   17.7282   -6.7750 N   0  0  0  0  0  0  0  0  0  0  0  0
   30.7259   18.7157   -7.1678 C   0  0  0  0  0  0  0  0  0  0  0  0
   30.0620   20.0660   -6.9878 C   0  0  0  0  0  0  0  0  0  0  0  0
   28.6359   19.7293   -6.6075 C   0  0  0  0  0  0  0  0  0  0  0  0
   28.7405   18.3351   -6.0180 C   0  0  0  0  0  0  0  0  0  0  0  0
 18 19  1  0  0  0
 19 20  1  0  0  0
 20 21  1  0  0  0
 21 22  1  0  0  0
 22 17  1  0  0  0
 17  7  1  0  0  0
  7  8  2  0  0  0
  8  9  1  0  0  0
  9 10  2  0  0  0
 10 11  1  0  0  0
 11 12  1  0  0  0
 12 13  2  0  0  0
 13 14  1  0  0  0
 14 15  2  0  0  0
 12  1  1  0  0  0
  1  2  2  0  0  0
  2  3  1  0  0  0
  3  4  2  0  0  0
  4 25  1  0  0  0
 25 26  1  0  0  0
 26 27  2  0  0  0
 26 28  1  0  0  0
 28 31  1  0  0  0
 31 32  2  0  0  0
 32 33  1  0  0  0
 33 34  2  0  0  0
 34 37  1  0  0  0
 37 38  1  0  0  0
 38 39  1  0  0  0
 39 40  1  0  0  0
 40 41  1  0  0  0
 41 42  1  0  0  0
 42 43  1  0  0  0
 43 44  1  0  0  0
 34 35  1  0  0  0
 35 36  2  0  0  0
  4  5  1  0  0  0
  5  6  2  0  0  0
 22 23  1  0  0  0
 23 24  1  0  0  0
 24 19  1  0  0  0
 15  7  1  0  0  0
  6  1  1  0  0  0
 14 10  1  0  0  0
 36 31  1  0  0  0
 44 40  1  0  0  0
 11 16  1  0  0  0
 25 29  1  0  0  0
 28 30  1  0  0  0
M  END
> <minimizedAffinity>
-9.50367

> <CNNscore>
0.3195814490

> <CNNaffinity>
6.1915068626

> <CNN_VS>
1.9786907434

> <CNNaffinity_variance>
0.1949461401

$$$$
[H]c1c([H])c(N([H])C(=O)N([H])c2c([H])c([H])c(-c3nc4c([H])c(C([H])([H])N5C([H])([H])C([H])([H])N(C([H])([H])[H])C([H])([H])C5([H])[H])c([H])c([H])c4n3[H])c([H])c2[H])c([H])c([H])c1OC([H])([H])C([H])([H])N1C([H])([H])C([H])([H])C([H])([H])C1([H])[H]


 44 49  0  0  0  0  0  0  0  0999 V2000
   39.2948   13.6138  -14.7161 C   0  0  0  0  0  0  0  0  0  0  0  0
   38.2957   12.7832  -15.1698 C   0  0  0  0  0  0  0  0  0  0  0  0
   36.9750   13.0680  -14.9289 C   0  0  0  0  0  0  0  0  0  0  0  0
   36.5481   14.2007  -14.2186 C   0  0  0  0  0  0  0  0  0  0  0  0
   37.5462   15.0233  -13.7702 C   0  0  0  0  0  0  0  0  0  0  0  0
   38.8982   14.7312  -14.0167 C   0  0  0  0  0  0  0  0  0  0  0  0
   45.2304   12.8163  -15.0188 C   0  0  0  0  0  0  0  0  0  0  0  0
   44.9261   12.2473  -16.2244 C   0  0  0  0  0  0  0  0  0  0  0  0
   43.6206   12.1677  -16.6689 C   0  0  0  0  0  0  0  0  0  0  0  0
   42.6013   12.6787  -15.8679 C   0  0  0  0  0  0  0  0  0  0  0  0
   41.2684   12.7502  -16.0139 N   0  0  0  0  0  0  0  0  0  0  0  0
   40.7066   13.3395  -14.9547 C   0  0  0  0  0  0  0  0  0  0  0  0
   41.7171   13.6428  -14.1279 N   0  0  0  0  0  0  0  0  0  0  0  0
   42.8897   13.2542  -14.6527 C   0  0  0  0  0  0  0  0  0  0  0  0
   44.2080   13.3137  -14.2460 C   0  0  0  0  0  0  0  0  0  0  0  0
   40.7677   12.3842  -16.8565 H   0  0  0  0  0  0  0  0  0  0  0  0
   46.6128   12.9285  -14.4800 C   0  0  0  0  0  0  0  0  0  0  0  0
   50.0270   16.0838  -16.7126 C   0  0  0  0  0  0  0  0  0  0  0  0
   49.6731   15.5854  -15.3940 N   0  0  0  0  0  0  0  0  0  0  0  0
   49.7285   14.1361  -15.3432 C   0  0  0  0  0  0  0  0  0  0  0  0
   48.4638   13.5050  -15.8623 C   0  0  0  0  0  0  0  0  0  0  0  0
   47.2853   13.9843  -15.2098 N   0  0  0  0  0  0  0  0  0  0  0  0
   47.5205   15.0789  -14.2924 C   0  0  0  0  0  0  0  0  0  0  0  0
   48.4294   16.1119  -14.9223 C   0  0  0  0  0  0  0  0  0  0  0  0
   35.1653   14.4111  -14.0503 N   0  0  0  0  0  0  0  0  0  0  0  0
   34.4687   14.6125  -12.8403 C   0  0  0  0  0  0  0  0  0  0  0  0
   35.0979   14.6031  -11.7605 O   0  0  0  0  0  0  0  0  0  0  0  0
   33.0818   14.8230  -12.8347 N   0  0  0  0  0  0  0  0  0  0  0  0
   34.5403   14.4292  -14.9261 H   0  0  0  0  0  0  0  0  0  0  0  0
   32.6265   14.8194  -13.8101 H   0  0  0  0  0  0  0  0  0  0  0  0
   32.2193   15.0314  -11.7439 C   0  0  0  0  0  0  0  0  0  0  0  0
   30.9686   14.3900  -11.7657 C   0  0  0  0  0  0  0  0  0  0  0  0
   30.1426   14.5900  -10.6788 C   0  0  0  0  0  0  0  0  0  0  0  0
   30.4287   15.3529   -9.5880 C   0  0  0  0  0  0  0  0  0  0  0  0
   31.6944   15.9757   -9.6087 C   0  0  0  0  0  0  0  0  0  0  0  0
   32.5600   15.8109  -10.6671 C   0  0  0  0  0  0  0  0  0  0  0  0
   29.6010   15.5505   -8.5203 O   0  0  0  0  0  0  0  0  0  0  0  0
   29.8747   15.2010   -7.2161 C   0  0  0  0  0  0  0  0  0  0  0  0
   29.9787   16.3369   -6.2300 C   0  0  0  0  0  0  0  0  0  0  0  0
   29.8079   17.6290   -6.8112 N   0  0  0  0  0  0  0  0  0  0  0  0
   30.9742   18.4470   -6.8542 C   0  0  0  0  0  0  0  0  0  0  0  0
   30.5071   19.8880   -6.8114 C   0  0  0  0  0  0  0  0  0  0  0  0
   28.9984   19.7904   -6.8887 C   0  0  0  0  0  0  0  0  0  0  0  0
   28.7009   18.3974   -6.3659 C   0  0  0  0  0  0  0  0  0  0  0  0
 18 19  1  0  0  0
 19 20  1  0  0  0
 20 21  1  0  0  0
 21 22  1  0  0  0
 22 17  1  0  0  0
 17  7  1  0  0  0
  7  8  2  0  0  0
  8  9  1  0  0  0
  9 10  2  0  0  0
 10 11  1  0  0  0
 11 12  1  0  0  0
 12 13  2  0  0  0
 13 14  1  0  0  0
 14 15  2  0  0  0
 12  1  1  0  0  0
  1  2  2  0  0  0
  2  3  1  0  0  0
  3  4  2  0  0  0
  4 25  1  0  0  0
 25 26  1  0  0  0
 26 27  2  0  0  0
 26 28  1  0  0  0
 28 31  1  0  0  0
 31 32  2  0  0  0
 32 33  1  0  0  0
 33 34  2  0  0  0
 34 37  1  0  0  0
 37 38  1  0  0  0
 38 39  1  0  0  0
 39 40  1  0  0  0
 40 41  1  0  0  0
 41 42  1  0  0  0
 42 43  1  0  0  0
 43 44  1  0  0  0
 34 35  1  0  0  0
 35 36  2  0  0  0
  4  5  1  0  0  0
  5  6  2  0  0  0
 22 23  1  0  0  0
 23 24  1  0  0  0
 24 19  1  0  0  0
 15  7  1  0  0  0
  6  1  1  0  0  0
 14 10  1  0  0  0
 36 31  1  0  0  0
 44 40  1  0  0  0
 11 16  1  0  0  0
 25 29  1  0  0  0
 28 30  1  0  0  0
M  END
> <minimizedAffinity>
-9.30362

> <CNNscore>
0.3121708035

> <CNNaffinity>
6.1880135536

> <CNN_VS>
1.9317171574

> <CNNaffinity_variance>
0.0818276033

$$$$
[H]c1c([H])c(N([H])C(=O)N([H])c2c([H])c([H])c(-c3nc4c([H])c(C([H])([H])N5C([H])([H])C([H])([H])N(C([H])([H])[H])C([H])([H])C5([H])[H])c([H])c([H])c4n3[H])c([H])c2[H])c([H])c([H])c1OC([H])([H])C([H])([H])N1C([H])([H])C([H])([H])C([H])([H])C1([H])[H]


 44 49  0  0  0  0  0  0  0  0999 V2000
   39.2182   13.6816  -14.7214 C   0  0  0  0  0  0  0  0  0  0  0  0
   38.7890   14.7885  -14.0253 C   0  0  0  0  0  0  0  0  0  0  0  0
   37.4515   15.0277  -13.8316 C   0  0  0  0  0  0  0  0  0  0  0  0
   36.4398   14.1838  -14.3155 C   0  0  0  0  0  0  0  0  0  0  0  0
   36.8728   13.0844  -15.0066 C   0  0  0  0  0  0  0  0  0  0  0  0
   38.2421   12.8401  -15.2051 C   0  0  0  0  0  0  0  0  0  0  0  0
   45.1530   12.8588  -14.9650 C   0  0  0  0  0  0  0  0  0  0  0  0
   44.8566   12.2764  -16.1661 C   0  0  0  0  0  0  0  0  0  0  0  0
   43.5545   12.1961  -16.6205 C   0  0  0  0  0  0  0  0  0  0  0  0
   42.5306   12.7206  -15.8343 C   0  0  0  0  0  0  0  0  0  0  0  0
   41.1992   12.7951  -15.9923 N   0  0  0  0  0  0  0  0  0  0  0  0
   40.6309   13.3993  -14.9449 C   0  0  0  0  0  0  0  0  0  0  0  0
   41.6356   13.7089  -14.1135 N   0  0  0  0  0  0  0  0  0  0  0  0
   42.8111   13.3097  -14.6238 C   0  0  0  0  0  0  0  0  0  0  0  0
   44.1262   13.3693  -14.2069 C   0  0  0  0  0  0  0  0  0  0  0  0
   40.7042   12.4208  -16.8344 H   0  0  0  0  0  0  0  0  0  0  0  0
   46.5313   12.9726  -14.4162 C   0  0  0  0  0  0  0  0  0  0  0  0
   50.0302   15.9933  -16.7031 C   0  0  0  0  0  0  0  0  0  0  0  0
   49.6077   15.5966  -15.3703 N   0  0  0  0  0  0  0  0  0  0  0  0
   49.6769   14.1570  -15.1993 C   0  0  0  0  0  0  0  0  0  0  0  0
   48.4511   13.4661  -15.7353 C   0  0  0  0  0  0  0  0  0  0  0  0
   47.2320   13.9771  -15.1904 N   0  0  0  0  0  0  0  0  0  0  0  0
   47.4020   15.1454  -14.3529 C   0  0  0  0  0  0  0  0  0  0  0  0
   48.3333   16.1391  -15.0128 C   0  0  0  0  0  0  0  0  0  0  0  0
   35.0978   14.5098  -14.0374 N   0  0  0  0  0  0  0  0  0  0  0  0
   34.4790   14.5932  -12.7724 C   0  0  0  0  0  0  0  0  0  0  0  0
   35.1474   14.3503  -11.7447 O   0  0  0  0  0  0  0  0  0  0  0  0
   33.1262   14.9450  -12.6547 N   0  0  0  0  0  0  0  0  0  0  0  0
   34.4431   14.7292  -14.8628 H   0  0  0  0  0  0  0  0  0  0  0  0
   32.6334   15.1405  -13.5914 H   0  0  0  0  0  0  0  0  0  0  0  0
   32.3386   15.0711  -11.4967 C   0  0  0  0  0  0  0  0  0  0  0  0
   31.0632   14.4802  -11.5042 C   0  0  0  0  0  0  0  0  0  0  0  0
   30.3114   14.5970  -10.3532 C   0  0  0  0  0  0  0  0  0  0  0  0
   30.6926   15.2336   -9.2116 C   0  0  0  0  0  0  0  0  0  0  0  0
   31.9798   15.8099   -9.2491 C   0  0  0  0  0  0  0  0  0  0  0  0
   32.7741   15.7236  -10.3708 C   0  0  0  0  0  0  0  0  0  0  0  0
   29.9379   15.3501   -8.0797 O   0  0  0  0  0  0  0  0  0  0  0  0
   28.8251   16.1492   -7.9348 C   0  0  0  0  0  0  0  0  0  0  0  0
   27.8616   15.7576   -6.8431 C   0  0  0  0  0  0  0  0  0  0  0  0
   27.0704   14.6103   -7.1497 N   0  0  0  0  0  0  0  0  0  0  0  0
   27.5378   13.3753   -6.6135 C   0  0  0  0  0  0  0  0  0  0  0  0
   27.0666   12.2793   -7.5481 C   0  0  0  0  0  0  0  0  0  0  0  0
   26.1878   12.9990   -8.5489 C   0  0  0  0  0  0  0  0  0  0  0  0
   26.6904   14.4300   -8.5051 C   0  0  0  0  0  0  0  0  0  0  0  0
 18 19  1  0  0  0
 19 20  1  0  0  0
 20 21  1  0  0  0
 21 22  1  0  0  0
 22 17  1  0  0  0
 17  7  1  0  0  0
  7  8  2  0  0  0
  8  9  1  0  0  0
  9 10  2  0  0  0
 10 11  1  0  0  0
 11 12  1  0  0  0
 12 13  2  0  0  0
 13 14  1  0  0  0
 14 15  2  0  0  0
 12  1  1  0  0  0
  1  2  2  0  0  0
  2  3  1  0  0  0
  3  4  2  0  0  0
  4 25  1  0  0  0
 25 26  1  0  0  0
 26 27  2  0  0  0
 26 28  1  0  0  0
 28 31  1  0  0  0
 31 32  2  0  0  0
 32 33  1  0  0  0
 33 34  2  0  0  0
 34 37  1  0  0  0
 37 38  1  0  0  0
 38 39  1  0  0  0
 39 40  1  0  0  0
 40 41  1  0  0  0
 41 42  1  0  0  0
 42 43  1  0  0  0
 43 44  1  0  0  0
 34 35  1  0  0  0
 35 36  2  0  0  0
  4  5  1  0  0  0
  5  6  2  0  0  0
 22 23  1  0  0  0
 23 24  1  0  0  0
 24 19  1  0  0  0
 15  7  1  0  0  0
  6  1  1  0  0  0
 14 10  1  0  0  0
 36 31  1  0  0  0
 44 40  1  0  0  0
 11 16  1  0  0  0
 25 29  1  0  0  0
 28 30  1  0  0  0
M  END
> <minimizedAffinity>
-9.22915

> <CNNscore>
0.2812181413

> <CNNaffinity>
6.1675071716

> <CNN_VS>
1.7344149351

> <CNNaffinity_variance>
0.0585265160

$$$$
[H]c1c([H])c(N([H])C(=O)N([H])c2c([H])c([H])c(-c3nc4c([H])c(C([H])([H])N5C([H])([H])C([H])([H])N(C([H])([H])[H])C([H])([H])C5([H])[H])c([H])c([H])c4n3[H])c([H])c2[H])c([H])c([H])c1OC([H])([H])C([H])([H])N1C([H])([H])C([H])([H])C([H])([H])C1([H])[H]


 44 49  0  0  0  0  0  0  0  0999 V2000
   45.5607   13.6456  -15.2104 C   0  0  0  0  0  0  0  0  0  0  0  0
   44.2750   14.0508  -14.9333 C   0  0  0  0  0  0  0  0  0  0  0  0
   43.2022   13.4942  -15.5834 C   0  0  0  0  0  0  0  0  0  0  0  0
   43.3269   12.4922  -16.5581 C   0  0  0  0  0  0  0  0  0  0  0  0
   44.6080   12.0929  -16.8292 C   0  0  0  0  0  0  0  0  0  0  0  0
   45.7061   12.6632  -16.1638 C   0  0  0  0  0  0  0  0  0  0  0  0
   49.9160   15.9680  -11.8051 C   0  0  0  0  0  0  0  0  0  0  0  0
   50.6003   15.9951  -12.9887 C   0  0  0  0  0  0  0  0  0  0  0  0
   50.0220   15.5456  -14.1600 C   0  0  0  0  0  0  0  0  0  0  0  0
   48.7175   15.0572  -14.1258 C   0  0  0  0  0  0  0  0  0  0  0  0
   47.8989   14.5606  -15.0675 N   0  0  0  0  0  0  0  0  0  0  0  0
   46.7214   14.2169  -14.5383 C   0  0  0  0  0  0  0  0  0  0  0  0
   46.8098   14.5075  -13.2328 N   0  0  0  0  0  0  0  0  0  0  0  0
   48.0150   15.0228  -12.9441 C   0  0  0  0  0  0  0  0  0  0  0  0
   48.6302   15.4819  -11.7962 C   0  0  0  0  0  0  0  0  0  0  0  0
   48.1766   14.4688  -16.0719 H   0  0  0  0  0  0  0  0  0  0  0  0
   50.4817   16.4314  -10.5093 C   0  0  0  0  0  0  0  0  0  0  0  0
   50.3792   21.4612   -9.3743 C   0  0  0  0  0  0  0  0  0  0  0  0
   50.4401   20.1730   -8.7041 N   0  0  0  0  0  0  0  0  0  0  0  0
   51.5882   19.4013   -9.1431 C   0  0  0  0  0  0  0  0  0  0  0  0
   51.3130   18.6610  -10.4251 C   0  0  0  0  0  0  0  0  0  0  0  0
   50.1487   17.8337  -10.3599 N   0  0  0  0  0  0  0  0  0  0  0  0
   49.3852   17.9818   -9.1391 C   0  0  0  0  0  0  0  0  0  0  0  0
   49.2119   19.4457   -8.7971 C   0  0  0  0  0  0  0  0  0  0  0  0
   42.1570   11.9714  -17.1453 N   0  0  0  0  0  0  0  0  0  0  0  0
   40.8394   12.0475  -16.6470 C   0  0  0  0  0  0  0  0  0  0  0  0
   40.6270   12.6227  -15.5580 O   0  0  0  0  0  0  0  0  0  0  0  0
   39.7677   11.4870  -17.3577 N   0  0  0  0  0  0  0  0  0  0  0  0
   42.2431   11.4529  -18.0842 H   0  0  0  0  0  0  0  0  0  0  0  0
   40.0453   11.0174  -18.2856 H   0  0  0  0  0  0  0  0  0  0  0  0
   38.4019   11.4534  -17.0250 C   0  0  0  0  0  0  0  0  0  0  0  0
   37.9924   12.1388  -15.8681 C   0  0  0  0  0  0  0  0  0  0  0  0
   36.6462   12.1115  -15.5668 C   0  0  0  0  0  0  0  0  0  0  0  0
   35.6792   11.4801  -16.2879 C   0  0  0  0  0  0  0  0  0  0  0  0
   36.1357   10.8071  -17.4407 C   0  0  0  0  0  0  0  0  0  0  0  0
   37.4678   10.8015  -17.7902 C   0  0  0  0  0  0  0  0  0  0  0  0
   34.3499   11.4529  -15.9771 O   0  0  0  0  0  0  0  0  0  0  0  0
   33.8011   11.8051  -14.7636 C   0  0  0  0  0  0  0  0  0  0  0  0
   33.6113   13.2813  -14.5218 C   0  0  0  0  0  0  0  0  0  0  0  0
   34.0308   13.7175  -13.2295 N   0  0  0  0  0  0  0  0  0  0  0  0
   33.1229   14.5733  -12.5407 C   0  0  0  0  0  0  0  0  0  0  0  0
   33.9500   15.4497  -11.6217 C   0  0  0  0  0  0  0  0  0  0  0  0
   35.3560   14.9053  -11.7577 C   0  0  0  0  0  0  0  0  0  0  0  0
   35.3498   14.2288  -13.1159 C   0  0  0  0  0  0  0  0  0  0  0  0
 18 19  1  0  0  0
 19 20  1  0  0  0
 20 21  1  0  0  0
 21 22  1  0  0  0
 22 17  1  0  0  0
 17  7  1  0  0  0
  7  8  2  0  0  0
  8  9  1  0  0  0
  9 10  2  0  0  0
 10 11  1  0  0  0
 11 12  1  0  0  0
 12 13  2  0  0  0
 13 14  1  0  0  0
 14 15  2  0  0  0
 12  1  1  0  0  0
  1  2  2  0  0  0
  2  3  1  0  0  0
  3  4  2  0  0  0
  4 25  1  0  0  0
 25 26  1  0  0  0
 26 27  2  0  0  0
 26 28  1  0  0  0
 28 31  1  0  0  0
 31 32  2  0  0  0
 32 33  1  0  0  0
 33 34  2  0  0  0
 34 37  1  0  0  0
 37 38  1  0  0  0
 38 39  1  0  0  0
 39 40  1  0  0  0
 40 41  1  0  0  0
 41 42  1  0  0  0
 42 43  1  0  0  0
 43 44  1  0  0  0
 34 35  1  0  0  0
 35 36  2  0  0  0
  4  5  1  0  0  0
  5  6  2  0  0  0
 22 23  1  0  0  0
 23 24  1  0  0  0
 24 19  1  0  0  0
 15  7  1  0  0  0
  6  1  1  0  0  0
 14 10  1  0  0  0
 36 31  1  0  0  0
 44 40  1  0  0  0
 11 16  1  0  0  0
 25 29  1  0  0  0
 28 30  1  0  0  0
M  END
> <minimizedAffinity>
-7.71998

> <CNNscore>
0.2810123265

> <CNNaffinity>
6.5164709091

> <CNN_VS>
1.8312087059

> <CNNaffinity_variance>
0.1701210737

$$$$
[H]c1c([H])c(N([H])C(=O)N([H])c2c([H])c([H])c(-c3nc4c([H])c(C([H])([H])N5C([H])([H])C([H])([H])N(C([H])([H])[H])C([H])([H])C5([H])[H])c([H])c([H])c4n3[H])c([H])c2[H])c([H])c([H])c1OC([H])([H])C([H])([H])N1C([H])([H])C([H])([H])C([H])([H])C1([H])[H]


 44 49  0  0  0  0  0  0  0  0999 V2000
   39.1180   13.3896  -14.8946 C   0  0  0  0  0  0  0  0  0  0  0  0
   38.5903   14.4951  -14.2673 C   0  0  0  0  0  0  0  0  0  0  0  0
   37.2368   14.6238  -14.0805 C   0  0  0  0  0  0  0  0  0  0  0  0
   36.3057   13.6625  -14.5032 C   0  0  0  0  0  0  0  0  0  0  0  0
   36.8364   12.5651  -15.1260 C   0  0  0  0  0  0  0  0  0  0  0  0
   38.2221   12.4338  -15.3175 C   0  0  0  0  0  0  0  0  0  0  0  0
   45.1037   13.1358  -15.1505 C   0  0  0  0  0  0  0  0  0  0  0  0
   44.8591   12.3799  -16.2635 C   0  0  0  0  0  0  0  0  0  0  0  0
   43.5685   12.1141  -16.6784 C   0  0  0  0  0  0  0  0  0  0  0  0
   42.5025   12.6293  -15.9438 C   0  0  0  0  0  0  0  0  0  0  0  0
   41.1693   12.5508  -16.0836 N   0  0  0  0  0  0  0  0  0  0  0  0
   40.5504   13.2230  -15.1089 C   0  0  0  0  0  0  0  0  0  0  0  0
   41.5245   13.7332  -14.3427 N   0  0  0  0  0  0  0  0  0  0  0  0
   42.7307   13.3915  -14.8221 C   0  0  0  0  0  0  0  0  0  0  0  0
   44.0360   13.6334  -14.4420 C   0  0  0  0  0  0  0  0  0  0  0  0
   40.7087   12.0259  -16.8625 H   0  0  0  0  0  0  0  0  0  0  0  0
   46.4673   13.4542  -14.6476 C   0  0  0  0  0  0  0  0  0  0  0  0
   47.8916   10.0663  -11.0294 C   0  0  0  0  0  0  0  0  0  0  0  0
   48.2149   11.4092  -11.4815 N   0  0  0  0  0  0  0  0  0  0  0  0
   47.0477   12.2714  -11.4577 C   0  0  0  0  0  0  0  0  0  0  0  0
   46.2059   12.1149  -12.6963 C   0  0  0  0  0  0  0  0  0  0  0  0
   46.9431   12.3034  -13.9068 N   0  0  0  0  0  0  0  0  0  0  0  0
   48.3692   12.4578  -13.7132 C   0  0  0  0  0  0  0  0  0  0  0  0
   48.8878   11.4178  -12.7438 C   0  0  0  0  0  0  0  0  0  0  0  0
   34.9398   13.8825  -14.2377 N   0  0  0  0  0  0  0  0  0  0  0  0
   34.3553   14.2750  -13.0152 C   0  0  0  0  0  0  0  0  0  0  0  0
   35.0837   14.4528  -12.0154 O   0  0  0  0  0  0  0  0  0  0  0  0
   32.9699   14.4679  -12.9090 N   0  0  0  0  0  0  0  0  0  0  0  0
   34.2347   13.7473  -15.0392 H   0  0  0  0  0  0  0  0  0  0  0  0
   32.4248   14.2965  -13.8212 H   0  0  0  0  0  0  0  0  0  0  0  0
   32.2089   14.8454  -11.7885 C   0  0  0  0  0  0  0  0  0  0  0  0
   30.8858   14.3779  -11.7074 C   0  0  0  0  0  0  0  0  0  0  0  0
   30.1595   14.7420  -10.5922 C   0  0  0  0  0  0  0  0  0  0  0  0
   30.6080   15.5139   -9.5642 C   0  0  0  0  0  0  0  0  0  0  0  0
   31.9411   15.9589   -9.6874 C   0  0  0  0  0  0  0  0  0  0  0  0
   32.7128   15.6257  -10.7783 C   0  0  0  0  0  0  0  0  0  0  0  0
   29.8786   15.8749   -8.4678 O   0  0  0  0  0  0  0  0  0  0  0  0
   29.9578   15.2914   -7.2225 C   0  0  0  0  0  0  0  0  0  0  0  0
   30.6047   16.1176   -6.1397 C   0  0  0  0  0  0  0  0  0  0  0  0
   31.7234   15.4873   -5.5172 N   0  0  0  0  0  0  0  0  0  0  0  0
   32.7812   16.3562   -5.1205 C   0  0  0  0  0  0  0  0  0  0  0  0
   34.0606   15.5450   -5.1620 C   0  0  0  0  0  0  0  0  0  0  0  0
   33.5965   14.1373   -5.4696 C   0  0  0  0  0  0  0  0  0  0  0  0
   32.2609   14.3419   -6.1601 C   0  0  0  0  0  0  0  0  0  0  0  0
 18 19  1  0  0  0
 19 20  1  0  0  0
 20 21  1  0  0  0
 21 22  1  0  0  0
 22 17  1  0  0  0
 17  7  1  0  0  0
  7  8  2  0  0  0
  8  9  1  0  0  0
  9 10  2  0  0  0
 10 11  1  0  0  0
 11 12  1  0  0  0
 12 13  2  0  0  0
 13 14  1  0  0  0
 14 15  2  0  0  0
 12  1  1  0  0  0
  1  2  2  0  0  0
  2  3  1  0  0  0
  3  4  2  0  0  0
  4 25  1  0  0  0
 25 26  1  0  0  0
 26 27  2  0  0  0
 26 28  1  0  0  0
 28 31  1  0  0  0
 31 32  2  0  0  0
 32 33  1  0  0  0
 33 34  2  0  0  0
 34 37  1  0  0  0
 37 38  1  0  0  0
 38 39  1  0  0  0
 39 40  1  0  0  0
 40 41  1  0  0  0
 41 42  1  0  0  0
 42 43  1  0  0  0
 43 44  1  0  0  0
 34 35  1  0  0  0
 35 36  2  0  0  0
  4  5  1  0  0  0
  5  6  2  0  0  0
 22 23  1  0  0  0
 23 24  1  0  0  0
 24 19  1  0  0  0
 15  7  1  0  0  0
  6  1  1  0  0  0
 14 10  1  0  0  0
 36 31  1  0  0  0
 44 40  1  0  0  0
 11 16  1  0  0  0
 25 29  1  0  0  0
 28 30  1  0  0  0
M  END
> <minimizedAffinity>
-9.39522

> <CNNscore>
0.2676350474

> <CNNaffinity>
6.2682619095

> <CNN_VS>
1.6776065826

> <CNNaffinity_variance>
0.1492189914

$$$$
[H]C1=C(c2c([H])nn3c([H])c(-c4c([H])c([H])c(C([H])([H])N5C([H])([H])C([H])([H])N(C([H])([H])[H])C([H])([H])C5([H])[H])c([H])c4[H])c([H])nc23)C([H])([H])N([H])C1([H])[H]


 29 33  0  0  0  0  0  0  0  0999 V2000
   42.7501   13.0138  -15.7309 C   0  0  0  0  0  0  0  0  0  0  0  0
   41.6909   13.2325  -14.8771 C   0  0  0  0  0  0  0  0  0  0  0  0
   40.4543   12.8482  -15.2290 N   0  0  0  0  0  0  0  0  0  0  0  0
   40.1954   12.2452  -16.4038 C   0  0  0  0  0  0  0  0  0  0  0  0
   39.0159   11.7787  -16.9478 C   0  0  0  0  0  0  0  0  0  0  0  0
   39.3759   11.2597  -18.1739 C   0  0  0  0  0  0  0  0  0  0  0  0
   40.6951   11.4212  -18.3242 N   0  0  0  0  0  0  0  0  0  0  0  0
   41.2088   12.0171  -17.2606 N   0  0  0  0  0  0  0  0  0  0  0  0
   42.4683   12.4009  -16.9185 C   0  0  0  0  0  0  0  0  0  0  0  0
   46.7519   14.2165  -14.7222 C   0  0  0  0  0  0  0  0  0  0  0  0
   45.6515   14.9984  -14.4255 C   0  0  0  0  0  0  0  0  0  0  0  0
   44.3661   14.6150  -14.7482 C   0  0  0  0  0  0  0  0  0  0  0  0
   44.1137   13.4115  -15.3936 C   0  0  0  0  0  0  0  0  0  0  0  0
   45.2098   12.6303  -15.6905 C   0  0  0  0  0  0  0  0  0  0  0  0
   46.4932   13.0220  -15.3637 C   0  0  0  0  0  0  0  0  0  0  0  0
   48.1317   14.6362  -14.3696 C   0  0  0  0  0  0  0  0  0  0  0  0
   46.4368   18.4648  -12.6595 C   0  0  0  0  0  0  0  0  0  0  0  0
   47.7080   17.9892  -12.1860 N   0  0  0  0  0  0  0  0  0  0  0  0
   48.7670   18.0874  -13.1268 C   0  0  0  0  0  0  0  0  0  0  0  0
   48.9553   16.8884  -14.0050 C   0  0  0  0  0  0  0  0  0  0  0  0
   48.2265   15.7720  -13.5512 N   0  0  0  0  0  0  0  0  0  0  0  0
   48.1168   15.5670  -12.1549 C   0  0  0  0  0  0  0  0  0  0  0  0
   47.6551   16.7953  -11.4177 C   0  0  0  0  0  0  0  0  0  0  0  0
   37.6642   11.8110  -16.3795 C   0  0  0  0  0  0  0  0  0  0  0  0
   36.5246   11.5066  -16.9717 C   0  0  0  0  0  0  0  0  0  0  0  0
   35.3986   11.6801  -16.0234 C   0  0  0  0  0  0  0  0  0  0  0  0
   35.9424   12.5497  -15.0178 N   0  0  0  0  0  0  0  0  0  0  0  0
   37.3637   12.2182  -14.9761 C   0  0  0  0  0  0  0  0  0  0  0  0
   35.5139   12.3538  -14.0846 H   0  0  0  0  0  0  0  0  0  0  0  0
 17 18  1  0  0  0
 18 19  1  0  0  0
 19 20  1  0  0  0
 20 21  1  0  0  0
 21 16  1  0  0  0
 16 10  1  0  0  0
 10 11  2  0  0  0
 11 12  1  0  0  0
 12 13  2  0  0  0
 13 14  1  0  0  0
 14 15  2  0  0  0
 13  1  1  0  0  0
  1  2  1  0  0  0
  2  3  2  0  0  0
  3  4  1  0  0  0
  4  5  2  0  0  0
  5  6  1  0  0  0
  6  7  2  0  0  0
  7  8  1  0  0  0
  8  9  1  0  0  0
  5 24  1  0  0  0
 24 25  2  0  0  0
 25 26  1  0  0  0
 26 27  1  0  0  0
 27 28  1  0  0  0
 21 22  1  0  0  0
 22 23  1  0  0  0
 23 18  1  0  0  0
 15 10  1  0  0  0
  9  1  2  0  0  0
 28 24  1  0  0  0
  8  4  1  0  0  0
 27 29  1  0  0  0
M  END
> <minimizedAffinity>
-7.36746

> <CNNscore>
0.6988214850

> <CNNaffinity>
6.5579490662

> <CNN_VS>
4.5828356743

> <CNNaffinity_variance>
0.4157013297

$$$$
[H]C1=C(c2c([H])nn3c([H])c(-c4c([H])c([H])c(C([H])([H])N5C([H])([H])C([H])([H])N(C([H])([H])[H])C([H])([H])C5([H])[H])c([H])c4[H])c([H])nc23)C([H])([H])N([H])C1([H])[H]


 29 33  0  0  0  0  0  0  0  0999 V2000
   40.5917   12.7407  -15.6195 C   0  0  0  0  0  0  0  0  0  0  0  0
   39.5791   13.1666  -14.7876 C   0  0  0  0  0  0  0  0  0  0  0  0
   38.3094   12.8133  -15.0398 N   0  0  0  0  0  0  0  0  0  0  0  0
   37.9720   12.0447  -16.0916 C   0  0  0  0  0  0  0  0  0  0  0  0
   36.7473   11.5752  -16.5211 C   0  0  0  0  0  0  0  0  0  0  0  0
   37.0306   10.8395  -17.6528 C   0  0  0  0  0  0  0  0  0  0  0  0
   38.3510   10.8858  -17.8607 N   0  0  0  0  0  0  0  0  0  0  0  0
   38.9382   11.6121  -16.9238 N   0  0  0  0  0  0  0  0  0  0  0  0
   40.2304   11.9618  -16.6816 C   0  0  0  0  0  0  0  0  0  0  0  0
   44.6955   13.7985  -14.9000 C   0  0  0  0  0  0  0  0  0  0  0  0
   43.7142   13.9617  -13.9404 C   0  0  0  0  0  0  0  0  0  0  0  0
   42.3965   13.6233  -14.1686 C   0  0  0  0  0  0  0  0  0  0  0  0
   41.9884   13.0964  -15.3870 C   0  0  0  0  0  0  0  0  0  0  0  0
   42.9654   12.9329  -16.3454 C   0  0  0  0  0  0  0  0  0  0  0  0
   44.2824   13.2745  -16.1083 C   0  0  0  0  0  0  0  0  0  0  0  0
   46.1119   14.1639  -14.6452 C   0  0  0  0  0  0  0  0  0  0  0  0
   44.7637   17.2887  -11.6663 C   0  0  0  0  0  0  0  0  0  0  0  0
   46.0793   17.3873  -12.2371 N   0  0  0  0  0  0  0  0  0  0  0  0
   46.1054   17.7405  -13.6122 C   0  0  0  0  0  0  0  0  0  0  0  0
   46.0760   16.5881  -14.5689 C   0  0  0  0  0  0  0  0  0  0  0  0
   46.3085   15.3548  -13.9297 N   0  0  0  0  0  0  0  0  0  0  0  0
   47.2429   15.3176  -12.8672 C   0  0  0  0  0  0  0  0  0  0  0  0
   46.9898   16.3763  -11.8278 C   0  0  0  0  0  0  0  0  0  0  0  0
   35.4213   11.7903  -15.9323 C   0  0  0  0  0  0  0  0  0  0  0  0
   35.0804   12.6419  -14.9832 C   0  0  0  0  0  0  0  0  0  0  0  0
   33.6314   12.5244  -14.6937 C   0  0  0  0  0  0  0  0  0  0  0  0
   33.2935   11.2277  -15.2109 N   0  0  0  0  0  0  0  0  0  0  0  0
   34.2006   11.0352  -16.3387 C   0  0  0  0  0  0  0  0  0  0  0  0
   32.3061   11.2092  -15.5541 H   0  0  0  0  0  0  0  0  0  0  0  0
 17 18  1  0  0  0
 18 19  1  0  0  0
 19 20  1  0  0  0
 20 21  1  0  0  0
 21 16  1  0  0  0
 16 10  1  0  0  0
 10 11  2  0  0  0
 11 12  1  0  0  0
 12 13  2  0  0  0
 13 14  1  0  0  0
 14 15  2  0  0  0
 13  1  1  0  0  0
  1  2  1  0  0  0
  2  3  2  0  0  0
  3  4  1  0  0  0
  4  5  2  0  0  0
  5  6  1  0  0  0
  6  7  2  0  0  0
  7  8  1  0  0  0
  8  9  1  0  0  0
  5 24  1  0  0  0
 24 25  2  0  0  0
 25 26  1  0  0  0
 26 27  1  0  0  0
 27 28  1  0  0  0
 21 22  1  0  0  0
 22 23  1  0  0  0
 23 18  1  0  0  0
 15 10  1  0  0  0
  9  1  2  0  0  0
 28 24  1  0  0  0
  8  4  1  0  0  0
 27 29  1  0  0  0
M  END
> <minimizedAffinity>
-8.73071

> <CNNscore>
0.6067318320

> <CNNaffinity>
6.6326355934

> <CNN_VS>
4.0242309570

> <CNNaffinity_variance>
0.1698273271

$$$$
[H]C1=C(c2c([H])nn3c([H])c(-c4c([H])c([H])c(C([H])([H])N5C([H])([H])C([H])([H])N(C([H])([H])[H])C([H])([H])C5([H])[H])c([H])c4[H])c([H])nc23)C([H])([H])N([H])C1([H])[H]


 29 33  0  0  0  0  0  0  0  0999 V2000
   40.5523   12.4774  -16.0142 C   0  0  0  0  0  0  0  0  0  0  0  0
   39.7065   13.1104  -15.1295 C   0  0  0  0  0  0  0  0  0  0  0  0
   38.3803   12.9270  -15.2202 N   0  0  0  0  0  0  0  0  0  0  0  0
   37.8260   12.1353  -16.1565 C   0  0  0  0  0  0  0  0  0  0  0  0
   36.5084   11.8167  -16.4162 C   0  0  0  0  0  0  0  0  0  0  0  0
   36.5606   10.9607  -17.4964 C   0  0  0  0  0  0  0  0  0  0  0  0
   37.8435   10.7976  -17.8379 N   0  0  0  0  0  0  0  0  0  0  0  0
   38.6251   11.5023  -17.0362 N   0  0  0  0  0  0  0  0  0  0  0  0
   39.9718   11.6781  -16.9574 C   0  0  0  0  0  0  0  0  0  0  0  0
   44.8158   12.9867  -15.8121 C   0  0  0  0  0  0  0  0  0  0  0  0
   43.9595   13.5839  -14.9064 C   0  0  0  0  0  0  0  0  0  0  0  0
   42.5908   13.4223  -14.9689 C   0  0  0  0  0  0  0  0  0  0  0  0
   42.0015   12.6430  -15.9560 C   0  0  0  0  0  0  0  0  0  0  0  0
   42.8538   12.0467  -16.8603 C   0  0  0  0  0  0  0  0  0  0  0  0
   44.2229   12.2139  -16.7901 C   0  0  0  0  0  0  0  0  0  0  0  0
   46.2879   13.1647  -15.7363 C   0  0  0  0  0  0  0  0  0  0  0  0
   45.6900   15.1180  -11.7011 C   0  0  0  0  0  0  0  0  0  0  0  0
   46.9914   14.6176  -12.0506 N   0  0  0  0  0  0  0  0  0  0  0  0
   47.6614   15.3581  -13.0602 C   0  0  0  0  0  0  0  0  0  0  0  0
   47.4102   14.8980  -14.4636 C   0  0  0  0  0  0  0  0  0  0  0  0
   46.7757   13.6414  -14.5101 N   0  0  0  0  0  0  0  0  0  0  0  0
   47.1383   12.6726  -13.5440 C   0  0  0  0  0  0  0  0  0  0  0  0
   47.0887   13.2027  -12.1363 C   0  0  0  0  0  0  0  0  0  0  0  0
   35.2982   12.2684  -15.7215 C   0  0  0  0  0  0  0  0  0  0  0  0
   35.1473   13.3354  -14.9594 C   0  0  0  0  0  0  0  0  0  0  0  0
   33.7539   13.4078  -14.4592 C   0  0  0  0  0  0  0  0  0  0  0  0
   33.2762   12.0617  -14.6111 N   0  0  0  0  0  0  0  0  0  0  0  0
   33.9933   11.5473  -15.7742 C   0  0  0  0  0  0  0  0  0  0  0  0
   32.2490   12.0506  -14.8052 H   0  0  0  0  0  0  0  0  0  0  0  0
 17 18  1  0  0  0
 18 19  1  0  0  0
 19 20  1  0  0  0
 20 21  1  0  0  0
 21 16  1  0  0  0
 16 10  1  0  0  0
 10 11  2  0  0  0
 11 12  1  0  0  0
 12 13  2  0  0  0
 13 14  1  0  0  0
 14 15  2  0  0  0
 13  1  1  0  0  0
  1  2  1  0  0  0
  2  3  2  0  0  0
  3  4  1  0  0  0
  4  5  2  0  0  0
  5  6  1  0  0  0
  6  7  2  0  0  0
  7  8  1  0  0  0
  8  9  1  0  0  0
  5 24  1  0  0  0
 24 25  2  0  0  0
 25 26  1  0  0  0
 26 27  1  0  0  0
 27 28  1  0  0  0
 21 22  1  0  0  0
 22 23  1  0  0  0
 23 18  1  0  0  0
 15 10  1  0  0  0
  9  1  2  0  0  0
 28 24  1  0  0  0
  8  4  1  0  0  0
 27 29  1  0  0  0
M  END
> <minimizedAffinity>
-8.58939

> <CNNscore>
0.4667177498

> <CNNaffinity>
6.6195249557

> <CNN_VS>
3.0894498825

> <CNNaffinity_variance>
0.1095230728

$$$$
[H]C1=C(c2c([H])nn3c([H])c(-c4c([H])c([H])c(C([H])([H])N5C([H])([H])C([H])([H])N(C([H])([H])[H])C([H])([H])C5([H])[H])c([H])c4[H])c([H])nc23)C([H])([H])N([H])C1([H])[H]


 29 33  0  0  0  0  0  0  0  0999 V2000
   41.7927   13.5033  -14.5381 C   0  0  0  0  0  0  0  0  0  0  0  0
   40.5014   13.5671  -14.0613 C   0  0  0  0  0  0  0  0  0  0  0  0
   39.4961   13.0333  -14.7719 N   0  0  0  0  0  0  0  0  0  0  0  0
   39.6956   12.4246  -15.9554 C   0  0  0  0  0  0  0  0  0  0  0  0
   38.8144   11.8203  -16.8289 C   0  0  0  0  0  0  0  0  0  0  0  0
   39.6018   11.3757  -17.8703 C   0  0  0  0  0  0  0  0  0  0  0  0
   40.8699   11.7089  -17.6062 N   0  0  0  0  0  0  0  0  0  0  0  0
   40.9459   12.3456  -16.4490 N   0  0  0  0  0  0  0  0  0  0  0  0
   41.9759   12.8820  -15.7405 C   0  0  0  0  0  0  0  0  0  0  0  0
   45.0898   15.1743  -12.3438 C   0  0  0  0  0  0  0  0  0  0  0  0
   43.7888   15.2421  -11.8823 C   0  0  0  0  0  0  0  0  0  0  0  0
   42.7287   14.7069  -12.5845 C   0  0  0  0  0  0  0  0  0  0  0  0
   42.9204   14.0671  -13.8021 C   0  0  0  0  0  0  0  0  0  0  0  0
   44.2172   13.9984  -14.2642 C   0  0  0  0  0  0  0  0  0  0  0  0
   45.2725   14.5371  -13.5545 C   0  0  0  0  0  0  0  0  0  0  0  0
   46.2251   15.7516  -11.5807 C   0  0  0  0  0  0  0  0  0  0  0  0
   47.7257   17.9058  -15.2635 C   0  0  0  0  0  0  0  0  0  0  0  0
   47.8832   18.5266  -13.9766 N   0  0  0  0  0  0  0  0  0  0  0  0
   48.8379   17.9040  -13.1296 C   0  0  0  0  0  0  0  0  0  0  0  0
   48.2968   16.8283  -12.2384 C   0  0  0  0  0  0  0  0  0  0  0  0
   46.8888   16.8201  -12.2024 N   0  0  0  0  0  0  0  0  0  0  0  0
   46.2114   18.0624  -12.2376 C   0  0  0  0  0  0  0  0  0  0  0  0
   46.6748   18.9501  -13.3612 C   0  0  0  0  0  0  0  0  0  0  0  0
   37.3605   11.6671  -16.7102 C   0  0  0  0  0  0  0  0  0  0  0  0
   36.5641   12.1537  -15.7770 C   0  0  0  0  0  0  0  0  0  0  0  0
   35.1628   11.7534  -16.0476 C   0  0  0  0  0  0  0  0  0  0  0  0
   35.3033   10.6249  -16.9249 N   0  0  0  0  0  0  0  0  0  0  0  0
   36.5262   10.8943  -17.6758 C   0  0  0  0  0  0  0  0  0  0  0  0
   34.4967   10.5652  -17.5873 H   0  0  0  0  0  0  0  0  0  0  0  0
 17 18  1  0  0  0
 18 19  1  0  0  0
 19 20  1  0  0  0
 20 21  1  0  0  0
 21 16  1  0  0  0
 16 10  1  0  0  0
 10 11  2  0  0  0
 11 12  1  0  0  0
 12 13  2  0  0  0
 13 14  1  0  0  0
 14 15  2  0  0  0
 13  1  1  0  0  0
  1  2  1  0  0  0
  2  3  2  0  0  0
  3  4  1  0  0  0
  4  5  2  0  0  0
  5  6  1  0  0  0
  6  7  2  0  0  0
  7  8  1  0  0  0
  8  9  1  0  0  0
  5 24  1  0  0  0
 24 25  2  0  0  0
 25 26  1  0  0  0
 26 27  1  0  0  0
 27 28  1  0  0  0
 21 22  1  0  0  0
 22 23  1  0  0  0
 23 18  1  0  0  0
 15 10  1  0  0  0
  9  1  2  0  0  0
 28 24  1  0  0  0
  8  4  1  0  0  0
 27 29  1  0  0  0
M  END
> <minimizedAffinity>
-7.49123

> <CNNscore>
0.4468861520

> <CNNaffinity>
6.3688445091

> <CNN_VS>
2.8461484909

> <CNNaffinity_variance>
0.6212038994

$$$$
[H]C1=C(c2c([H])nn3c([H])c(-c4c([H])c([H])c(C([H])([H])N5C([H])([H])C([H])([H])N(C([H])([H])[H])C([H])([H])C5([H])[H])c([H])c4[H])c([H])nc23)C([H])([H])N([H])C1([H])[H]


 29 33  0  0  0  0  0  0  0  0999 V2000
   40.1255   13.5645  -14.4845 C   0  0  0  0  0  0  0  0  0  0  0  0
   38.8642   13.6605  -13.9381 C   0  0  0  0  0  0  0  0  0  0  0  0
   37.8277   13.0467  -14.5294 N   0  0  0  0  0  0  0  0  0  0  0  0
   37.9667   12.3254  -15.6568 C   0  0  0  0  0  0  0  0  0  0  0  0
   37.0456   11.6266  -16.4106 C   0  0  0  0  0  0  0  0  0  0  0  0
   37.7770   11.0896  -17.4493 C   0  0  0  0  0  0  0  0  0  0  0  0
   39.0526   11.4622  -17.2977 N   0  0  0  0  0  0  0  0  0  0  0  0
   39.1864   12.2121  -16.2160 N   0  0  0  0  0  0  0  0  0  0  0  0
   40.2473   12.8285  -15.6286 C   0  0  0  0  0  0  0  0  0  0  0  0
   43.5173   15.4969  -12.6846 C   0  0  0  0  0  0  0  0  0  0  0  0
   42.2291   15.9717  -12.5247 C   0  0  0  0  0  0  0  0  0  0  0  0
   41.1388   15.3537  -13.1014 C   0  0  0  0  0  0  0  0  0  0  0  0
   41.2851   14.2121  -13.8785 C   0  0  0  0  0  0  0  0  0  0  0  0
   42.5690   13.7370  -14.0393 C   0  0  0  0  0  0  0  0  0  0  0  0
   43.6547   14.3621  -13.4583 C   0  0  0  0  0  0  0  0  0  0  0  0
   44.6849   16.1674  -12.0589 C   0  0  0  0  0  0  0  0  0  0  0  0
   47.3204   13.6265  -14.7147 C   0  0  0  0  0  0  0  0  0  0  0  0
   47.8950   14.7516  -14.0290 N   0  0  0  0  0  0  0  0  0  0  0  0
   48.0115   14.5941  -12.6226 C   0  0  0  0  0  0  0  0  0  0  0  0
   46.8314   15.0619  -11.8270 C   0  0  0  0  0  0  0  0  0  0  0  0
   45.9355   15.8283  -12.5973 N   0  0  0  0  0  0  0  0  0  0  0  0
   46.4706   16.7010  -13.5748 C   0  0  0  0  0  0  0  0  0  0  0  0
   47.4569   16.0230  -14.4875 C   0  0  0  0  0  0  0  0  0  0  0  0
   35.6044   11.4690  -16.1884 C   0  0  0  0  0  0  0  0  0  0  0  0
   34.7214   10.8711  -16.9662 C   0  0  0  0  0  0  0  0  0  0  0  0
   33.3738   10.9455  -16.3532 C   0  0  0  0  0  0  0  0  0  0  0  0
   33.4929   12.0309  -15.4201 N   0  0  0  0  0  0  0  0  0  0  0  0
   34.8876   11.9929  -14.9896 C   0  0  0  0  0  0  0  0  0  0  0  0
   32.8713   11.8811  -14.5930 H   0  0  0  0  0  0  0  0  0  0  0  0
 17 18  1  0  0  0
 18 19  1  0  0  0
 19 20  1  0  0  0
 20 21  1  0  0  0
 21 16  1  0  0  0
 16 10  1  0  0  0
 10 11  2  0  0  0
 11 12  1  0  0  0
 12 13  2  0  0  0
 13 14  1  0  0  0
 14 15  2  0  0  0
 13  1  1  0  0  0
  1  2  1  0  0  0
  2  3  2  0  0  0
  3  4  1  0  0  0
  4  5  2  0  0  0
  5  6  1  0  0  0
  6  7  2  0  0  0
  7  8  1  0  0  0
  8  9  1  0  0  0
  5 24  1  0  0  0
 24 25  2  0  0  0
 25 26  1  0  0  0
 26 27  1  0  0  0
 27 28  1  0  0  0
 21 22  1  0  0  0
 22 23  1  0  0  0
 23 18  1  0  0  0
 15 10  1  0  0  0
  9  1  2  0  0  0
 28 24  1  0  0  0
  8  4  1  0  0  0
 27 29  1  0  0  0
M  END
> <minimizedAffinity>
-7.95776

> <CNNscore>
0.4406546950

> <CNNaffinity>
6.4121627808

> <CNN_VS>
2.8255496025

> <CNNaffinity_variance>
0.4869755208

$$$$
[H]C1=C(c2c([H])nn3c([H])c(-c4c([H])c([H])c(C([H])([H])N5C([H])([H])C([H])([H])N(C([H])([H])[H])C([H])([H])C5([H])[H])c([H])c4[H])c([H])nc23)C([H])([H])N([H])C1([H])[H]


 29 33  0  0  0  0  0  0  0  0999 V2000
   40.2355   13.4224  -14.5792 C   0  0  0  0  0  0  0  0  0  0  0  0
   38.9962   13.5442  -13.9895 C   0  0  0  0  0  0  0  0  0  0  0  0
   37.9244   12.9663  -14.5536 N   0  0  0  0  0  0  0  0  0  0  0  0
   38.0064   12.2574  -15.6944 C   0  0  0  0  0  0  0  0  0  0  0  0
   37.0422   11.5939  -16.4258 C   0  0  0  0  0  0  0  0  0  0  0  0
   37.7239   11.0522  -17.4954 C   0  0  0  0  0  0  0  0  0  0  0  0
   39.0134   11.3888  -17.3820 N   0  0  0  0  0  0  0  0  0  0  0  0
   39.2033   12.1196  -16.2957 N   0  0  0  0  0  0  0  0  0  0  0  0
   40.2994   12.6995  -15.7363 C   0  0  0  0  0  0  0  0  0  0  0  0
   43.7361   15.2381  -12.8682 C   0  0  0  0  0  0  0  0  0  0  0  0
   42.4635   15.7188  -12.6239 C   0  0  0  0  0  0  0  0  0  0  0  0
   41.3383   15.1383  -13.1718 C   0  0  0  0  0  0  0  0  0  0  0  0
   41.4317   14.0305  -14.0042 C   0  0  0  0  0  0  0  0  0  0  0  0
   42.7000   13.5495  -14.2491 C   0  0  0  0  0  0  0  0  0  0  0  0
   43.8209   14.1371  -13.6963 C   0  0  0  0  0  0  0  0  0  0  0  0
   44.9415   15.8682  -12.2729 C   0  0  0  0  0  0  0  0  0  0  0  0
   42.7444   16.2728   -8.3403 C   0  0  0  0  0  0  0  0  0  0  0  0
   44.1775   16.1616   -8.3333 N   0  0  0  0  0  0  0  0  0  0  0  0
   44.8642   17.2981   -8.8365 C   0  0  0  0  0  0  0  0  0  0  0  0
   45.1445   17.2759  -10.3080 C   0  0  0  0  0  0  0  0  0  0  0  0
   44.9228   16.0067  -10.8767 N   0  0  0  0  0  0  0  0  0  0  0  0
   45.2623   14.8633  -10.1144 C   0  0  0  0  0  0  0  0  0  0  0  0
   44.6843   14.8934   -8.7251 C   0  0  0  0  0  0  0  0  0  0  0  0
   35.6055   11.4714  -16.1573 C   0  0  0  0  0  0  0  0  0  0  0  0
   34.6872   10.8762  -16.8953 C   0  0  0  0  0  0  0  0  0  0  0  0
   33.3607   10.9918  -16.2442 C   0  0  0  0  0  0  0  0  0  0  0  0
   33.5302   12.0937  -15.3386 N   0  0  0  0  0  0  0  0  0  0  0  0
   34.9362   12.0352  -14.9492 C   0  0  0  0  0  0  0  0  0  0  0  0
   32.9310   11.9744  -14.4903 H   0  0  0  0  0  0  0  0  0  0  0  0
 17 18  1  0  0  0
 18 19  1  0  0  0
 19 20  1  0  0  0
 20 21  1  0  0  0
 21 16  1  0  0  0
 16 10  1  0  0  0
 10 11  2  0  0  0
 11 12  1  0  0  0
 12 13  2  0  0  0
 13 14  1  0  0  0
 14 15  2  0  0  0
 13  1  1  0  0  0
  1  2  1  0  0  0
  2  3  2  0  0  0
  3  4  1  0  0  0
  4  5  2  0  0  0
  5  6  1  0  0  0
  6  7  2  0  0  0
  7  8  1  0  0  0
  8  9  1  0  0  0
  5 24  1  0  0  0
 24 25  2  0  0  0
 25 26  1  0  0  0
 26 27  1  0  0  0
 27 28  1  0  0  0
 21 22  1  0  0  0
 22 23  1  0  0  0
 23 18  1  0  0  0
 15 10  1  0  0  0
  9  1  2  0  0  0
 28 24  1  0  0  0
  8  4  1  0  0  0
 27 29  1  0  0  0
M  END
> <minimizedAffinity>
-7.92771

> <CNNscore>
0.4160991013

> <CNNaffinity>
6.3412170410

> <CNN_VS>
2.6385746002

> <CNNaffinity_variance>
0.3439556956

$$$$
[H]C1=C(c2c([H])nn3c([H])c(-c4c([H])c([H])c(C([H])([H])N5C([H])([H])C([H])([H])N(C([H])([H])[H])C([H])([H])C5([H])[H])c([H])c4[H])c([H])nc23)C([H])([H])N([H])C1([H])[H]


 29 33  0  0  0  0  0  0  0  0999 V2000
   40.8866   13.3551  -14.7483 C   0  0  0  0  0  0  0  0  0  0  0  0
   39.9777   13.8209  -13.8233 C   0  0  0  0  0  0  0  0  0  0  0  0
   38.6744   13.5307  -13.9575 N   0  0  0  0  0  0  0  0  0  0  0  0
   38.2038   12.7889  -14.9768 C   0  0  0  0  0  0  0  0  0  0  0  0
   36.9232   12.3821  -15.2922 C   0  0  0  0  0  0  0  0  0  0  0  0
   37.0641   11.6444  -16.4490 C   0  0  0  0  0  0  0  0  0  0  0  0
   38.3601   11.6297  -16.7792 N   0  0  0  0  0  0  0  0  0  0  0  0
   39.0663   12.3186  -15.8978 N   0  0  0  0  0  0  0  0  0  0  0  0
   40.3908   12.6041  -15.7758 C   0  0  0  0  0  0  0  0  0  0  0  0
   45.0949   14.1904  -14.4825 C   0  0  0  0  0  0  0  0  0  0  0  0
   44.5032   13.7562  -15.6537 C   0  0  0  0  0  0  0  0  0  0  0  0
   43.1530   13.4871  -15.7418 C   0  0  0  0  0  0  0  0  0  0  0  0
   42.3144   13.6417  -14.6457 C   0  0  0  0  0  0  0  0  0  0  0  0
   42.9025   14.0747  -13.4767 C   0  0  0  0  0  0  0  0  0  0  0  0
   44.2552   14.3416  -13.3975 C   0  0  0  0  0  0  0  0  0  0  0  0
   46.5487   14.4793  -14.3971 C   0  0  0  0  0  0  0  0  0  0  0  0
   49.3659   17.4493  -12.4741 C   0  0  0  0  0  0  0  0  0  0  0  0
   48.1540   17.9266  -13.0820 N   0  0  0  0  0  0  0  0  0  0  0  0
   46.9649   17.5840  -12.3855 C   0  0  0  0  0  0  0  0  0  0  0  0
   46.3350   16.2880  -12.7950 C   0  0  0  0  0  0  0  0  0  0  0  0
   46.8826   15.7795  -13.9888 N   0  0  0  0  0  0  0  0  0  0  0  0
   47.2427   16.6977  -15.0041 C   0  0  0  0  0  0  0  0  0  0  0  0
   48.1090   17.8197  -14.4981 C   0  0  0  0  0  0  0  0  0  0  0  0
   35.6697   12.6546  -14.5810 C   0  0  0  0  0  0  0  0  0  0  0  0
   34.5799   13.2363  -15.0459 C   0  0  0  0  0  0  0  0  0  0  0  0
   33.5503   13.3070  -13.9819 C   0  0  0  0  0  0  0  0  0  0  0  0
   34.3107   13.1535  -12.7731 N   0  0  0  0  0  0  0  0  0  0  0  0
   35.4326   12.2991  -13.1518 C   0  0  0  0  0  0  0  0  0  0  0  0
   33.7452   12.6752  -12.0354 H   0  0  0  0  0  0  0  0  0  0  0  0
 17 18  1  0  0  0
 18 19  1  0  0  0
 19 20  1  0  0  0
 20 21  1  0  0  0
 21 16  1  0  0  0
 16 10  1  0  0  0
 10 11  2  0  0  0
 11 12  1  0  0  0
 12 13  2  0  0  0
 13 14  1  0  0  0
 14 15  2  0  0  0
 13  1  1  0  0  0
  1  2  1  0  0  0
  2  3  2  0  0  0
  3  4  1  0  0  0
  4  5  2  0  0  0
  5  6  1  0  0  0
  6  7  2  0  0  0
  7  8  1  0  0  0
  8  9  1  0  0  0
  5 24  1  0  0  0
 24 25  2  0  0  0
 25 26  1  0  0  0
 26 27  1  0  0  0
 27 28  1  0  0  0
 21 22  1  0  0  0
 22 23  1  0  0  0
 23 18  1  0  0  0
 15 10  1  0  0  0
  9  1  2  0  0  0
 28 24  1  0  0  0
  8  4  1  0  0  0
 27 29  1  0  0  0
M  END
> <minimizedAffinity>
-7.33265

> <CNNscore>
0.3903368413

> <CNNaffinity>
6.3253836632

> <CNN_VS>
2.4690303802

> <CNNaffinity_variance>
0.4330734313

$$$$
[H]C1=C(c2c([H])nn3c([H])c(-c4c([H])c([H])c(C([H])([H])N5C([H])([H])C([H])([H])N(C([H])([H])[H])C([H])([H])C5([H])[H])c([H])c4[H])c([H])nc23)C([H])([H])N([H])C1([H])[H]


 29 33  0  0  0  0  0  0  0  0999 V2000
   39.6850   13.1095  -15.0199 C   0  0  0  0  0  0  0  0  0  0  0  0
   39.0667   13.9633  -14.1324 C   0  0  0  0  0  0  0  0  0  0  0  0
   37.7314   13.9434  -14.0009 N   0  0  0  0  0  0  0  0  0  0  0  0
   36.9509   13.1091  -14.7119 C   0  0  0  0  0  0  0  0  0  0  0  0
   35.5822   12.9321  -14.7257 C   0  0  0  0  0  0  0  0  0  0  0  0
   35.3664   11.9359  -15.6548 C   0  0  0  0  0  0  0  0  0  0  0  0
   36.5520   11.5615  -16.1481 N   0  0  0  0  0  0  0  0  0  0  0  0
   37.5243   12.2622  -15.5878 N   0  0  0  0  0  0  0  0  0  0  0  0
   38.8769   12.2703  -15.7327 C   0  0  0  0  0  0  0  0  0  0  0  0
   43.9466   13.0401  -15.5782 C   0  0  0  0  0  0  0  0  0  0  0  0
   43.0726   12.5288  -16.5190 C   0  0  0  0  0  0  0  0  0  0  0  0
   41.7046   12.5496  -16.3424 C   0  0  0  0  0  0  0  0  0  0  0  0
   41.1338   13.0915  -15.1981 C   0  0  0  0  0  0  0  0  0  0  0  0
   42.0037   13.6019  -14.2586 C   0  0  0  0  0  0  0  0  0  0  0  0
   43.3721   13.5769  -14.4437 C   0  0  0  0  0  0  0  0  0  0  0  0
   45.4177   13.0151  -15.7773 C   0  0  0  0  0  0  0  0  0  0  0  0
   49.3671   14.1435  -13.8837 C   0  0  0  0  0  0  0  0  0  0  0  0
   48.1509   14.3622  -13.1494 N   0  0  0  0  0  0  0  0  0  0  0  0
   47.5070   13.1789  -12.7003 C   0  0  0  0  0  0  0  0  0  0  0  0
   46.5051   12.5966  -13.6498 C   0  0  0  0  0  0  0  0  0  0  0  0
   46.1809   13.4817  -14.6962 N   0  0  0  0  0  0  0  0  0  0  0  0
   46.0980   14.8638  -14.4020 C   0  0  0  0  0  0  0  0  0  0  0  0
   47.3081   15.3801  -13.6710 C   0  0  0  0  0  0  0  0  0  0  0  0
   34.5562   13.6291  -13.9429 C   0  0  0  0  0  0  0  0  0  0  0  0
   34.6941   14.2407  -12.7814 C   0  0  0  0  0  0  0  0  0  0  0  0
   33.3950   14.8109  -12.3518 C   0  0  0  0  0  0  0  0  0  0  0  0
   32.4358   14.0687  -13.1213 N   0  0  0  0  0  0  0  0  0  0  0  0
   33.1307   13.7512  -14.3655 C   0  0  0  0  0  0  0  0  0  0  0  0
   31.5958   14.6536  -13.3338 H   0  0  0  0  0  0  0  0  0  0  0  0
 17 18  1  0  0  0
 18 19  1  0  0  0
 19 20  1  0  0  0
 20 21  1  0  0  0
 21 16  1  0  0  0
 16 10  1  0  0  0
 10 11  2  0  0  0
 11 12  1  0  0  0
 12 13  2  0  0  0
 13 14  1  0  0  0
 14 15  2  0  0  0
 13  1  1  0  0  0
  1  2  1  0  0  0
  2  3  2  0  0  0
  3  4  1  0  0  0
  4  5  2  0  0  0
  5  6  1  0  0  0
  6  7  2  0  0  0
  7  8  1  0  0  0
  8  9  1  0  0  0
  5 24  1  0  0  0
 24 25  2  0  0  0
 25 26  1  0  0  0
 26 27  1  0  0  0
 27 28  1  0  0  0
 21 22  1  0  0  0
 22 23  1  0  0  0
 23 18  1  0  0  0
 15 10  1  0  0  0
  9  1  2  0  0  0
 28 24  1  0  0  0
  8  4  1  0  0  0
 27 29  1  0  0  0
M  END
> <minimizedAffinity>
-8.21091

> <CNNscore>
0.3294361830

> <CNNaffinity>
6.2556109428

> <CNN_VS>
2.0608246326

> <CNNaffinity_variance>
0.0287350379

$$$$
[H]C1=C(c2c([H])nn3c([H])c(-c4c([H])c([H])c(C([H])([H])N5C([H])([H])C([H])([H])N(C([H])([H])[H])C([H])([H])C5([H])[H])c([H])c4[H])c([H])nc23)C([H])([H])N([H])C1([H])[H]


 29 33  0  0  0  0  0  0  0  0999 V2000
   35.4689   13.7726  -13.7023 C   0  0  0  0  0  0  0  0  0  0  0  0
   36.8081   14.0964  -13.7261 C   0  0  0  0  0  0  0  0  0  0  0  0
   37.6253   13.5086  -14.6135 N   0  0  0  0  0  0  0  0  0  0  0  0
   37.1872   12.5971  -15.5012 C   0  0  0  0  0  0  0  0  0  0  0  0
   37.8512   11.8878  -16.4813 C   0  0  0  0  0  0  0  0  0  0  0  0
   36.8780   11.1078  -17.0703 C   0  0  0  0  0  0  0  0  0  0  0  0
   35.7155   11.3581  -16.4580 N   0  0  0  0  0  0  0  0  0  0  0  0
   35.8839   12.2588  -15.5038 N   0  0  0  0  0  0  0  0  0  0  0  0
   35.0425   12.8458  -14.6103 C   0  0  0  0  0  0  0  0  0  0  0  0
   32.7024   15.5623  -10.9416 C   0  0  0  0  0  0  0  0  0  0  0  0
   32.2807   14.8454  -12.0455 C   0  0  0  0  0  0  0  0  0  0  0  0
   33.1663   14.2702  -12.9332 C   0  0  0  0  0  0  0  0  0  0  0  0
   34.5392   14.3850  -12.7580 C   0  0  0  0  0  0  0  0  0  0  0  0
   34.9618   15.0996  -11.6577 C   0  0  0  0  0  0  0  0  0  0  0  0
   34.0681   15.6722  -10.7741 C   0  0  0  0  0  0  0  0  0  0  0  0
   31.7422   16.1766   -9.9903 C   0  0  0  0  0  0  0  0  0  0  0  0
   28.7469   15.2391   -6.7337 C   0  0  0  0  0  0  0  0  0  0  0  0
   29.5351   14.1725   -7.2879 N   0  0  0  0  0  0  0  0  0  0  0  0
   30.9117   14.2088   -6.9412 C   0  0  0  0  0  0  0  0  0  0  0  0
   31.7881   14.9765   -7.8828 C   0  0  0  0  0  0  0  0  0  0  0  0
   31.1333   15.2892   -9.0899 N   0  0  0  0  0  0  0  0  0  0  0  0
   30.2426   14.3337   -9.6349 C   0  0  0  0  0  0  0  0  0  0  0  0
   29.2324   13.8383   -8.6353 C   0  0  0  0  0  0  0  0  0  0  0  0
   39.2719   11.9276  -16.8436 C   0  0  0  0  0  0  0  0  0  0  0  0
   40.2534   12.5533  -16.2214 C   0  0  0  0  0  0  0  0  0  0  0  0
   41.5328   12.3238  -16.9340 C   0  0  0  0  0  0  0  0  0  0  0  0
   41.1136   11.9226  -18.2480 N   0  0  0  0  0  0  0  0  0  0  0  0
   39.8444   11.2334  -18.0334 C   0  0  0  0  0  0  0  0  0  0  0  0
   41.8008   11.2583  -18.6716 H   0  0  0  0  0  0  0  0  0  0  0  0
 17 18  1  0  0  0
 18 19  1  0  0  0
 19 20  1  0  0  0
 20 21  1  0  0  0
 21 16  1  0  0  0
 16 10  1  0  0  0
 10 11  2  0  0  0
 11 12  1  0  0  0
 12 13  2  0  0  0
 13 14  1  0  0  0
 14 15  2  0  0  0
 13  1  1  0  0  0
  1  2  1  0  0  0
  2  3  2  0  0  0
  3  4  1  0  0  0
  4  5  2  0  0  0
  5  6  1  0  0  0
  6  7  2  0  0  0
  7  8  1  0  0  0
  8  9  1  0  0  0
  5 24  1  0  0  0
 24 25  2  0  0  0
 25 26  1  0  0  0
 26 27  1  0  0  0
 27 28  1  0  0  0
 21 22  1  0  0  0
 22 23  1  0  0  0
 23 18  1  0  0  0
 15 10  1  0  0  0
  9  1  2  0  0  0
 28 24  1  0  0  0
  8  4  1  0  0  0
 27 29  1  0  0  0
M  END
> <minimizedAffinity>
-9.30088

> <CNNscore>
0.1802629530

> <CNNaffinity>
6.0975503922

> <CNN_VS>
1.0991624594

> <CNNaffinity_variance>
0.5961435437

$$$$
[H]C([H])=C([H])C(=O)N([H])c1c([H])c([H])c(N([H])C(=O)c2c([H])c([H])c(C([H])([H])N3C([H])([H])C([H])([H])C(F)(F)C([H])([H])C3([H])[H])c([H])c2[H])c([H])c1Cl


 32 34  0  0  0  0  0  0  0  0999 V2000
   42.1553   13.3672  -14.6429 C   0  0  0  0  0  0  0  0  0  0  0  0
   42.1923   12.7076  -15.7014 O   0  0  0  0  0  0  0  0  0  0  0  0
   40.9733   13.6970  -13.9984 N   0  0  0  0  0  0  0  0  0  0  0  0
   41.0421   14.2665  -13.0930 H   0  0  0  0  0  0  0  0  0  0  0  0
   39.6759   13.3526  -14.4357 C   0  0  0  0  0  0  0  0  0  0  0  0
   38.5492   13.8342  -13.8782 C   0  0  0  0  0  0  0  0  0  0  0  0
   37.2691   13.4931  -14.3520 C   0  0  0  0  0  0  0  0  0  0  0  0
   37.1390   12.6482  -15.4087 C   0  0  0  0  0  0  0  0  0  0  0  0
   38.3203   12.1508  -15.9826 C   0  0  0  0  0  0  0  0  0  0  0  0
   38.1679   11.0495  -17.3586 Cl  0  0  0  0  0  0  0  0  0  0  0  0
   39.5441   12.4769  -15.5303 C   0  0  0  0  0  0  0  0  0  0  0  0
   35.8946   12.2731  -15.9235 N   0  0  0  0  0  0  0  0  0  0  0  0
   34.7304   11.9255  -15.2281 C   0  0  0  0  0  0  0  0  0  0  0  0
   34.6330   11.8996  -13.9930 O   0  0  0  0  0  0  0  0  0  0  0  0
   35.8164   12.2467  -16.9966 H   0  0  0  0  0  0  0  0  0  0  0  0
   33.5003   11.5539  -15.9968 C   0  0  0  0  0  0  0  0  0  0  0  0
   33.6027   10.7523  -17.0214 C   0  0  0  0  0  0  0  0  0  0  0  0
   45.9502   14.6115  -13.1373 C   0  0  0  0  0  0  0  0  0  0  0  0
   44.9612   14.2361  -12.2664 C   0  0  0  0  0  0  0  0  0  0  0  0
   43.7245   13.8277  -12.7496 C   0  0  0  0  0  0  0  0  0  0  0  0
   43.4675   13.7911  -14.0963 C   0  0  0  0  0  0  0  0  0  0  0  0
   44.4773   14.1738  -14.9780 C   0  0  0  0  0  0  0  0  0  0  0  0
   45.6939   14.5748  -14.4813 C   0  0  0  0  0  0  0  0  0  0  0  0
   47.2988   15.0579  -12.6310 C   0  0  0  0  0  0  0  0  0  0  0  0
   44.8491   19.7732  -12.8133 F   0  0  0  0  0  0  0  0  0  0  0  0
   45.4052   18.5061  -12.8952 C   0  0  0  0  0  0  0  0  0  0  0  0
   44.6397   17.7673  -13.7741 F   0  0  0  0  0  0  0  0  0  0  0  0
   46.8370   18.6611  -13.4064 C   0  0  0  0  0  0  0  0  0  0  0  0
   47.3649   17.2663  -13.5903 C   0  0  0  0  0  0  0  0  0  0  0  0
   47.2802   16.4632  -12.4414 N   0  0  0  0  0  0  0  0  0  0  0  0
   46.6025   16.9574  -11.3190 C   0  0  0  0  0  0  0  0  0  0  0  0
   45.4678   17.8810  -11.5533 C   0  0  0  0  0  0  0  0  0  0  0  0
 25 26  1  0  0  0
 26 27  1  0  0  0
 26 28  1  0  0  0
 28 29  1  0  0  0
 29 30  1  0  0  0
 30 24  1  0  0  0
 24 18  1  0  0  0
 18 19  2  0  0  0
 19 20  1  0  0  0
 20 21  2  0  0  0
 21 22  1  0  0  0
 22 23  2  0  0  0
 21  1  1  0  0  0
  1  2  2  0  0  0
  1  3  1  0  0  0
  3  5  1  0  0  0
  5  6  2  0  0  0
  6  7  1  0  0  0
  7  8  2  0  0  0
  8 12  1  0  0  0
 12 13  1  0  0  0
 13 14  2  0  0  0
 13 16  1  0  0  0
 16 17  2  0  0  0
  8  9  1  0  0  0
  9 10  1  0  0  0
  9 11  2  0  0  0
 30 31  1  0  0  0
 31 32  1  0  0  0
 32 26  1  0  0  0
 23 18  1  0  0  0
 11  5  1  0  0  0
  3  4  1  0  0  0
 12 15  1  0  0  0
M  END
> <minimizedAffinity>
-7.71322

> <CNNscore>
0.2411458939

> <CNNaffinity>
5.9849638939

> <CNN_VS>
1.4432494640

> <CNNaffinity_variance>
0.0318527073

$$$$
[H]C([H])=C([H])C(=O)N([H])c1c([H])c([H])c(N([H])C(=O)c2c([H])c([H])c(C([H])([H])N3C([H])([H])C([H])([H])C(F)(F)C([H])([H])C3([H])[H])c([H])c2[H])c([H])c1Cl


 32 34  0  0  0  0  0  0  0  0999 V2000
   41.0999   14.9226  -13.4914 C   0  0  0  0  0  0  0  0  0  0  0  0
   40.2903   15.8718  -13.4728 O   0  0  0  0  0  0  0  0  0  0  0  0
   40.7616   13.6484  -13.9194 N   0  0  0  0  0  0  0  0  0  0  0  0
   41.5261   12.8973  -13.8999 H   0  0  0  0  0  0  0  0  0  0  0  0
   39.4875   13.2468  -14.3759 C   0  0  0  0  0  0  0  0  0  0  0  0
   38.3352   13.6034  -13.7781 C   0  0  0  0  0  0  0  0  0  0  0  0
   37.0777   13.2090  -14.2708 C   0  0  0  0  0  0  0  0  0  0  0  0
   36.9971   12.4397  -15.3884 C   0  0  0  0  0  0  0  0  0  0  0  0
   38.2047   12.0725  -16.0039 C   0  0  0  0  0  0  0  0  0  0  0  0
   38.1168   11.0708  -17.4593 Cl  0  0  0  0  0  0  0  0  0  0  0  0
   39.4070   12.4496  -15.5335 C   0  0  0  0  0  0  0  0  0  0  0  0
   35.7772   12.0171  -15.9247 N   0  0  0  0  0  0  0  0  0  0  0  0
   34.5659   11.7835  -15.2628 C   0  0  0  0  0  0  0  0  0  0  0  0
   34.3947   11.9256  -14.0437 O   0  0  0  0  0  0  0  0  0  0  0  0
   35.7624   11.8477  -16.9875 H   0  0  0  0  0  0  0  0  0  0  0  0
   33.3755   11.3302  -16.0498 C   0  0  0  0  0  0  0  0  0  0  0  0
   33.5556   10.7047  -17.1809 C   0  0  0  0  0  0  0  0  0  0  0  0
   45.0220   15.8626  -12.0949 C   0  0  0  0  0  0  0  0  0  0  0  0
   44.8215   14.7459  -12.8633 C   0  0  0  0  0  0  0  0  0  0  0  0
   43.5481   14.4353  -13.3233 C   0  0  0  0  0  0  0  0  0  0  0  0
   42.4727   15.2313  -13.0218 C   0  0  0  0  0  0  0  0  0  0  0  0
   42.6823   16.3664  -12.2399 C   0  0  0  0  0  0  0  0  0  0  0  0
   43.9490   16.6572  -11.7942 C   0  0  0  0  0  0  0  0  0  0  0  0
   46.3972   16.2154  -11.5865 C   0  0  0  0  0  0  0  0  0  0  0  0
   45.5236   11.9624   -8.5179 F   0  0  0  0  0  0  0  0  0  0  0  0
   45.5948   13.0761   -9.3402 C   0  0  0  0  0  0  0  0  0  0  0  0
   44.3810   13.2010   -9.9846 F   0  0  0  0  0  0  0  0  0  0  0  0
   45.8764   14.2887   -8.4539 C   0  0  0  0  0  0  0  0  0  0  0  0
   45.8324   15.4852   -9.3619 C   0  0  0  0  0  0  0  0  0  0  0  0
   46.6987   15.4028  -10.4641 N   0  0  0  0  0  0  0  0  0  0  0  0
   47.3849   14.2036  -10.6971 C   0  0  0  0  0  0  0  0  0  0  0  0
   46.7191   12.9422  -10.2961 C   0  0  0  0  0  0  0  0  0  0  0  0
 25 26  1  0  0  0
 26 27  1  0  0  0
 26 28  1  0  0  0
 28 29  1  0  0  0
 29 30  1  0  0  0
 30 24  1  0  0  0
 24 18  1  0  0  0
 18 19  2  0  0  0
 19 20  1  0  0  0
 20 21  2  0  0  0
 21 22  1  0  0  0
 22 23  2  0  0  0
 21  1  1  0  0  0
  1  2  2  0  0  0
  1  3  1  0  0  0
  3  5  1  0  0  0
  5  6  2  0  0  0
  6  7  1  0  0  0
  7  8  2  0  0  0
  8 12  1  0  0  0
 12 13  1  0  0  0
 13 14  2  0  0  0
 13 16  1  0  0  0
 16 17  2  0  0  0
  8  9  1  0  0  0
  9 10  1  0  0  0
  9 11  2  0  0  0
 30 31  1  0  0  0
 31 32  1  0  0  0
 32 26  1  0  0  0
 23 18  1  0  0  0
 11  5  1  0  0  0
  3  4  1  0  0  0
 12 15  1  0  0  0
M  END
> <minimizedAffinity>
-7.01657

> <CNNscore>
0.2159950733

> <CNNaffinity>
5.8923006058

> <CNN_VS>
1.2727079391

> <CNNaffinity_variance>
0.0474687144

$$$$
[H]C([H])=C([H])C(=O)N([H])c1c([H])c([H])c(N([H])C(=O)c2c([H])c([H])c(C([H])([H])N3C([H])([H])C([H])([H])C(F)(F)C([H])([H])C3([H])[H])c([H])c2[H])c([H])c1Cl


 32 34  0  0  0  0  0  0  0  0999 V2000
   41.2448   14.4804  -13.7420 C   0  0  0  0  0  0  0  0  0  0  0  0
   40.4627   15.4319  -13.5426 O   0  0  0  0  0  0  0  0  0  0  0  0
   40.8447   13.2771  -14.3016 N   0  0  0  0  0  0  0  0  0  0  0  0
   41.5896   12.5179  -14.4348 H   0  0  0  0  0  0  0  0  0  0  0  0
   39.5313   12.9574  -14.7086 C   0  0  0  0  0  0  0  0  0  0  0  0
   38.4277   13.3772  -14.0620 C   0  0  0  0  0  0  0  0  0  0  0  0
   37.1298   13.0640  -14.5058 C   0  0  0  0  0  0  0  0  0  0  0  0
   36.9579   12.3112  -15.6244 C   0  0  0  0  0  0  0  0  0  0  0  0
   38.1153   11.8776  -16.2910 C   0  0  0  0  0  0  0  0  0  0  0  0
   37.9084   10.8965  -17.7484 Cl  0  0  0  0  0  0  0  0  0  0  0  0
   39.3561   12.1772  -15.8674 C   0  0  0  0  0  0  0  0  0  0  0  0
   35.6940   11.9680  -16.1134 N   0  0  0  0  0  0  0  0  0  0  0  0
   34.5229   11.6985  -15.3952 C   0  0  0  0  0  0  0  0  0  0  0  0
   34.4363   11.7276  -14.1594 O   0  0  0  0  0  0  0  0  0  0  0  0
   35.6046   11.9008  -17.1840 H   0  0  0  0  0  0  0  0  0  0  0  0
   33.2712   11.3478  -16.1383 C   0  0  0  0  0  0  0  0  0  0  0  0
   33.3544   10.6661  -17.2479 C   0  0  0  0  0  0  0  0  0  0  0  0
   45.3255   15.0908  -12.6500 C   0  0  0  0  0  0  0  0  0  0  0  0
   44.3332   15.7530  -11.9760 C   0  0  0  0  0  0  0  0  0  0  0  0
   43.0028   15.5572  -12.3245 C   0  0  0  0  0  0  0  0  0  0  0  0
   42.6553   14.7050  -13.3412 C   0  0  0  0  0  0  0  0  0  0  0  0
   43.6688   14.0335  -14.0236 C   0  0  0  0  0  0  0  0  0  0  0  0
   44.9789   14.2400  -13.6646 C   0  0  0  0  0  0  0  0  0  0  0  0
   46.7751   15.2910  -12.2858 C   0  0  0  0  0  0  0  0  0  0  0  0
   46.2924   10.2454  -10.6806 F   0  0  0  0  0  0  0  0  0  0  0  0
   46.2603   11.5679  -11.0948 C   0  0  0  0  0  0  0  0  0  0  0  0
   44.9655   11.8584  -11.4732 F   0  0  0  0  0  0  0  0  0  0  0  0
   46.6974   12.4336   -9.9138 C   0  0  0  0  0  0  0  0  0  0  0  0
   46.5401   13.8587  -10.3637 C   0  0  0  0  0  0  0  0  0  0  0  0
   47.2271   14.1668  -11.5490 N   0  0  0  0  0  0  0  0  0  0  0  0
   47.8459   13.1307  -12.2611 C   0  0  0  0  0  0  0  0  0  0  0  0
   47.2235   11.7875  -12.1992 C   0  0  0  0  0  0  0  0  0  0  0  0
 25 26  1  0  0  0
 26 27  1  0  0  0
 26 28  1  0  0  0
 28 29  1  0  0  0
 29 30  1  0  0  0
 30 24  1  0  0  0
 24 18  1  0  0  0
 18 19  2  0  0  0
 19 20  1  0  0  0
 20 21  2  0  0  0
 21 22  1  0  0  0
 22 23  2  0  0  0
 21  1  1  0  0  0
  1  2  2  0  0  0
  1  3  1  0  0  0
  3  5  1  0  0  0
  5  6  2  0  0  0
  6  7  1  0  0  0
  7  8  2  0  0  0
  8 12  1  0  0  0
 12 13  1  0  0  0
 13 14  2  0  0  0
 13 16  1  0  0  0
 16 17  2  0  0  0
  8  9  1  0  0  0
  9 10  1  0  0  0
  9 11  2  0  0  0
 30 31  1  0  0  0
 31 32  1  0  0  0
 32 26  1  0  0  0
 23 18  1  0  0  0
 11  5  1  0  0  0
  3  4  1  0  0  0
 12 15  1  0  0  0
M  END
> <minimizedAffinity>
-7.06016

> <CNNscore>
0.2086103410

> <CNNaffinity>
5.9646687508

> <CNN_VS>
1.2442915440

> <CNNaffinity_variance>
0.0568639338

$$$$
[H]C([H])=C([H])C(=O)N([H])c1c([H])c([H])c(N([H])C(=O)c2c([H])c([H])c(C([H])([H])N3C([H])([H])C([H])([H])C(F)(F)C([H])([H])C3([H])[H])c([H])c2[H])c([H])c1Cl


 32 34  0  0  0  0  0  0  0  0999 V2000
   39.1761   13.6606  -14.4052 C   0  0  0  0  0  0  0  0  0  0  0  0
   38.5695   13.4069  -15.4656 O   0  0  0  0  0  0  0  0  0  0  0  0
   38.5289   13.9670  -13.2184 N   0  0  0  0  0  0  0  0  0  0  0  0
   39.1356   14.1699  -12.3584 H   0  0  0  0  0  0  0  0  0  0  0  0
   37.1303   14.0429  -13.0419 C   0  0  0  0  0  0  0  0  0  0  0  0
   36.5182   15.0246  -12.3534 C   0  0  0  0  0  0  0  0  0  0  0  0
   35.1195   15.0886  -12.2156 C   0  0  0  0  0  0  0  0  0  0  0  0
   34.3364   14.1365  -12.7882 C   0  0  0  0  0  0  0  0  0  0  0  0
   34.9846   13.1165  -13.5034 C   0  0  0  0  0  0  0  0  0  0  0  0
   33.9795   11.8694  -14.2542 Cl  0  0  0  0  0  0  0  0  0  0  0  0
   36.3216   13.0551  -13.6357 C   0  0  0  0  0  0  0  0  0  0  0  0
   32.9422   14.1472  -12.6857 N   0  0  0  0  0  0  0  0  0  0  0  0
   32.1398   14.8185  -11.7554 C   0  0  0  0  0  0  0  0  0  0  0  0
   32.5745   15.5357  -10.8431 O   0  0  0  0  0  0  0  0  0  0  0  0
   32.4109   13.5633  -13.4172 H   0  0  0  0  0  0  0  0  0  0  0  0
   30.6509   14.6831  -11.8383 C   0  0  0  0  0  0  0  0  0  0  0  0
   29.9496   14.6363  -10.7388 C   0  0  0  0  0  0  0  0  0  0  0  0
   43.4326   13.5214  -14.6886 C   0  0  0  0  0  0  0  0  0  0  0  0
   42.8407   14.0249  -13.5600 C   0  0  0  0  0  0  0  0  0  0  0  0
   41.4560   14.0709  -13.4600 C   0  0  0  0  0  0  0  0  0  0  0  0
   40.6571   13.6179  -14.4786 C   0  0  0  0  0  0  0  0  0  0  0  0
   41.2644   13.1064  -15.6246 C   0  0  0  0  0  0  0  0  0  0  0  0
   42.6355   13.0691  -15.7052 C   0  0  0  0  0  0  0  0  0  0  0  0
   44.9342   13.4637  -14.8150 C   0  0  0  0  0  0  0  0  0  0  0  0
   49.0104   16.4932  -13.2418 F   0  0  0  0  0  0  0  0  0  0  0  0
   48.0552   15.5930  -13.6876 C   0  0  0  0  0  0  0  0  0  0  0  0
   48.7087   14.5986  -14.3863 F   0  0  0  0  0  0  0  0  0  0  0  0
   47.3431   15.0276  -12.4594 C   0  0  0  0  0  0  0  0  0  0  0  0
   46.3999   13.9770  -12.9739 C   0  0  0  0  0  0  0  0  0  0  0  0
   45.5088   14.4361  -13.9574 N   0  0  0  0  0  0  0  0  0  0  0  0
   45.6685   15.7333  -14.4625 C   0  0  0  0  0  0  0  0  0  0  0  0
   47.0430   16.2833  -14.5210 C   0  0  0  0  0  0  0  0  0  0  0  0
 25 26  1  0  0  0
 26 27  1  0  0  0
 26 28  1  0  0  0
 28 29  1  0  0  0
 29 30  1  0  0  0
 30 24  1  0  0  0
 24 18  1  0  0  0
 18 19  2  0  0  0
 19 20  1  0  0  0
 20 21  2  0  0  0
 21 22  1  0  0  0
 22 23  2  0  0  0
 21  1  1  0  0  0
  1  2  2  0  0  0
  1  3  1  0  0  0
  3  5  1  0  0  0
  5  6  2  0  0  0
  6  7  1  0  0  0
  7  8  2  0  0  0
  8 12  1  0  0  0
 12 13  1  0  0  0
 13 14  2  0  0  0
 13 16  1  0  0  0
 16 17  2  0  0  0
  8  9  1  0  0  0
  9 10  1  0  0  0
  9 11  2  0  0  0
 30 31  1  0  0  0
 31 32  1  0  0  0
 32 26  1  0  0  0
 23 18  1  0  0  0
 11  5  1  0  0  0
  3  4  1  0  0  0
 12 15  1  0  0  0
M  END
> <minimizedAffinity>
-7.40610

> <CNNscore>
0.1939833760

> <CNNaffinity>
5.8771438599

> <CNN_VS>
1.1400681734

> <CNNaffinity_variance>
0.0695637614

$$$$
[H]C([H])=C([H])C(=O)N([H])c1c([H])c([H])c(N([H])C(=O)c2c([H])c([H])c(C([H])([H])N3C([H])([H])C([H])([H])C(F)(F)C([H])([H])C3([H])[H])c([H])c2[H])c([H])c1Cl


 32 34  0  0  0  0  0  0  0  0999 V2000
   37.0792   16.8431  -10.7916 C   0  0  0  0  0  0  0  0  0  0  0  0
   36.3417   17.2447  -11.7145 O   0  0  0  0  0  0  0  0  0  0  0  0
   37.8854   15.7210  -10.9018 N   0  0  0  0  0  0  0  0  0  0  0  0
   38.4856   15.4541  -10.0547 H   0  0  0  0  0  0  0  0  0  0  0  0
   37.9819   14.8876  -12.0372 C   0  0  0  0  0  0  0  0  0  0  0  0
   39.0162   14.9182  -12.8983 C   0  0  0  0  0  0  0  0  0  0  0  0
   39.0979   14.0571  -14.0080 C   0  0  0  0  0  0  0  0  0  0  0  0
   38.1092   13.1538  -14.2409 C   0  0  0  0  0  0  0  0  0  0  0  0
   37.0345   13.1306  -13.3373 C   0  0  0  0  0  0  0  0  0  0  0  0
   35.7394   11.9609  -13.6269 Cl  0  0  0  0  0  0  0  0  0  0  0  0
   36.9562   13.9532  -12.2762 C   0  0  0  0  0  0  0  0  0  0  0  0
   38.1351   12.2730  -15.3262 N   0  0  0  0  0  0  0  0  0  0  0  0
   39.1704   12.0427  -16.2399 C   0  0  0  0  0  0  0  0  0  0  0  0
   40.2681   12.6172  -16.2149 O   0  0  0  0  0  0  0  0  0  0  0  0
   37.2425   11.6926  -15.4841 H   0  0  0  0  0  0  0  0  0  0  0  0
   38.9727   11.0409  -17.3351 C   0  0  0  0  0  0  0  0  0  0  0  0
   37.7616   10.7353  -17.7130 C   0  0  0  0  0  0  0  0  0  0  0  0
   36.9571   19.0894   -7.1645 C   0  0  0  0  0  0  0  0  0  0  0  0
   37.7573   19.5042   -8.1965 C   0  0  0  0  0  0  0  0  0  0  0  0
   37.8000   18.7793   -9.3807 C   0  0  0  0  0  0  0  0  0  0  0  0
   37.0496   17.6429   -9.5426 C   0  0  0  0  0  0  0  0  0  0  0  0
   36.2369   17.2253   -8.4896 C   0  0  0  0  0  0  0  0  0  0  0  0
   36.2079   17.9553   -7.3260 C   0  0  0  0  0  0  0  0  0  0  0  0
   36.8981   19.8634   -5.8716 C   0  0  0  0  0  0  0  0  0  0  0  0
   33.2512   23.3577   -4.2109 F   0  0  0  0  0  0  0  0  0  0  0  0
   34.2963   22.5053   -4.5312 C   0  0  0  0  0  0  0  0  0  0  0  0
   35.4334   22.9837   -3.9129 F   0  0  0  0  0  0  0  0  0  0  0  0
   33.9326   21.1132   -4.0165 C   0  0  0  0  0  0  0  0  0  0  0  0
   35.1325   20.2475   -4.2789 C   0  0  0  0  0  0  0  0  0  0  0  0
   35.5547   20.2403   -5.6183 N   0  0  0  0  0  0  0  0  0  0  0  0
   34.9455   21.1187   -6.5243 C   0  0  0  0  0  0  0  0  0  0  0  0
   34.4597   22.4170   -6.0012 C   0  0  0  0  0  0  0  0  0  0  0  0
 25 26  1  0  0  0
 26 27  1  0  0  0
 26 28  1  0  0  0
 28 29  1  0  0  0
 29 30  1  0  0  0
 30 24  1  0  0  0
 24 18  1  0  0  0
 18 19  2  0  0  0
 19 20  1  0  0  0
 20 21  2  0  0  0
 21 22  1  0  0  0
 22 23  2  0  0  0
 21  1  1  0  0  0
  1  2  2  0  0  0
  1  3  1  0  0  0
  3  5  1  0  0  0
  5  6  2  0  0  0
  6  7  1  0  0  0
  7  8  2  0  0  0
  8 12  1  0  0  0
 12 13  1  0  0  0
 13 14  2  0  0  0
 13 16  1  0  0  0
 16 17  2  0  0  0
  8  9  1  0  0  0
  9 10  1  0  0  0
  9 11  2  0  0  0
 30 31  1  0  0  0
 31 32  1  0  0  0
 32 26  1  0  0  0
 23 18  1  0  0  0
 11  5  1  0  0  0
  3  4  1  0  0  0
 12 15  1  0  0  0
M  END
> <minimizedAffinity>
-6.96119

> <CNNscore>
0.1866732985

> <CNNaffinity>
5.5359220505

> <CNN_VS>
1.0334088802

> <CNNaffinity_variance>
0.2231149375

$$$$
[H]C([H])=C([H])C(=O)N([H])c1c([H])c([H])c(N([H])C(=O)c2c([H])c([H])c(C([H])([H])N3C([H])([H])C([H])([H])C(F)(F)C([H])([H])C3([H])[H])c([H])c2[H])c([H])c1Cl


 32 34  0  0  0  0  0  0  0  0999 V2000
   41.0455   14.9316  -13.3749 C   0  0  0  0  0  0  0  0  0  0  0  0
   40.2208   15.8666  -13.4254 O   0  0  0  0  0  0  0  0  0  0  0  0
   40.7632   13.6494  -13.8192 N   0  0  0  0  0  0  0  0  0  0  0  0
   41.5365   12.9119  -13.7355 H   0  0  0  0  0  0  0  0  0  0  0  0
   39.5353   13.2232  -14.3702 C   0  0  0  0  0  0  0  0  0  0  0  0
   39.3756   12.8872  -15.6640 C   0  0  0  0  0  0  0  0  0  0  0  0
   38.1451   12.4409  -16.1799 C   0  0  0  0  0  0  0  0  0  0  0  0
   37.0637   12.3375  -15.3629 C   0  0  0  0  0  0  0  0  0  0  0  0
   37.2405   12.6911  -14.0154 C   0  0  0  0  0  0  0  0  0  0  0  0
   35.8424   12.5626  -12.9393 Cl  0  0  0  0  0  0  0  0  0  0  0  0
   38.4166   13.1174  -13.5218 C   0  0  0  0  0  0  0  0  0  0  0  0
   35.8160   11.9006  -15.8178 N   0  0  0  0  0  0  0  0  0  0  0  0
   35.5298   10.9485  -16.8033 C   0  0  0  0  0  0  0  0  0  0  0  0
   36.3870   10.3255  -17.4459 O   0  0  0  0  0  0  0  0  0  0  0  0
   34.9585   12.3537  -15.3509 H   0  0  0  0  0  0  0  0  0  0  0  0
   34.1021   10.6366  -17.1292 C   0  0  0  0  0  0  0  0  0  0  0  0
   33.1696   10.9232  -16.2624 C   0  0  0  0  0  0  0  0  0  0  0  0
   44.8400   15.9658  -11.7168 C   0  0  0  0  0  0  0  0  0  0  0  0
   44.5334   14.6508  -11.9493 C   0  0  0  0  0  0  0  0  0  0  0  0
   43.3012   14.3072  -12.4910 C   0  0  0  0  0  0  0  0  0  0  0  0
   42.3724   15.2669  -12.8025 C   0  0  0  0  0  0  0  0  0  0  0  0
   42.6895   16.6034  -12.5642 C   0  0  0  0  0  0  0  0  0  0  0  0
   43.9132   16.9238  -12.0278 C   0  0  0  0  0  0  0  0  0  0  0  0
   46.1724   16.3576  -11.1291 C   0  0  0  0  0  0  0  0  0  0  0  0
   43.2372   16.4049   -6.6962 F   0  0  0  0  0  0  0  0  0  0  0  0
   43.8755   16.4514   -7.9258 C   0  0  0  0  0  0  0  0  0  0  0  0
   42.9099   16.6365   -8.8939 F   0  0  0  0  0  0  0  0  0  0  0  0
   44.8566   17.6226   -7.8940 C   0  0  0  0  0  0  0  0  0  0  0  0
   45.4421   17.7107   -9.2751 C   0  0  0  0  0  0  0  0  0  0  0  0
   46.0309   16.5186   -9.7272 N   0  0  0  0  0  0  0  0  0  0  0  0
   45.8935   15.3597   -8.9518 C   0  0  0  0  0  0  0  0  0  0  0  0
   44.6559   15.2120   -8.1506 C   0  0  0  0  0  0  0  0  0  0  0  0
 25 26  1  0  0  0
 26 27  1  0  0  0
 26 28  1  0  0  0
 28 29  1  0  0  0
 29 30  1  0  0  0
 30 24  1  0  0  0
 24 18  1  0  0  0
 18 19  2  0  0  0
 19 20  1  0  0  0
 20 21  2  0  0  0
 21 22  1  0  0  0
 22 23  2  0  0  0
 21  1  1  0  0  0
  1  2  2  0  0  0
  1  3  1  0  0  0
  3  5  1  0  0  0
  5  6  2  0  0  0
  6  7  1  0  0  0
  7  8  2  0  0  0
  8 12  1  0  0  0
 12 13  1  0  0  0
 13 14  2  0  0  0
 13 16  1  0  0  0
 16 17  2  0  0  0
  8  9  1  0  0  0
  9 10  1  0  0  0
  9 11  2  0  0  0
 30 31  1  0  0  0
 31 32  1  0  0  0
 32 26  1  0  0  0
 23 18  1  0  0  0
 11  5  1  0  0  0
  3  4  1  0  0  0
 12 15  1  0  0  0
M  END
> <minimizedAffinity>
-6.99152

> <CNNscore>
0.1731812060

> <CNNaffinity>
5.7406892776

> <CNN_VS>
0.9941794872

> <CNNaffinity_variance>
0.0638999417

$$$$
[H]C([H])=C([H])C(=O)N([H])c1c([H])c([H])c(N([H])C(=O)c2c([H])c([H])c(C([H])([H])N3C([H])([H])C([H])([H])C(F)(F)C([H])([H])C3([H])[H])c([H])c2[H])c([H])c1Cl


 32 34  0  0  0  0  0  0  0  0999 V2000
   41.3095   15.4971  -12.8826 C   0  0  0  0  0  0  0  0  0  0  0  0
   40.3465   16.2844  -12.9803 O   0  0  0  0  0  0  0  0  0  0  0  0
   41.3052   14.2249  -13.4329 N   0  0  0  0  0  0  0  0  0  0  0  0
   42.1801   13.6208  -13.2971 H   0  0  0  0  0  0  0  0  0  0  0  0
   40.2395   13.6469  -14.1562 C   0  0  0  0  0  0  0  0  0  0  0  0
   38.9665   13.6264  -13.7188 C   0  0  0  0  0  0  0  0  0  0  0  0
   37.9198   13.0656  -14.4734 C   0  0  0  0  0  0  0  0  0  0  0  0
   38.1778   12.5179  -15.6904 C   0  0  0  0  0  0  0  0  0  0  0  0
   39.5089   12.5435  -16.1371 C   0  0  0  0  0  0  0  0  0  0  0  0
   39.8613   11.8342  -17.7188 Cl  0  0  0  0  0  0  0  0  0  0  0  0
   40.5097   13.0799  -15.4162 C   0  0  0  0  0  0  0  0  0  0  0  0
   37.1799   11.9463  -16.4852 N   0  0  0  0  0  0  0  0  0  0  0  0
   35.8444   11.6847  -16.1568 C   0  0  0  0  0  0  0  0  0  0  0  0
   35.3307   11.9359  -15.0574 O   0  0  0  0  0  0  0  0  0  0  0  0
   37.4726   11.6689  -17.4831 H   0  0  0  0  0  0  0  0  0  0  0  0
   34.9467   11.0594  -17.1792 C   0  0  0  0  0  0  0  0  0  0  0  0
   33.7429   10.6910  -16.8353 C   0  0  0  0  0  0  0  0  0  0  0  0
   44.7105   16.9881  -10.7786 C   0  0  0  0  0  0  0  0  0  0  0  0
   43.7701   16.2452  -10.1145 C   0  0  0  0  0  0  0  0  0  0  0  0
   42.6620   15.7546  -10.7936 C   0  0  0  0  0  0  0  0  0  0  0  0
   42.4854   16.0003  -12.1313 C   0  0  0  0  0  0  0  0  0  0  0  0
   43.4454   16.7566  -12.8022 C   0  0  0  0  0  0  0  0  0  0  0  0
   44.5346   17.2333  -12.1136 C   0  0  0  0  0  0  0  0  0  0  0  0
   45.9197   17.5290  -10.0578 C   0  0  0  0  0  0  0  0  0  0  0  0
   48.3275   13.6566  -12.7918 F   0  0  0  0  0  0  0  0  0  0  0  0
   47.5647   14.5878  -12.1044 C   0  0  0  0  0  0  0  0  0  0  0  0
   46.2398   14.3554  -12.4123 F   0  0  0  0  0  0  0  0  0  0  0  0
   47.8273   14.3903  -10.6120 C   0  0  0  0  0  0  0  0  0  0  0  0
   46.9012   15.3351   -9.8995 C   0  0  0  0  0  0  0  0  0  0  0  0
   47.0250   16.6748  -10.3021 N   0  0  0  0  0  0  0  0  0  0  0  0
   47.8528   16.9803  -11.3906 C   0  0  0  0  0  0  0  0  0  0  0  0
   47.9837   15.9637  -12.4605 C   0  0  0  0  0  0  0  0  0  0  0  0
 25 26  1  0  0  0
 26 27  1  0  0  0
 26 28  1  0  0  0
 28 29  1  0  0  0
 29 30  1  0  0  0
 30 24  1  0  0  0
 24 18  1  0  0  0
 18 19  2  0  0  0
 19 20  1  0  0  0
 20 21  2  0  0  0
 21 22  1  0  0  0
 22 23  2  0  0  0
 21  1  1  0  0  0
  1  2  2  0  0  0
  1  3  1  0  0  0
  3  5  1  0  0  0
  5  6  2  0  0  0
  6  7  1  0  0  0
  7  8  2  0  0  0
  8 12  1  0  0  0
 12 13  1  0  0  0
 13 14  2  0  0  0
 13 16  1  0  0  0
 16 17  2  0  0  0
  8  9  1  0  0  0
  9 10  1  0  0  0
  9 11  2  0  0  0
 30 31  1  0  0  0
 31 32  1  0  0  0
 32 26  1  0  0  0
 23 18  1  0  0  0
 11  5  1  0  0  0
  3  4  1  0  0  0
 12 15  1  0  0  0
M  END
> <minimizedAffinity>
-7.20334

> <CNNscore>
0.1545514613

> <CNNaffinity>
5.6588025093

> <CNN_VS>
0.8745762110

> <CNNaffinity_variance>
0.0602531135

$$$$
[H]C([H])=C([H])C(=O)N([H])c1c([H])c([H])c(N([H])C(=O)c2c([H])c([H])c(C([H])([H])N3C([H])([H])C([H])([H])C(F)(F)C([H])([H])C3([H])[H])c([H])c2[H])c([H])c1Cl


 32 34  0  0  0  0  0  0  0  0999 V2000
   33.7868   14.2493  -13.0236 C   0  0  0  0  0  0  0  0  0  0  0  0
   33.7219   14.8209  -14.1308 O   0  0  0  0  0  0  0  0  0  0  0  0
   34.7448   13.2947  -12.7202 N   0  0  0  0  0  0  0  0  0  0  0  0
   34.7211   12.8592  -11.7411 H   0  0  0  0  0  0  0  0  0  0  0  0
   35.7529   12.8361  -13.5957 C   0  0  0  0  0  0  0  0  0  0  0  0
   37.0531   12.7530  -13.2567 C   0  0  0  0  0  0  0  0  0  0  0  0
   38.0327   12.2675  -14.1422 C   0  0  0  0  0  0  0  0  0  0  0  0
   37.6789   11.8626  -15.3906 C   0  0  0  0  0  0  0  0  0  0  0  0
   36.3205   11.9542  -15.7346 C   0  0  0  0  0  0  0  0  0  0  0  0
   35.8438   11.4316  -17.3560 Cl  0  0  0  0  0  0  0  0  0  0  0  0
   35.3836   12.4178  -14.8883 C   0  0  0  0  0  0  0  0  0  0  0  0
   38.6069   11.3716  -16.3137 N   0  0  0  0  0  0  0  0  0  0  0  0
   39.6014   12.0702  -17.0085 C   0  0  0  0  0  0  0  0  0  0  0  0
   39.8108   13.2866  -16.8981 O   0  0  0  0  0  0  0  0  0  0  0  0
   38.5535   10.3168  -16.5207 H   0  0  0  0  0  0  0  0  0  0  0  0
   40.4908   11.3292  -17.9582 C   0  0  0  0  0  0  0  0  0  0  0  0
   40.0371   11.0003  -19.1367 C   0  0  0  0  0  0  0  0  0  0  0  0
   30.8007   15.3514  -10.1800 C   0  0  0  0  0  0  0  0  0  0  0  0
   32.0786   15.8274  -10.0456 C   0  0  0  0  0  0  0  0  0  0  0  0
   33.0549   15.4747  -10.9688 C   0  0  0  0  0  0  0  0  0  0  0  0
   32.7650   14.6502  -12.0257 C   0  0  0  0  0  0  0  0  0  0  0  0
   31.4632   14.1689  -12.1579 C   0  0  0  0  0  0  0  0  0  0  0  0
   30.5112   14.5287  -11.2348 C   0  0  0  0  0  0  0  0  0  0  0  0
   29.7281   15.7233   -9.1874 C   0  0  0  0  0  0  0  0  0  0  0  0
   29.7524   18.2691   -4.5198 F   0  0  0  0  0  0  0  0  0  0  0  0
   29.6696   17.7312   -5.7947 C   0  0  0  0  0  0  0  0  0  0  0  0
   28.7486   18.4736   -6.5050 F   0  0  0  0  0  0  0  0  0  0  0  0
   31.0579   17.8230   -6.4269 C   0  0  0  0  0  0  0  0  0  0  0  0
   30.9024   17.3386   -7.8408 C   0  0  0  0  0  0  0  0  0  0  0  0
   30.3369   16.0579   -7.9511 N   0  0  0  0  0  0  0  0  0  0  0  0
   29.8469   15.4331   -6.7966 C   0  0  0  0  0  0  0  0  0  0  0  0
   29.2953   16.2991   -5.7284 C   0  0  0  0  0  0  0  0  0  0  0  0
 25 26  1  0  0  0
 26 27  1  0  0  0
 26 28  1  0  0  0
 28 29  1  0  0  0
 29 30  1  0  0  0
 30 24  1  0  0  0
 24 18  1  0  0  0
 18 19  2  0  0  0
 19 20  1  0  0  0
 20 21  2  0  0  0
 21 22  1  0  0  0
 22 23  2  0  0  0
 21  1  1  0  0  0
  1  2  2  0  0  0
  1  3  1  0  0  0
  3  5  1  0  0  0
  5  6  2  0  0  0
  6  7  1  0  0  0
  7  8  2  0  0  0
  8 12  1  0  0  0
 12 13  1  0  0  0
 13 14  2  0  0  0
 13 16  1  0  0  0
 16 17  2  0  0  0
  8  9  1  0  0  0
  9 10  1  0  0  0
  9 11  2  0  0  0
 30 31  1  0  0  0
 31 32  1  0  0  0
 32 26  1  0  0  0
 23 18  1  0  0  0
 11  5  1  0  0  0
  3  4  1  0  0  0
 12 15  1  0  0  0
M  END
> <minimizedAffinity>
-7.60315

> <CNNscore>
0.1506809443

> <CNNaffinity>
5.6818475723

> <CNN_VS>
0.8561461568

> <CNNaffinity_variance>
0.2049266547

$$$$
[H]C([H])=C([H])C(=O)N([H])c1c([H])c([H])c(N([H])C(=O)c2c([H])c([H])c(C([H])([H])N3C([H])([H])C([H])([H])C(F)(F)C([H])([H])C3([H])[H])c([H])c2[H])c([H])c1Cl


 32 34  0  0  0  0  0  0  0  0999 V2000
   39.9244   15.0542  -12.9280 C   0  0  0  0  0  0  0  0  0  0  0  0
   39.4660   15.2795  -14.0664 O   0  0  0  0  0  0  0  0  0  0  0  0
   39.1239   14.9042  -11.8065 N   0  0  0  0  0  0  0  0  0  0  0  0
   39.6093   14.7119  -10.8704 H   0  0  0  0  0  0  0  0  0  0  0  0
   37.7149   14.9899  -11.7861 C   0  0  0  0  0  0  0  0  0  0  0  0
   37.0393   16.0400  -11.2829 C   0  0  0  0  0  0  0  0  0  0  0  0
   35.6342   16.1094  -11.2993 C   0  0  0  0  0  0  0  0  0  0  0  0
   34.9103   15.0919  -11.8363 C   0  0  0  0  0  0  0  0  0  0  0  0
   35.6244   14.0009  -12.3577 C   0  0  0  0  0  0  0  0  0  0  0  0
   34.6967   12.6683  -13.0596 Cl  0  0  0  0  0  0  0  0  0  0  0  0
   36.9676   13.9344  -12.3425 C   0  0  0  0  0  0  0  0  0  0  0  0
   33.5131   15.1043  -11.8809 N   0  0  0  0  0  0  0  0  0  0  0  0
   32.6101   15.4752  -10.8774 C   0  0  0  0  0  0  0  0  0  0  0  0
   32.9388   15.8654   -9.7481 O   0  0  0  0  0  0  0  0  0  0  0  0
   33.0678   14.7875  -12.8082 H   0  0  0  0  0  0  0  0  0  0  0  0
   31.1398   15.4082  -11.1524 C   0  0  0  0  0  0  0  0  0  0  0  0
   30.6868   14.5304  -12.0052 C   0  0  0  0  0  0  0  0  0  0  0  0
   44.1753   14.7336  -12.7183 C   0  0  0  0  0  0  0  0  0  0  0  0
   43.4989   15.4583  -11.7723 C   0  0  0  0  0  0  0  0  0  0  0  0
   42.1152   15.5648  -11.8331 C   0  0  0  0  0  0  0  0  0  0  0  0
   41.4012   14.9530  -12.8315 C   0  0  0  0  0  0  0  0  0  0  0  0
   42.0942   14.2167  -13.7913 C   0  0  0  0  0  0  0  0  0  0  0  0
   43.4629   14.1228  -13.7146 C   0  0  0  0  0  0  0  0  0  0  0  0
   45.6772   14.6072  -12.6685 C   0  0  0  0  0  0  0  0  0  0  0  0
   45.3482   19.8982  -13.0738 F   0  0  0  0  0  0  0  0  0  0  0  0
   45.2881   18.5141  -13.0293 C   0  0  0  0  0  0  0  0  0  0  0  0
   43.9714   18.1445  -13.2124 F   0  0  0  0  0  0  0  0  0  0  0  0
   46.1736   17.9759  -14.1525 C   0  0  0  0  0  0  0  0  0  0  0  0
   45.9928   16.4842  -14.1445 C   0  0  0  0  0  0  0  0  0  0  0  0
   46.2572   15.8795  -12.9049 N   0  0  0  0  0  0  0  0  0  0  0  0
   46.5058   16.6957  -11.7934 C   0  0  0  0  0  0  0  0  0  0  0  0
   45.8311   18.0139  -11.7446 C   0  0  0  0  0  0  0  0  0  0  0  0
 25 26  1  0  0  0
 26 27  1  0  0  0
 26 28  1  0  0  0
 28 29  1  0  0  0
 29 30  1  0  0  0
 30 24  1  0  0  0
 24 18  1  0  0  0
 18 19  2  0  0  0
 19 20  1  0  0  0
 20 21  2  0  0  0
 21 22  1  0  0  0
 22 23  2  0  0  0
 21  1  1  0  0  0
  1  2  2  0  0  0
  1  3  1  0  0  0
  3  5  1  0  0  0
  5  6  2  0  0  0
  6  7  1  0  0  0
  7  8  2  0  0  0
  8 12  1  0  0  0
 12 13  1  0  0  0
 13 14  2  0  0  0
 13 16  1  0  0  0
 16 17  2  0  0  0
  8  9  1  0  0  0
  9 10  1  0  0  0
  9 11  2  0  0  0
 30 31  1  0  0  0
 31 32  1  0  0  0
 32 26  1  0  0  0
 23 18  1  0  0  0
 11  5  1  0  0  0
  3  4  1  0  0  0
 12 15  1  0  0  0
M  END
> <minimizedAffinity>
-7.10575

> <CNNscore>
0.1456866413

> <CNNaffinity>
5.4379839897

> <CNN_VS>
0.7922416329

> <CNNaffinity_variance>
0.2135952413

$$$$
[H]c1c([H])c([H])c(N([H])S(=O)(=O)C([H])([H])[H])c(-c2c([H])c3c([H])nc(N([H])c4c([H])c([H])c(N5C([H])([H])C([H])([H])N(C([H])([H])[H])C([H])([H])C5([H])[H])c([H])c4[H])nc3n(C([H])([H])[H])c2=O)c1[H]


 39 43  0  0  0  0  0  0  0  0999 V2000
   42.2905   13.1718  -15.8720 C   0  0  0  0  0  0  0  0  0  0  0  0
   41.6543   13.6379  -14.7892 N   0  0  0  0  0  0  0  0  0  0  0  0
   40.3485   13.4965  -14.5582 C   0  0  0  0  0  0  0  0  0  0  0  0
   39.5973   12.8089  -15.5198 C   0  0  0  0  0  0  0  0  0  0  0  0
   38.2514   12.6298  -15.3204 C   0  0  0  0  0  0  0  0  0  0  0  0
   37.5313   11.9302  -16.2893 C   0  0  0  0  0  0  0  0  0  0  0  0
   38.1714   11.4442  -17.4035 C   0  0  0  0  0  0  0  0  0  0  0  0
   37.5874   10.7973  -18.3316 O   0  0  0  0  0  0  0  0  0  0  0  0
   39.4963   11.6410  -17.5654 N   0  0  0  0  0  0  0  0  0  0  0  0
   40.1921   11.1290  -18.7423 C   0  0  0  0  0  0  0  0  0  0  0  0
   40.2179   12.3128  -16.6463 C   0  0  0  0  0  0  0  0  0  0  0  0
   41.5494   12.5009  -16.8061 N   0  0  0  0  0  0  0  0  0  0  0  0
   36.1165   11.6602  -16.1198 C   0  0  0  0  0  0  0  0  0  0  0  0
   35.5901   10.5463  -16.7787 C   0  0  0  0  0  0  0  0  0  0  0  0
   34.2591   10.1922  -16.6155 C   0  0  0  0  0  0  0  0  0  0  0  0
   33.4742   10.9615  -15.7922 C   0  0  0  0  0  0  0  0  0  0  0  0
   34.0055   12.0708  -15.1403 C   0  0  0  0  0  0  0  0  0  0  0  0
   35.3339   12.4489  -15.2873 C   0  0  0  0  0  0  0  0  0  0  0  0
   35.8438   13.6104  -14.6740 N   0  0  0  0  0  0  0  0  0  0  0  0
   36.3754   14.2915  -15.2812 H   0  0  0  0  0  0  0  0  0  0  0  0
   35.6410   13.9633  -13.0272 S   0  0  0  0  0  0  0  0  0  0  0  0
   34.0099   14.5822  -12.6432 C   0  0  0  0  0  0  0  0  0  0  0  0
   36.6239   15.0238  -12.5458 O   0  0  0  0  0  0  0  0  0  0  0  0
   35.8577   12.7091  -12.1798 O   0  0  0  0  0  0  0  0  0  0  0  0
   43.6758   13.3307  -16.0819 N   0  0  0  0  0  0  0  0  0  0  0  0
   44.0669   13.2546  -17.0712 H   0  0  0  0  0  0  0  0  0  0  0  0
   46.5127   14.2355  -13.0492 C   0  0  0  0  0  0  0  0  0  0  0  0
   45.8773   15.2303  -13.7586 C   0  0  0  0  0  0  0  0  0  0  0  0
   44.9457   14.9091  -14.7373 C   0  0  0  0  0  0  0  0  0  0  0  0
   44.6104   13.5904  -15.0482 C   0  0  0  0  0  0  0  0  0  0  0  0
   45.2650   12.6200  -14.3191 C   0  0  0  0  0  0  0  0  0  0  0  0
   46.2011   12.9195  -13.3342 C   0  0  0  0  0  0  0  0  0  0  0  0
   48.2217   15.1410   -8.4793 C   0  0  0  0  0  0  0  0  0  0  0  0
   49.0087   15.0006   -9.6846 N   0  0  0  0  0  0  0  0  0  0  0  0
   48.7021   16.0413  -10.6465 C   0  0  0  0  0  0  0  0  0  0  0  0
   47.3496   15.8159  -11.2921 C   0  0  0  0  0  0  0  0  0  0  0  0
   47.4473   14.5702  -12.0536 N   0  0  0  0  0  0  0  0  0  0  0  0
   48.5614   13.7419  -11.7361 C   0  0  0  0  0  0  0  0  0  0  0  0
   48.8258   13.6777  -10.2451 C   0  0  0  0  0  0  0  0  0  0  0  0
 33 34  1  0  0  0
 34 35  1  0  0  0
 35 36  1  0  0  0
 36 37  1  0  0  0
 37 38  1  0  0  0
 38 39  1  0  0  0
 37 27  1  0  0  0
 27 28  2  0  0  0
 28 29  1  0  0  0
 29 30  2  0  0  0
 30 25  1  0  0  0
 25  1  1  0  0  0
  1  2  2  0  0  0
  2  3  1  0  0  0
  3  4  2  0  0  0
  4  5  1  0  0  0
  5  6  2  0  0  0
  6 13  1  0  0  0
 13 14  2  0  0  0
 14 15  1  0  0  0
 15 16  2  0  0  0
 16 17  1  0  0  0
 17 18  2  0  0  0
 18 19  1  0  0  0
 19 21  1  0  0  0
 21 22  1  0  0  0
 21 23  2  0  0  0
 21 24  2  0  0  0
  6  7  1  0  0  0
  7  8  2  0  0  0
  7  9  1  0  0  0
  9 10  1  0  0  0
  9 11  1  0  0  0
 11 12  2  0  0  0
 30 31  1  0  0  0
 31 32  2  0  0  0
 39 34  1  0  0  0
 32 27  1  0  0  0
 12  1  1  0  0  0
 11  4  1  0  0  0
 18 13  1  0  0  0
 25 26  1  0  0  0
 19 20  1  0  0  0
M  END
> <minimizedAffinity>
-9.56653

> <CNNscore>
0.5920295715

> <CNNaffinity>
7.3614168167

> <CNN_VS>
4.3581762314

> <CNNaffinity_variance>
0.0448197424

$$$$
[H]c1c([H])c([H])c(N([H])S(=O)(=O)C([H])([H])[H])c(-c2c([H])c3c([H])nc(N([H])c4c([H])c([H])c(N5C([H])([H])C([H])([H])N(C([H])([H])[H])C([H])([H])C5([H])[H])c([H])c4[H])nc3n(C([H])([H])[H])c2=O)c1[H]


 39 43  0  0  0  0  0  0  0  0999 V2000
   42.0553   13.4007  -15.3316 C   0  0  0  0  0  0  0  0  0  0  0  0
   41.3017   13.8686  -14.3278 N   0  0  0  0  0  0  0  0  0  0  0  0
   39.9860   13.6808  -14.2170 C   0  0  0  0  0  0  0  0  0  0  0  0
   39.3564   12.9391  -15.2245 C   0  0  0  0  0  0  0  0  0  0  0  0
   38.0052   12.7112  -15.1478 C   0  0  0  0  0  0  0  0  0  0  0  0
   37.4076   11.9585  -16.1594 C   0  0  0  0  0  0  0  0  0  0  0  0
   38.1690   11.4702  -17.1934 C   0  0  0  0  0  0  0  0  0  0  0  0
   37.7009   10.7767  -18.1531 O   0  0  0  0  0  0  0  0  0  0  0  0
   39.4950   11.7158  -17.2353 N   0  0  0  0  0  0  0  0  0  0  0  0
   40.3186   11.2021  -18.3257 C   0  0  0  0  0  0  0  0  0  0  0  0
   40.0998   12.4395  -16.2723 C   0  0  0  0  0  0  0  0  0  0  0  0
   41.4324   12.6768  -16.3112 N   0  0  0  0  0  0  0  0  0  0  0  0
   35.9943   11.6364  -16.1162 C   0  0  0  0  0  0  0  0  0  0  0  0
   35.5725   10.4962  -16.8047 C   0  0  0  0  0  0  0  0  0  0  0  0
   34.2462   10.0932  -16.7591 C   0  0  0  0  0  0  0  0  0  0  0  0
   33.3609   10.8406  -16.0219 C   0  0  0  0  0  0  0  0  0  0  0  0
   33.7883   11.9763  -15.3399 C   0  0  0  0  0  0  0  0  0  0  0  0
   35.1096   12.4034  -15.3700 C   0  0  0  0  0  0  0  0  0  0  0  0
   35.5175   13.5900  -14.7291 N   0  0  0  0  0  0  0  0  0  0  0  0
   35.9074   14.3635  -15.3331 H   0  0  0  0  0  0  0  0  0  0  0  0
   35.4075   13.8323  -13.0537 S   0  0  0  0  0  0  0  0  0  0  0  0
   36.5602   15.0559  -12.4498 C   0  0  0  0  0  0  0  0  0  0  0  0
   35.6929   12.5552  -12.2727 O   0  0  0  0  0  0  0  0  0  0  0  0
   34.0052   14.3076  -12.6720 O   0  0  0  0  0  0  0  0  0  0  0  0
   43.4474   13.6097  -15.4144 N   0  0  0  0  0  0  0  0  0  0  0  0
   43.8581   14.0540  -16.2926 H   0  0  0  0  0  0  0  0  0  0  0  0
   46.2510   12.4676  -12.4313 C   0  0  0  0  0  0  0  0  0  0  0  0
   46.5162   12.2923  -13.7713 C   0  0  0  0  0  0  0  0  0  0  0  0
   45.5883   12.6840  -14.7276 C   0  0  0  0  0  0  0  0  0  0  0  0
   44.3641   13.2634  -14.3901 C   0  0  0  0  0  0  0  0  0  0  0  0
   44.1314   13.4242  -13.0404 C   0  0  0  0  0  0  0  0  0  0  0  0
   45.0470   13.0394  -12.0659 C   0  0  0  0  0  0  0  0  0  0  0  0
   47.9627   10.5150   -8.2025 C   0  0  0  0  0  0  0  0  0  0  0  0
   48.7492   10.9371   -9.3405 N   0  0  0  0  0  0  0  0  0  0  0  0
   48.6282   12.3629   -9.5737 C   0  0  0  0  0  0  0  0  0  0  0  0
   47.2737   12.7147  -10.1556 C   0  0  0  0  0  0  0  0  0  0  0  0
   47.2003   12.0769  -11.4706 N   0  0  0  0  0  0  0  0  0  0  0  0
   48.1676   11.0607  -11.7153 C   0  0  0  0  0  0  0  0  0  0  0  0
   48.3818   10.1664  -10.5105 C   0  0  0  0  0  0  0  0  0  0  0  0
 33 34  1  0  0  0
 34 35  1  0  0  0
 35 36  1  0  0  0
 36 37  1  0  0  0
 37 38  1  0  0  0
 38 39  1  0  0  0
 37 27  1  0  0  0
 27 28  2  0  0  0
 28 29  1  0  0  0
 29 30  2  0  0  0
 30 25  1  0  0  0
 25  1  1  0  0  0
  1  2  2  0  0  0
  2  3  1  0  0  0
  3  4  2  0  0  0
  4  5  1  0  0  0
  5  6  2  0  0  0
  6 13  1  0  0  0
 13 14  2  0  0  0
 14 15  1  0  0  0
 15 16  2  0  0  0
 16 17  1  0  0  0
 17 18  2  0  0  0
 18 19  1  0  0  0
 19 21  1  0  0  0
 21 22  1  0  0  0
 21 23  2  0  0  0
 21 24  2  0  0  0
  6  7  1  0  0  0
  7  8  2  0  0  0
  7  9  1  0  0  0
  9 10  1  0  0  0
  9 11  1  0  0  0
 11 12  2  0  0  0
 30 31  1  0  0  0
 31 32  2  0  0  0
 39 34  1  0  0  0
 32 27  1  0  0  0
 12  1  1  0  0  0
 11  4  1  0  0  0
 18 13  1  0  0  0
 25 26  1  0  0  0
 19 20  1  0  0  0
M  END
> <minimizedAffinity>
-10.07459

> <CNNscore>
0.3318317533

> <CNNaffinity>
7.0365400314

> <CNN_VS>
2.3349473476

> <CNNaffinity_variance>
0.0322542712

$$$$
[H]c1c([H])c([H])c(N([H])S(=O)(=O)C([H])([H])[H])c(-c2c([H])c3c([H])nc(N([H])c4c([H])c([H])c(N5C([H])([H])C([H])([H])N(C([H])([H])[H])C([H])([H])C5([H])[H])c([H])c4[H])nc3n(C([H])([H])[H])c2=O)c1[H]


 39 43  0  0  0  0  0  0  0  0999 V2000
   33.2259   13.8192  -13.4617 C   0  0  0  0  0  0  0  0  0  0  0  0
   34.2975   14.5171  -13.0629 N   0  0  0  0  0  0  0  0  0  0  0  0
   35.5353   14.3345  -13.5245 C   0  0  0  0  0  0  0  0  0  0  0  0
   35.7181   13.3426  -14.4963 C   0  0  0  0  0  0  0  0  0  0  0  0
   36.9727   13.1255  -15.0085 C   0  0  0  0  0  0  0  0  0  0  0  0
   37.1222   12.1393  -15.9842 C   0  0  0  0  0  0  0  0  0  0  0  0
   36.0313   11.4178  -16.4045 C   0  0  0  0  0  0  0  0  0  0  0  0
   36.0836   10.5028  -17.2882 O   0  0  0  0  0  0  0  0  0  0  0  0
   34.8132   11.6590  -15.8767 N   0  0  0  0  0  0  0  0  0  0  0  0
   33.6435   10.9030  -16.3141 C   0  0  0  0  0  0  0  0  0  0  0  0
   34.6383   12.6054  -14.9330 C   0  0  0  0  0  0  0  0  0  0  0  0
   33.4133   12.8525  -14.4116 N   0  0  0  0  0  0  0  0  0  0  0  0
   38.4089   11.8908  -16.6053 C   0  0  0  0  0  0  0  0  0  0  0  0
   38.4084   11.4019  -17.9141 C   0  0  0  0  0  0  0  0  0  0  0  0
   39.6006   11.1970  -18.5926 C   0  0  0  0  0  0  0  0  0  0  0  0
   40.7778   11.4864  -17.9476 C   0  0  0  0  0  0  0  0  0  0  0  0
   40.7704   11.9717  -16.6429 C   0  0  0  0  0  0  0  0  0  0  0  0
   39.5916   12.1843  -15.9398 C   0  0  0  0  0  0  0  0  0  0  0  0
   39.5986   12.6141  -14.5980 N   0  0  0  0  0  0  0  0  0  0  0  0
   39.2774   11.9280  -13.8624 H   0  0  0  0  0  0  0  0  0  0  0  0
   40.0983   14.1618  -14.1154 S   0  0  0  0  0  0  0  0  0  0  0  0
   41.8208   14.2226  -13.6458 C   0  0  0  0  0  0  0  0  0  0  0  0
   39.3102   14.6665  -12.9126 O   0  0  0  0  0  0  0  0  0  0  0  0
   39.9059   15.1658  -15.2524 O   0  0  0  0  0  0  0  0  0  0  0  0
   31.9275   14.0435  -12.9594 N   0  0  0  0  0  0  0  0  0  0  0  0
   31.0837   13.8075  -13.5673 H   0  0  0  0  0  0  0  0  0  0  0  0
   30.9666   15.6132   -9.1284 C   0  0  0  0  0  0  0  0  0  0  0  0
   30.1492   14.6996   -9.7562 C   0  0  0  0  0  0  0  0  0  0  0  0
   30.4909   14.1929  -11.0034 C   0  0  0  0  0  0  0  0  0  0  0  0
   31.6548   14.5734  -11.6732 C   0  0  0  0  0  0  0  0  0  0  0  0
   32.4496   15.4891  -11.0163 C   0  0  0  0  0  0  0  0  0  0  0  0
   32.1267   16.0090   -9.7667 C   0  0  0  0  0  0  0  0  0  0  0  0
   28.9291   18.6940   -5.8145 C   0  0  0  0  0  0  0  0  0  0  0  0
   29.5115   17.3977   -5.5459 N   0  0  0  0  0  0  0  0  0  0  0  0
   30.9281   17.3748   -5.8538 C   0  0  0  0  0  0  0  0  0  0  0  0
   31.1682   17.3690   -7.3503 C   0  0  0  0  0  0  0  0  0  0  0  0
   30.6176   16.1134   -7.8617 N   0  0  0  0  0  0  0  0  0  0  0  0
   29.7325   15.4273   -6.9818 C   0  0  0  0  0  0  0  0  0  0  0  0
   28.7869   16.3699   -6.2646 C   0  0  0  0  0  0  0  0  0  0  0  0
 33 34  1  0  0  0
 34 35  1  0  0  0
 35 36  1  0  0  0
 36 37  1  0  0  0
 37 38  1  0  0  0
 38 39  1  0  0  0
 37 27  1  0  0  0
 27 28  2  0  0  0
 28 29  1  0  0  0
 29 30  2  0  0  0
 30 25  1  0  0  0
 25  1  1  0  0  0
  1  2  2  0  0  0
  2  3  1  0  0  0
  3  4  2  0  0  0
  4  5  1  0  0  0
  5  6  2  0  0  0
  6 13  1  0  0  0
 13 14  2  0  0  0
 14 15  1  0  0  0
 15 16  2  0  0  0
 16 17  1  0  0  0
 17 18  2  0  0  0
 18 19  1  0  0  0
 19 21  1  0  0  0
 21 22  1  0  0  0
 21 23  2  0  0  0
 21 24  2  0  0  0
  6  7  1  0  0  0
  7  8  2  0  0  0
  7  9  1  0  0  0
  9 10  1  0  0  0
  9 11  1  0  0  0
 11 12  2  0  0  0
 30 31  1  0  0  0
 31 32  2  0  0  0
 39 34  1  0  0  0
 32 27  1  0  0  0
 12  1  1  0  0  0
 11  4  1  0  0  0
 18 13  1  0  0  0
 25 26  1  0  0  0
 19 20  1  0  0  0
M  END
> <minimizedAffinity>
-10.35107

> <CNNscore>
0.3213630915

> <CNNaffinity>
6.8096761703

> <CNN_VS>
2.1883785725

> <CNNaffinity_variance>
0.1854940951

$$$$
[H]c1c([H])c([H])c(N([H])S(=O)(=O)C([H])([H])[H])c(-c2c([H])c3c([H])nc(N([H])c4c([H])c([H])c(N5C([H])([H])C([H])([H])N(C([H])([H])[H])C([H])([H])C5([H])[H])c([H])c4[H])nc3n(C([H])([H])[H])c2=O)c1[H]


 39 43  0  0  0  0  0  0  0  0999 V2000
   33.5790   13.7384  -13.6193 C   0  0  0  0  0  0  0  0  0  0  0  0
   33.8902   12.7948  -14.5179 N   0  0  0  0  0  0  0  0  0  0  0  0
   35.1250   12.5403  -14.9525 C   0  0  0  0  0  0  0  0  0  0  0  0
   36.1640   13.3174  -14.4251 C   0  0  0  0  0  0  0  0  0  0  0  0
   37.4530   13.0849  -14.8348 C   0  0  0  0  0  0  0  0  0  0  0  0
   38.4687   13.8663  -14.2830 C   0  0  0  0  0  0  0  0  0  0  0  0
   38.1643   14.8357  -13.3584 C   0  0  0  0  0  0  0  0  0  0  0  0
   39.0310   15.5894  -12.8092 O   0  0  0  0  0  0  0  0  0  0  0  0
   36.8846   15.0359  -12.9807 N   0  0  0  0  0  0  0  0  0  0  0  0
   36.5445   16.0601  -11.9975 C   0  0  0  0  0  0  0  0  0  0  0  0
   35.8826   14.2965  -13.4964 C   0  0  0  0  0  0  0  0  0  0  0  0
   34.6000   14.4926  -13.1088 N   0  0  0  0  0  0  0  0  0  0  0  0
   39.8583   13.6419  -14.6320 C   0  0  0  0  0  0  0  0  0  0  0  0
   40.8211   13.9352  -13.6630 C   0  0  0  0  0  0  0  0  0  0  0  0
   42.1646   13.6899  -13.9044 C   0  0  0  0  0  0  0  0  0  0  0  0
   42.5235   13.1526  -15.1161 C   0  0  0  0  0  0  0  0  0  0  0  0
   41.5587   12.8644  -16.0773 C   0  0  0  0  0  0  0  0  0  0  0  0
   40.2071   13.1018  -15.8626 C   0  0  0  0  0  0  0  0  0  0  0  0
   39.2469   12.8667  -16.8666 N   0  0  0  0  0  0  0  0  0  0  0  0
   38.6828   13.6918  -17.2073 H   0  0  0  0  0  0  0  0  0  0  0  0
   38.9628   11.3395  -17.5484 S   0  0  0  0  0  0  0  0  0  0  0  0
   39.7027   11.1490  -19.1630 C   0  0  0  0  0  0  0  0  0  0  0  0
   37.4749   11.0617  -17.7255 O   0  0  0  0  0  0  0  0  0  0  0  0
   39.5387   10.2390  -16.6566 O   0  0  0  0  0  0  0  0  0  0  0  0
   32.2625   13.9763  -13.1737 N   0  0  0  0  0  0  0  0  0  0  0  0
   31.4427   13.7320  -13.8107 H   0  0  0  0  0  0  0  0  0  0  0  0
   31.1556   15.6360   -9.4209 C   0  0  0  0  0  0  0  0  0  0  0  0
   30.2976   14.8234  -10.1283 C   0  0  0  0  0  0  0  0  0  0  0  0
   30.6870   14.2841  -11.3475 C   0  0  0  0  0  0  0  0  0  0  0  0
   31.9405   14.5307  -11.9095 C   0  0  0  0  0  0  0  0  0  0  0  0
   32.7740   15.3478  -11.1749 C   0  0  0  0  0  0  0  0  0  0  0  0
   32.4044   15.8982   -9.9516 C   0  0  0  0  0  0  0  0  0  0  0  0
   29.1553   18.8988   -6.2621 C   0  0  0  0  0  0  0  0  0  0  0  0
   29.5956   17.5559   -5.9545 N   0  0  0  0  0  0  0  0  0  0  0  0
   31.0239   17.4041   -6.1522 C   0  0  0  0  0  0  0  0  0  0  0  0
   31.3773   17.3720   -7.6257 C   0  0  0  0  0  0  0  0  0  0  0  0
   30.7565   16.1697   -8.1829 N   0  0  0  0  0  0  0  0  0  0  0  0
   29.7478   15.5692   -7.3766 C   0  0  0  0  0  0  0  0  0  0  0  0
   28.8388   16.5957   -6.7309 C   0  0  0  0  0  0  0  0  0  0  0  0
 33 34  1  0  0  0
 34 35  1  0  0  0
 35 36  1  0  0  0
 36 37  1  0  0  0
 37 38  1  0  0  0
 38 39  1  0  0  0
 37 27  1  0  0  0
 27 28  2  0  0  0
 28 29  1  0  0  0
 29 30  2  0  0  0
 30 25  1  0  0  0
 25  1  1  0  0  0
  1  2  2  0  0  0
  2  3  1  0  0  0
  3  4  2  0  0  0
  4  5  1  0  0  0
  5  6  2  0  0  0
  6 13  1  0  0  0
 13 14  2  0  0  0
 14 15  1  0  0  0
 15 16  2  0  0  0
 16 17  1  0  0  0
 17 18  2  0  0  0
 18 19  1  0  0  0
 19 21  1  0  0  0
 21 22  1  0  0  0
 21 23  2  0  0  0
 21 24  2  0  0  0
  6  7  1  0  0  0
  7  8  2  0  0  0
  7  9  1  0  0  0
  9 10  1  0  0  0
  9 11  1  0  0  0
 11 12  2  0  0  0
 30 31  1  0  0  0
 31 32  2  0  0  0
 39 34  1  0  0  0
 32 27  1  0  0  0
 12  1  1  0  0  0
 11  4  1  0  0  0
 18 13  1  0  0  0
 25 26  1  0  0  0
 19 20  1  0  0  0
M  END
> <minimizedAffinity>
-9.71216

> <CNNscore>
0.2095181495

> <CNNaffinity>
6.6509795189

> <CNN_VS>
1.3935009241

> <CNNaffinity_variance>
0.2082337588

$$$$
[H]c1c([H])c([H])c(N([H])S(=O)(=O)C([H])([H])[H])c(-c2c([H])c3c([H])nc(N([H])c4c([H])c([H])c(N5C([H])([H])C([H])([H])N(C([H])([H])[H])C([H])([H])C5([H])[H])c([H])c4[H])nc3n(C([H])([H])[H])c2=O)c1[H]


 39 43  0  0  0  0  0  0  0  0999 V2000
   33.6839   14.2455  -13.0863 C   0  0  0  0  0  0  0  0  0  0  0  0
   34.8488   14.9060  -13.0527 N   0  0  0  0  0  0  0  0  0  0  0  0
   35.9286   14.5743  -13.7617 C   0  0  0  0  0  0  0  0  0  0  0  0
   35.8278   13.4567  -14.5997 C   0  0  0  0  0  0  0  0  0  0  0  0
   36.9101   13.0832  -15.3565 C   0  0  0  0  0  0  0  0  0  0  0  0
   36.7762   11.9732  -16.1913 C   0  0  0  0  0  0  0  0  0  0  0  0
   35.5864   11.2881  -16.2378 C   0  0  0  0  0  0  0  0  0  0  0  0
   35.3836   10.2674  -16.9713 O   0  0  0  0  0  0  0  0  0  0  0  0
   34.5443   11.6846  -15.4781 N   0  0  0  0  0  0  0  0  0  0  0  0
   33.2724   10.9692  -15.5177 C   0  0  0  0  0  0  0  0  0  0  0  0
   34.6440   12.7531  -14.6625 C   0  0  0  0  0  0  0  0  0  0  0  0
   33.5938   13.1552  -13.9080 N   0  0  0  0  0  0  0  0  0  0  0  0
   37.8619   11.5525  -17.0559 C   0  0  0  0  0  0  0  0  0  0  0  0
   37.5225   10.9121  -18.2504 C   0  0  0  0  0  0  0  0  0  0  0  0
   38.5048   10.5352  -19.1540 C   0  0  0  0  0  0  0  0  0  0  0  0
   39.8152   10.8068  -18.8463 C   0  0  0  0  0  0  0  0  0  0  0  0
   40.1456   11.4438  -17.6534 C   0  0  0  0  0  0  0  0  0  0  0  0
   39.1827   11.8303  -16.7301 C   0  0  0  0  0  0  0  0  0  0  0  0
   39.5335   12.4156  -15.4975 N   0  0  0  0  0  0  0  0  0  0  0  0
   39.1700   11.9589  -14.6175 H   0  0  0  0  0  0  0  0  0  0  0  0
   40.5053   13.7997  -15.3634 S   0  0  0  0  0  0  0  0  0  0  0  0
   42.0081   13.5090  -14.4426 C   0  0  0  0  0  0  0  0  0  0  0  0
   39.7825   14.9374  -14.6524 O   0  0  0  0  0  0  0  0  0  0  0  0
   40.9157   14.3023  -16.7479 O   0  0  0  0  0  0  0  0  0  0  0  0
   32.5570   14.6281  -12.3299 N   0  0  0  0  0  0  0  0  0  0  0  0
   31.5833   14.5207  -12.7513 H   0  0  0  0  0  0  0  0  0  0  0  0
   32.6282   16.2765   -8.4131 C   0  0  0  0  0  0  0  0  0  0  0  0
   31.4439   15.9347   -9.0273 C   0  0  0  0  0  0  0  0  0  0  0  0
   31.4478   15.3871  -10.3037 C   0  0  0  0  0  0  0  0  0  0  0  0
   32.6254   15.1588  -11.0172 C   0  0  0  0  0  0  0  0  0  0  0  0
   33.7922   15.5124  -10.3727 C   0  0  0  0  0  0  0  0  0  0  0  0
   33.8113   16.0618   -9.0945 C   0  0  0  0  0  0  0  0  0  0  0  0
   33.1654   16.3963   -3.4813 C   0  0  0  0  0  0  0  0  0  0  0  0
   32.9321   17.5263   -4.3533 N   0  0  0  0  0  0  0  0  0  0  0  0
   31.6468   17.4317   -5.0175 C   0  0  0  0  0  0  0  0  0  0  0  0
   31.6618   16.3728   -6.1018 C   0  0  0  0  0  0  0  0  0  0  0  0
   32.6154   16.8213   -7.1170 N   0  0  0  0  0  0  0  0  0  0  0  0
   33.5030   17.8582   -6.7106 C   0  0  0  0  0  0  0  0  0  0  0  0
   34.0202   17.6548   -5.3006 C   0  0  0  0  0  0  0  0  0  0  0  0
 33 34  1  0  0  0
 34 35  1  0  0  0
 35 36  1  0  0  0
 36 37  1  0  0  0
 37 38  1  0  0  0
 38 39  1  0  0  0
 37 27  1  0  0  0
 27 28  2  0  0  0
 28 29  1  0  0  0
 29 30  2  0  0  0
 30 25  1  0  0  0
 25  1  1  0  0  0
  1  2  2  0  0  0
  2  3  1  0  0  0
  3  4  2  0  0  0
  4  5  1  0  0  0
  5  6  2  0  0  0
  6 13  1  0  0  0
 13 14  2  0  0  0
 14 15  1  0  0  0
 15 16  2  0  0  0
 16 17  1  0  0  0
 17 18  2  0  0  0
 18 19  1  0  0  0
 19 21  1  0  0  0
 21 22  1  0  0  0
 21 23  2  0  0  0
 21 24  2  0  0  0
  6  7  1  0  0  0
  7  8  2  0  0  0
  7  9  1  0  0  0
  9 10  1  0  0  0
  9 11  1  0  0  0
 11 12  2  0  0  0
 30 31  1  0  0  0
 31 32  2  0  0  0
 39 34  1  0  0  0
 32 27  1  0  0  0
 12  1  1  0  0  0
 11  4  1  0  0  0
 18 13  1  0  0  0
 25 26  1  0  0  0
 19 20  1  0  0  0
M  END
> <minimizedAffinity>
-9.76617

> <CNNscore>
0.2014082819

> <CNNaffinity>
6.8149809837

> <CNN_VS>
1.3725936413

> <CNNaffinity_variance>
0.0872411281

$$$$
[H]c1c([H])c([H])c(N([H])S(=O)(=O)C([H])([H])[H])c(-c2c([H])c3c([H])nc(N([H])c4c([H])c([H])c(N5C([H])([H])C([H])([H])N(C([H])([H])[H])C([H])([H])C5([H])[H])c([H])c4[H])nc3n(C([H])([H])[H])c2=O)c1[H]


 39 43  0  0  0  0  0  0  0  0999 V2000
   42.1556   15.7153  -12.1095 C   0  0  0  0  0  0  0  0  0  0  0  0
   40.8284   15.8762  -12.1949 N   0  0  0  0  0  0  0  0  0  0  0  0
   40.0517   15.2925  -13.1084 C   0  0  0  0  0  0  0  0  0  0  0  0
   40.6756   14.4518  -14.0388 C   0  0  0  0  0  0  0  0  0  0  0  0
   39.9155   13.8211  -14.9916 C   0  0  0  0  0  0  0  0  0  0  0  0
   40.5628   12.9800  -15.8973 C   0  0  0  0  0  0  0  0  0  0  0  0
   41.9230   12.8036  -15.8196 C   0  0  0  0  0  0  0  0  0  0  0  0
   42.5874   12.0552  -16.6066 O   0  0  0  0  0  0  0  0  0  0  0  0
   42.6374   13.4416  -14.8694 N   0  0  0  0  0  0  0  0  0  0  0  0
   44.0830   13.2631  -14.7716 C   0  0  0  0  0  0  0  0  0  0  0  0
   42.0395   14.2601  -13.9808 C   0  0  0  0  0  0  0  0  0  0  0  0
   42.7569   14.8920  -13.0219 N   0  0  0  0  0  0  0  0  0  0  0  0
   39.8162   12.2426  -16.8983 C   0  0  0  0  0  0  0  0  0  0  0  0
   40.3458   12.1938  -18.1902 C   0  0  0  0  0  0  0  0  0  0  0  0
   39.7177   11.4582  -19.1842 C   0  0  0  0  0  0  0  0  0  0  0  0
   38.5660   10.7808  -18.8674 C   0  0  0  0  0  0  0  0  0  0  0  0
   38.0435   10.8355  -17.5783 C   0  0  0  0  0  0  0  0  0  0  0  0
   38.6508   11.5656  -16.5647 C   0  0  0  0  0  0  0  0  0  0  0  0
   38.0780   11.6662  -15.2813 N   0  0  0  0  0  0  0  0  0  0  0  0
   38.6565   11.3406  -14.4601 H   0  0  0  0  0  0  0  0  0  0  0  0
   36.5236   12.2837  -14.9978 S   0  0  0  0  0  0  0  0  0  0  0  0
   35.2681   11.4935  -15.9929 C   0  0  0  0  0  0  0  0  0  0  0  0
   36.4367   13.7737  -15.3056 O   0  0  0  0  0  0  0  0  0  0  0  0
   36.1277   12.0870  -13.5340 O   0  0  0  0  0  0  0  0  0  0  0  0
   42.9475   16.3407  -11.1246 N   0  0  0  0  0  0  0  0  0  0  0  0
   42.9906   17.4057  -11.0869 H   0  0  0  0  0  0  0  0  0  0  0  0
   45.3384   14.2189   -8.3236 C   0  0  0  0  0  0  0  0  0  0  0  0
   45.9031   14.9085   -9.3736 C   0  0  0  0  0  0  0  0  0  0  0  0
   45.1009   15.6036  -10.2693 C   0  0  0  0  0  0  0  0  0  0  0  0
   43.7102   15.6401  -10.1567 C   0  0  0  0  0  0  0  0  0  0  0  0
   43.1784   14.9393   -9.0946 C   0  0  0  0  0  0  0  0  0  0  0  0
   43.9634   14.2369   -8.1855 C   0  0  0  0  0  0  0  0  0  0  0  0
   48.8730   11.0846   -6.8046 C   0  0  0  0  0  0  0  0  0  0  0  0
   48.1655   12.0494   -5.9920 N   0  0  0  0  0  0  0  0  0  0  0  0
   46.7479   11.7527   -5.9240 C   0  0  0  0  0  0  0  0  0  0  0  0
   46.0519   12.0786   -7.2302 C   0  0  0  0  0  0  0  0  0  0  0  0
   46.1589   13.5261   -7.4162 N   0  0  0  0  0  0  0  0  0  0  0  0
   47.1256   14.1805   -6.6004 C   0  0  0  0  0  0  0  0  0  0  0  0
   48.4129   13.3889   -6.4842 C   0  0  0  0  0  0  0  0  0  0  0  0
 33 34  1  0  0  0
 34 35  1  0  0  0
 35 36  1  0  0  0
 36 37  1  0  0  0
 37 38  1  0  0  0
 38 39  1  0  0  0
 37 27  1  0  0  0
 27 28  2  0  0  0
 28 29  1  0  0  0
 29 30  2  0  0  0
 30 25  1  0  0  0
 25  1  1  0  0  0
  1  2  2  0  0  0
  2  3  1  0  0  0
  3  4  2  0  0  0
  4  5  1  0  0  0
  5  6  2  0  0  0
  6 13  1  0  0  0
 13 14  2  0  0  0
 14 15  1  0  0  0
 15 16  2  0  0  0
 16 17  1  0  0  0
 17 18  2  0  0  0
 18 19  1  0  0  0
 19 21  1  0  0  0
 21 22  1  0  0  0
 21 23  2  0  0  0
 21 24  2  0  0  0
  6  7  1  0  0  0
  7  8  2  0  0  0
  7  9  1  0  0  0
  9 10  1  0  0  0
  9 11  1  0  0  0
 11 12  2  0  0  0
 30 31  1  0  0  0
 31 32  2  0  0  0
 39 34  1  0  0  0
 32 27  1  0  0  0
 12  1  1  0  0  0
 11  4  1  0  0  0
 18 13  1  0  0  0
 25 26  1  0  0  0
 19 20  1  0  0  0
M  END
> <minimizedAffinity>
-8.23886

> <CNNscore>
0.0853138193

> <CNNaffinity>
6.0945272446

> <CNN_VS>
0.5199474096

> <CNNaffinity_variance>
0.2066125423

$$$$
[H]c1c([H])c([H])c(N([H])S(=O)(=O)C([H])([H])[H])c(-c2c([H])c3c([H])nc(N([H])c4c([H])c([H])c(N5C([H])([H])C([H])([H])N(C([H])([H])[H])C([H])([H])C5([H])[H])c([H])c4[H])nc3n(C([H])([H])[H])c2=O)c1[H]


 39 43  0  0  0  0  0  0  0  0999 V2000
   35.0243   14.6260  -12.3790 C   0  0  0  0  0  0  0  0  0  0  0  0
   36.2563   15.1156  -12.5710 N   0  0  0  0  0  0  0  0  0  0  0  0
   37.1140   14.6700  -13.4899 C   0  0  0  0  0  0  0  0  0  0  0  0
   36.6873   13.6173  -14.3092 C   0  0  0  0  0  0  0  0  0  0  0  0
   37.5319   13.1322  -15.2761 C   0  0  0  0  0  0  0  0  0  0  0  0
   37.0749   12.0915  -16.0854 C   0  0  0  0  0  0  0  0  0  0  0  0
   35.8126   11.5816  -15.9014 C   0  0  0  0  0  0  0  0  0  0  0  0
   35.3220   10.6341  -16.5961 O   0  0  0  0  0  0  0  0  0  0  0  0
   35.0109   12.0838  -14.9394 N   0  0  0  0  0  0  0  0  0  0  0  0
   33.6660   11.5550  -14.7325 C   0  0  0  0  0  0  0  0  0  0  0  0
   35.4250   13.0891  -14.1427 C   0  0  0  0  0  0  0  0  0  0  0  0
   34.6153   13.5981  -13.1840 N   0  0  0  0  0  0  0  0  0  0  0  0
   37.8945   11.5642  -17.1594 C   0  0  0  0  0  0  0  0  0  0  0  0
   37.2393   11.1189  -18.3102 C   0  0  0  0  0  0  0  0  0  0  0  0
   37.9612   10.6574  -19.4008 C   0  0  0  0  0  0  0  0  0  0  0  0
   39.3321   10.6496  -19.3213 C   0  0  0  0  0  0  0  0  0  0  0  0
   39.9778   11.0934  -18.1707 C   0  0  0  0  0  0  0  0  0  0  0  0
   39.2796   11.5587  -17.0638 C   0  0  0  0  0  0  0  0  0  0  0  0
   39.9413   11.9443  -15.8812 N   0  0  0  0  0  0  0  0  0  0  0  0
   39.6733   11.4507  -14.9870 H   0  0  0  0  0  0  0  0  0  0  0  0
   41.1377   13.1459  -15.8293 S   0  0  0  0  0  0  0  0  0  0  0  0
   41.2893   13.9088  -14.2213 C   0  0  0  0  0  0  0  0  0  0  0  0
   40.8546   14.2755  -16.8124 O   0  0  0  0  0  0  0  0  0  0  0  0
   42.5046   12.5566  -16.1788 O   0  0  0  0  0  0  0  0  0  0  0  0
   34.1378   15.1264  -11.4032 N   0  0  0  0  0  0  0  0  0  0  0  0
   33.1178   15.2988  -11.6627 H   0  0  0  0  0  0  0  0  0  0  0  0
   35.3422   15.8992   -7.4013 C   0  0  0  0  0  0  0  0  0  0  0  0
   36.1393   15.1822   -8.2657 C   0  0  0  0  0  0  0  0  0  0  0  0
   35.7283   14.9525   -9.5724 C   0  0  0  0  0  0  0  0  0  0  0  0
   34.5126   15.4250  -10.0692 C   0  0  0  0  0  0  0  0  0  0  0  0
   33.7399   16.1386   -9.1772 C   0  0  0  0  0  0  0  0  0  0  0  0
   34.1325   16.3807   -7.8645 C   0  0  0  0  0  0  0  0  0  0  0  0
   36.6868   18.5332   -3.4164 C   0  0  0  0  0  0  0  0  0  0  0  0
   36.4276   17.1111   -3.4657 N   0  0  0  0  0  0  0  0  0  0  0  0
   37.3698   16.4264   -4.3290 C   0  0  0  0  0  0  0  0  0  0  0  0
   37.0852   16.7079   -5.7908 C   0  0  0  0  0  0  0  0  0  0  0  0
   35.7708   16.1352   -6.0832 N   0  0  0  0  0  0  0  0  0  0  0  0
   34.9751   15.8117   -4.9471 C   0  0  0  0  0  0  0  0  0  0  0  0
   35.0565   16.8705   -3.8658 C   0  0  0  0  0  0  0  0  0  0  0  0
 33 34  1  0  0  0
 34 35  1  0  0  0
 35 36  1  0  0  0
 36 37  1  0  0  0
 37 38  1  0  0  0
 38 39  1  0  0  0
 37 27  1  0  0  0
 27 28  2  0  0  0
 28 29  1  0  0  0
 29 30  2  0  0  0
 30 25  1  0  0  0
 25  1  1  0  0  0
  1  2  2  0  0  0
  2  3  1  0  0  0
  3  4  2  0  0  0
  4  5  1  0  0  0
  5  6  2  0  0  0
  6 13  1  0  0  0
 13 14  2  0  0  0
 14 15  1  0  0  0
 15 16  2  0  0  0
 16 17  1  0  0  0
 17 18  2  0  0  0
 18 19  1  0  0  0
 19 21  1  0  0  0
 21 22  1  0  0  0
 21 23  2  0  0  0
 21 24  2  0  0  0
  6  7  1  0  0  0
  7  8  2  0  0  0
  7  9  1  0  0  0
  9 10  1  0  0  0
  9 11  1  0  0  0
 11 12  2  0  0  0
 30 31  1  0  0  0
 31 32  2  0  0  0
 39 34  1  0  0  0
 32 27  1  0  0  0
 12  1  1  0  0  0
 11  4  1  0  0  0
 18 13  1  0  0  0
 25 26  1  0  0  0
 19 20  1  0  0  0
M  END
> <minimizedAffinity>
-9.08540

> <CNNscore>
0.0793056116

> <CNNaffinity>
6.5324630737

> <CNN_VS>
0.5180609822

> <CNNaffinity_variance>
0.1846590787

$$$$
[H]c1c([H])c([H])c(N([H])S(=O)(=O)C([H])([H])[H])c(-c2c([H])c3c([H])nc(N([H])c4c([H])c([H])c(N5C([H])([H])C([H])([H])N(C([H])([H])[H])C([H])([H])C5([H])[H])c([H])c4[H])nc3n(C([H])([H])[H])c2=O)c1[H]


 39 43  0  0  0  0  0  0  0  0999 V2000
   41.8390   15.5723  -12.5510 C   0  0  0  0  0  0  0  0  0  0  0  0
   40.5922   15.8460  -12.1446 N   0  0  0  0  0  0  0  0  0  0  0  0
   39.4884   15.3278  -12.6847 C   0  0  0  0  0  0  0  0  0  0  0  0
   39.6539   14.4335  -13.7498 C   0  0  0  0  0  0  0  0  0  0  0  0
   38.5472   13.8668  -14.3308 C   0  0  0  0  0  0  0  0  0  0  0  0
   38.7435   12.9702  -15.3817 C   0  0  0  0  0  0  0  0  0  0  0  0
   40.0168   12.6783  -15.8069 C   0  0  0  0  0  0  0  0  0  0  0  0
   40.2803   11.8730  -16.7572 O   0  0  0  0  0  0  0  0  0  0  0  0
   41.0807   13.2562  -15.2116 N   0  0  0  0  0  0  0  0  0  0  0  0
   42.4403   12.9548  -15.6497 C   0  0  0  0  0  0  0  0  0  0  0  0
   40.9220   14.1259  -14.1941 C   0  0  0  0  0  0  0  0  0  0  0  0
   41.9916   14.6974  -13.5917 N   0  0  0  0  0  0  0  0  0  0  0  0
   37.6230   12.2959  -16.0087 C   0  0  0  0  0  0  0  0  0  0  0  0
   37.9120   11.3314  -16.9772 C   0  0  0  0  0  0  0  0  0  0  0  0
   36.8942   10.6042  -17.5763 C   0  0  0  0  0  0  0  0  0  0  0  0
   35.5993   10.8551  -17.1943 C   0  0  0  0  0  0  0  0  0  0  0  0
   35.3191   11.8189  -16.2297 C   0  0  0  0  0  0  0  0  0  0  0  0
   36.3184   12.5626  -15.6153 C   0  0  0  0  0  0  0  0  0  0  0  0
   36.0183   13.5800  -14.6880 N   0  0  0  0  0  0  0  0  0  0  0  0
   36.4178   14.5406  -14.8688 H   0  0  0  0  0  0  0  0  0  0  0  0
   35.0524   13.3372  -13.3147 S   0  0  0  0  0  0  0  0  0  0  0  0
   35.3318   14.5590  -12.0419 C   0  0  0  0  0  0  0  0  0  0  0  0
   35.3102   11.9814  -12.6684 O   0  0  0  0  0  0  0  0  0  0  0  0
   33.5701   13.4025  -13.6839 O   0  0  0  0  0  0  0  0  0  0  0  0
   42.9866   16.1311  -11.9518 N   0  0  0  0  0  0  0  0  0  0  0  0
   43.5009   16.9241  -12.4458 H   0  0  0  0  0  0  0  0  0  0  0  0
   44.5872   14.7161   -8.2776 C   0  0  0  0  0  0  0  0  0  0  0  0
   44.8170   14.0547   -9.4636 C   0  0  0  0  0  0  0  0  0  0  0  0
   44.2921   14.5435  -10.6530 C   0  0  0  0  0  0  0  0  0  0  0  0
   43.5206   15.7052  -10.7097 C   0  0  0  0  0  0  0  0  0  0  0  0
   43.3104   16.3419   -9.5046 C   0  0  0  0  0  0  0  0  0  0  0  0
   43.8270   15.8700   -8.3019 C   0  0  0  0  0  0  0  0  0  0  0  0
   47.2173   11.7110   -5.3320 C   0  0  0  0  0  0  0  0  0  0  0  0
   46.6072   12.9686   -4.9607 N   0  0  0  0  0  0  0  0  0  0  0  0
   45.1628   12.9156   -5.0754 C   0  0  0  0  0  0  0  0  0  0  0  0
   44.7229   12.9279   -6.5257 C   0  0  0  0  0  0  0  0  0  0  0  0
   45.1306   14.2193   -7.0799 N   0  0  0  0  0  0  0  0  0  0  0  0
   46.0878   14.9425   -6.3124 C   0  0  0  0  0  0  0  0  0  0  0  0
   47.1713   14.0452   -5.7483 C   0  0  0  0  0  0  0  0  0  0  0  0
 33 34  1  0  0  0
 34 35  1  0  0  0
 35 36  1  0  0  0
 36 37  1  0  0  0
 37 38  1  0  0  0
 38 39  1  0  0  0
 37 27  1  0  0  0
 27 28  2  0  0  0
 28 29  1  0  0  0
 29 30  2  0  0  0
 30 25  1  0  0  0
 25  1  1  0  0  0
  1  2  2  0  0  0
  2  3  1  0  0  0
  3  4  2  0  0  0
  4  5  1  0  0  0
  5  6  2  0  0  0
  6 13  1  0  0  0
 13 14  2  0  0  0
 14 15  1  0  0  0
 15 16  2  0  0  0
 16 17  1  0  0  0
 17 18  2  0  0  0
 18 19  1  0  0  0
 19 21  1  0  0  0
 21 22  1  0  0  0
 21 23  2  0  0  0
 21 24  2  0  0  0
  6  7  1  0  0  0
  7  8  2  0  0  0
  7  9  1  0  0  0
  9 10  1  0  0  0
  9 11  1  0  0  0
 11 12  2  0  0  0
 30 31  1  0  0  0
 31 32  2  0  0  0
 39 34  1  0  0  0
 32 27  1  0  0  0
 12  1  1  0  0  0
 11  4  1  0  0  0
 18 13  1  0  0  0
 25 26  1  0  0  0
 19 20  1  0  0  0
M  END
> <minimizedAffinity>
-8.94632

> <CNNscore>
0.0755842179

> <CNNaffinity>
6.1569137573

> <CNN_VS>
0.4653654993

> <CNNaffinity_variance>
0.1054394394

$$$$
[H]c1c([H])c([H])c(N([H])S(=O)(=O)C([H])([H])[H])c(-c2c([H])c3c([H])nc(N([H])c4c([H])c([H])c(N5C([H])([H])C([H])([H])N(C([H])([H])[H])C([H])([H])C5([H])[H])c([H])c4[H])nc3n(C([H])([H])[H])c2=O)c1[H]


 39 43  0  0  0  0  0  0  0  0999 V2000
   42.7850   13.0484  -15.3647 C   0  0  0  0  0  0  0  0  0  0  0  0
   42.2299   13.4675  -14.2198 N   0  0  0  0  0  0  0  0  0  0  0  0
   42.9140   13.9000  -13.1599 C   0  0  0  0  0  0  0  0  0  0  0  0
   44.3109   13.9162  -13.2605 C   0  0  0  0  0  0  0  0  0  0  0  0
   45.0569   14.3630  -12.1987 C   0  0  0  0  0  0  0  0  0  0  0  0
   46.4457   14.3794  -12.3324 C   0  0  0  0  0  0  0  0  0  0  0  0
   47.0282   13.9551  -13.5020 C   0  0  0  0  0  0  0  0  0  0  0  0
   48.2853   13.9387  -13.7031 O   0  0  0  0  0  0  0  0  0  0  0  0
   46.2618   13.5215  -14.5242 N   0  0  0  0  0  0  0  0  0  0  0  0
   46.8650   13.0697  -15.7745 C   0  0  0  0  0  0  0  0  0  0  0  0
   44.9179   13.4945  -14.4241 C   0  0  0  0  0  0  0  0  0  0  0  0
   44.1500   13.0680  -15.4547 N   0  0  0  0  0  0  0  0  0  0  0  0
   47.2933   14.8858  -11.2702 C   0  0  0  0  0  0  0  0  0  0  0  0
   47.4863   14.0669  -10.1548 C   0  0  0  0  0  0  0  0  0  0  0  0
   48.3311   14.4597   -9.1273 C   0  0  0  0  0  0  0  0  0  0  0  0
   48.9713   15.6698   -9.2339 C   0  0  0  0  0  0  0  0  0  0  0  0
   48.7727   16.4810  -10.3476 C   0  0  0  0  0  0  0  0  0  0  0  0
   47.9312   16.1132  -11.3896 C   0  0  0  0  0  0  0  0  0  0  0  0
   47.6878   16.9708  -12.4808 N   0  0  0  0  0  0  0  0  0  0  0  0
   48.3602   16.9312  -13.2941 H   0  0  0  0  0  0  0  0  0  0  0  0
   46.3777   18.0463  -12.5496 S   0  0  0  0  0  0  0  0  0  0  0  0
   45.1638   17.5877  -13.7772 C   0  0  0  0  0  0  0  0  0  0  0  0
   46.8203   19.4630  -12.8956 O   0  0  0  0  0  0  0  0  0  0  0  0
   45.6571   18.1000  -11.2020 O   0  0  0  0  0  0  0  0  0  0  0  0
   42.0317   12.6050  -16.4712 N   0  0  0  0  0  0  0  0  0  0  0  0
   42.5312   12.3726  -17.3844 H   0  0  0  0  0  0  0  0  0  0  0  0
   37.8095   12.1536  -16.2918 C   0  0  0  0  0  0  0  0  0  0  0  0
   38.4744   13.0290  -15.4621 C   0  0  0  0  0  0  0  0  0  0  0  0
   39.8538   13.1668  -15.5478 C   0  0  0  0  0  0  0  0  0  0  0  0
   40.6237   12.4418  -16.4586 C   0  0  0  0  0  0  0  0  0  0  0  0
   39.9262   11.5750  -17.2735 C   0  0  0  0  0  0  0  0  0  0  0  0
   38.5449   11.4219  -17.2048 C   0  0  0  0  0  0  0  0  0  0  0  0
   33.4541   10.2923  -14.8116 C   0  0  0  0  0  0  0  0  0  0  0  0
   33.6637   11.5132  -15.5581 N   0  0  0  0  0  0  0  0  0  0  0  0
   34.2473   11.2499  -16.8590 C   0  0  0  0  0  0  0  0  0  0  0  0
   35.7078   10.8627  -16.7412 C   0  0  0  0  0  0  0  0  0  0  0  0
   36.4119   12.0278  -16.2046 N   0  0  0  0  0  0  0  0  0  0  0  0
   35.5855   13.0284  -15.6178 C   0  0  0  0  0  0  0  0  0  0  0  0
   34.4673   12.4363  -14.7836 C   0  0  0  0  0  0  0  0  0  0  0  0
 33 34  1  0  0  0
 34 35  1  0  0  0
 35 36  1  0  0  0
 36 37  1  0  0  0
 37 38  1  0  0  0
 38 39  1  0  0  0
 37 27  1  0  0  0
 27 28  2  0  0  0
 28 29  1  0  0  0
 29 30  2  0  0  0
 30 25  1  0  0  0
 25  1  1  0  0  0
  1  2  2  0  0  0
  2  3  1  0  0  0
  3  4  2  0  0  0
  4  5  1  0  0  0
  5  6  2  0  0  0
  6 13  1  0  0  0
 13 14  2  0  0  0
 14 15  1  0  0  0
 15 16  2  0  0  0
 16 17  1  0  0  0
 17 18  2  0  0  0
 18 19  1  0  0  0
 19 21  1  0  0  0
 21 22  1  0  0  0
 21 23  2  0  0  0
 21 24  2  0  0  0
  6  7  1  0  0  0
  7  8  2  0  0  0
  7  9  1  0  0  0
  9 10  1  0  0  0
  9 11  1  0  0  0
 11 12  2  0  0  0
 30 31  1  0  0  0
 31 32  2  0  0  0
 39 34  1  0  0  0
 32 27  1  0  0  0
 12  1  1  0  0  0
 11  4  1  0  0  0
 18 13  1  0  0  0
 25 26  1  0  0  0
 19 20  1  0  0  0
M  END
> <minimizedAffinity>
-7.32088

> <CNNscore>
0.0702336952

> <CNNaffinity>
6.3154611588

> <CNN_VS>
0.4435581863

> <CNNaffinity_variance>
0.0768920183

$$$$
[H]c1nc(N([H])c2c([H])c([H])c(C(=O)OC([H])([H])[H])c([H])c2[H])nc(Sc2c([H])c([H])c([H])c([H])c2[H])c1-c1c([H])c([H])c2c(c1[H])C([H])([H])C(=O)N2[H]


 36 40  0  0  0  0  0  0  0  0999 V2000
   37.0542   15.1260  -12.9219 C   0  0  0  0  0  0  0  0  0  0  0  0
   38.2513   15.6104  -12.6837 N   0  0  0  0  0  0  0  0  0  0  0  0
   39.3641   15.1505  -13.2783 C   0  0  0  0  0  0  0  0  0  0  0  0
   39.2840   14.1211  -14.1881 C   0  0  0  0  0  0  0  0  0  0  0  0
   38.0351   13.6010  -14.4500 C   0  0  0  0  0  0  0  0  0  0  0  0
   36.9610   14.1105  -13.8171 N   0  0  0  0  0  0  0  0  0  0  0  0
   40.5186   13.6544  -14.8002 C   0  0  0  0  0  0  0  0  0  0  0  0
   40.4010   13.0912  -16.0741 C   0  0  0  0  0  0  0  0  0  0  0  0
   41.4867   12.6273  -16.7419 C   0  0  0  0  0  0  0  0  0  0  0  0
   42.7338   12.7157  -16.1454 C   0  0  0  0  0  0  0  0  0  0  0  0
   43.9934   12.2986  -16.6545 N   0  0  0  0  0  0  0  0  0  0  0  0
   44.9570   12.6037  -15.6740 C   0  0  0  0  0  0  0  0  0  0  0  0
   46.2085   12.3762  -15.7704 O   0  0  0  0  0  0  0  0  0  0  0  0
   44.2893   13.2260  -14.5233 C   0  0  0  0  0  0  0  0  0  0  0  0
   42.8642   13.2659  -14.8959 C   0  0  0  0  0  0  0  0  0  0  0  0
   41.7427   13.7449  -14.2069 C   0  0  0  0  0  0  0  0  0  0  0  0
   44.1746   11.8422  -17.5975 H   0  0  0  0  0  0  0  0  0  0  0  0
   35.8834   15.5898  -12.3138 N   0  0  0  0  0  0  0  0  0  0  0  0
   34.9604   15.5929  -12.8941 H   0  0  0  0  0  0  0  0  0  0  0  0
   35.6486   17.1478   -8.4062 C   0  0  0  0  0  0  0  0  0  0  0  0
   36.6953   17.4426   -9.2451 C   0  0  0  0  0  0  0  0  0  0  0  0
   36.7552   16.9140  -10.5163 C   0  0  0  0  0  0  0  0  0  0  0  0
   35.7591   16.0589  -11.0066 C   0  0  0  0  0  0  0  0  0  0  0  0
   34.7332   15.7767  -10.1716 C   0  0  0  0  0  0  0  0  0  0  0  0
   34.6743   16.3190   -8.8699 C   0  0  0  0  0  0  0  0  0  0  0  0
   35.5597   17.6949   -7.0504 C   0  0  0  0  0  0  0  0  0  0  0  0
   36.2361   17.1966   -6.1232 O   0  0  0  0  0  0  0  0  0  0  0  0
   35.0514   20.0992   -7.1280 C   0  0  0  0  0  0  0  0  0  0  0  0
   34.7356   18.7691   -6.7463 O   0  0  0  0  0  0  0  0  0  0  0  0
   37.8679   12.2709  -15.6250 S   0  0  0  0  0  0  0  0  0  0  0  0
   36.1396   11.8369  -15.7115 C   0  0  0  0  0  0  0  0  0  0  0  0
   35.2127   12.2373  -14.7784 C   0  0  0  0  0  0  0  0  0  0  0  0
   33.8647   11.8853  -14.8666 C   0  0  0  0  0  0  0  0  0  0  0  0
   33.4898   11.1082  -15.9414 C   0  0  0  0  0  0  0  0  0  0  0  0
   34.3901   10.6864  -16.8984 C   0  0  0  0  0  0  0  0  0  0  0  0
   35.7100   11.0621  -16.7641 C   0  0  0  0  0  0  0  0  0  0  0  0
 28 29  1  0  0  0
 29 26  1  0  0  0
 26 27  2  0  0  0
 26 20  1  0  0  0
 20 21  2  0  0  0
 21 22  1  0  0  0
 22 23  2  0  0  0
 23 18  1  0  0  0
 18  1  1  0  0  0
  1  2  2  0  0  0
  2  3  1  0  0  0
  3  4  2  0  0  0
  4  5  1  0  0  0
  5 30  1  0  0  0
 30 31  1  0  0  0
 31 32  2  0  0  0
 32 33  1  0  0  0
 33 34  2  0  0  0
 34 35  1  0  0  0
 35 36  2  0  0  0
  5  6  2  0  0  0
  4  7  1  0  0  0
  7  8  2  0  0  0
  8  9  1  0  0  0
  9 10  2  0  0  0
 10 11  1  0  0  0
 11 12  1  0  0  0
 12 13  2  0  0  0
 12 14  1  0  0  0
 14 15  1  0  0  0
 15 16  2  0  0  0
 23 24  1  0  0  0
 24 25  2  0  0  0
 25 20  1  0  0  0
  6  1  1  0  0  0
 16  7  1  0  0  0
 36 31  1  0  0  0
 15 10  1  0  0  0
 18 19  1  0  0  0
 11 17  1  0  0  0
M  END
> <minimizedAffinity>
-10.18666

> <CNNscore>
0.2374327481

> <CNNaffinity>
6.7090530396

> <CNN_VS>
1.5929489136

> <CNNaffinity_variance>
0.2109279633

$$$$
[H]c1nc(N([H])c2c([H])c([H])c(C(=O)OC([H])([H])[H])c([H])c2[H])nc(Sc2c([H])c([H])c([H])c([H])c2[H])c1-c1c([H])c([H])c2c(c1[H])C([H])([H])C(=O)N2[H]


 36 40  0  0  0  0  0  0  0  0999 V2000
   43.1783   13.2473  -15.9697 C   0  0  0  0  0  0  0  0  0  0  0  0
   42.8176   12.2633  -16.7610 N   0  0  0  0  0  0  0  0  0  0  0  0
   41.5409   11.8818  -16.9275 C   0  0  0  0  0  0  0  0  0  0  0  0
   40.5338   12.5316  -16.2512 C   0  0  0  0  0  0  0  0  0  0  0  0
   40.8948   13.5670  -15.4165 C   0  0  0  0  0  0  0  0  0  0  0  0
   42.1950   13.8966  -15.2968 N   0  0  0  0  0  0  0  0  0  0  0  0
   39.1678   12.0767  -16.4606 C   0  0  0  0  0  0  0  0  0  0  0  0
   38.9583   11.2390  -17.5598 C   0  0  0  0  0  0  0  0  0  0  0  0
   37.7262   10.7507  -17.8484 C   0  0  0  0  0  0  0  0  0  0  0  0
   36.6582   11.0919  -17.0348 C   0  0  0  0  0  0  0  0  0  0  0  0
   35.2964   10.7011  -17.1465 N   0  0  0  0  0  0  0  0  0  0  0  0
   34.6035   11.3084  -16.0815 C   0  0  0  0  0  0  0  0  0  0  0  0
   33.3549   11.1908  -15.8485 O   0  0  0  0  0  0  0  0  0  0  0  0
   35.5497   12.0983  -15.2829 C   0  0  0  0  0  0  0  0  0  0  0  0
   36.8489   11.9128  -15.9529 C   0  0  0  0  0  0  0  0  0  0  0  0
   38.1216   12.4166  -15.6554 C   0  0  0  0  0  0  0  0  0  0  0  0
   34.8789   10.0695  -17.8930 H   0  0  0  0  0  0  0  0  0  0  0  0
   44.5012   13.6601  -15.7819 N   0  0  0  0  0  0  0  0  0  0  0  0
   45.2145   13.5095  -16.5926 H   0  0  0  0  0  0  0  0  0  0  0  0
   46.1241   15.3052  -12.2590 C   0  0  0  0  0  0  0  0  0  0  0  0
   45.7574   13.9844  -12.3431 C   0  0  0  0  0  0  0  0  0  0  0  0
   45.2203   13.4706  -13.5035 C   0  0  0  0  0  0  0  0  0  0  0  0
   45.0256   14.2659  -14.6407 C   0  0  0  0  0  0  0  0  0  0  0  0
   45.3912   15.5646  -14.5459 C   0  0  0  0  0  0  0  0  0  0  0  0
   45.9408   16.0886  -13.3562 C   0  0  0  0  0  0  0  0  0  0  0  0
   46.6967   15.8780  -11.0385 C   0  0  0  0  0  0  0  0  0  0  0  0
   47.9280   16.0841  -10.9556 O   0  0  0  0  0  0  0  0  0  0  0  0
   45.2957   17.4815   -9.8094 C   0  0  0  0  0  0  0  0  0  0  0  0
   45.9093   16.2088   -9.9448 O   0  0  0  0  0  0  0  0  0  0  0  0
   39.6331   14.4509  -14.5197 S   0  0  0  0  0  0  0  0  0  0  0  0
   40.3952   15.1672  -13.0744 C   0  0  0  0  0  0  0  0  0  0  0  0
   39.6840   15.7868  -12.0742 C   0  0  0  0  0  0  0  0  0  0  0  0
   40.3022   16.3405  -10.9517 C   0  0  0  0  0  0  0  0  0  0  0  0
   41.6751   16.2422  -10.8809 C   0  0  0  0  0  0  0  0  0  0  0  0
   42.4239   15.6281  -11.8640 C   0  0  0  0  0  0  0  0  0  0  0  0
   41.7637   15.0975  -12.9521 C   0  0  0  0  0  0  0  0  0  0  0  0
 28 29  1  0  0  0
 29 26  1  0  0  0
 26 27  2  0  0  0
 26 20  1  0  0  0
 20 21  2  0  0  0
 21 22  1  0  0  0
 22 23  2  0  0  0
 23 18  1  0  0  0
 18  1  1  0  0  0
  1  2  2  0  0  0
  2  3  1  0  0  0
  3  4  2  0  0  0
  4  5  1  0  0  0
  5 30  1  0  0  0
 30 31  1  0  0  0
 31 32  2  0  0  0
 32 33  1  0  0  0
 33 34  2  0  0  0
 34 35  1  0  0  0
 35 36  2  0  0  0
  5  6  2  0  0  0
  4  7  1  0  0  0
  7  8  2  0  0  0
  8  9  1  0  0  0
  9 10  2  0  0  0
 10 11  1  0  0  0
 11 12  1  0  0  0
 12 13  2  0  0  0
 12 14  1  0  0  0
 14 15  1  0  0  0
 15 16  2  0  0  0
 23 24  1  0  0  0
 24 25  2  0  0  0
 25 20  1  0  0  0
  6  1  1  0  0  0
 16  7  1  0  0  0
 36 31  1  0  0  0
 15 10  1  0  0  0
 18 19  1  0  0  0
 11 17  1  0  0  0
M  END
> <minimizedAffinity>
-8.66404

> <CNNscore>
0.2353307605

> <CNNaffinity>
6.8127861023

> <CNN_VS>
1.6032581329

> <CNNaffinity_variance>
0.2218765318

$$$$
[H]c1nc(N([H])c2c([H])c([H])c(C(=O)OC([H])([H])[H])c([H])c2[H])nc(Sc2c([H])c([H])c([H])c([H])c2[H])c1-c1c([H])c([H])c2c(c1[H])C([H])([H])C(=O)N2[H]


 36 40  0  0  0  0  0  0  0  0999 V2000
   39.9257   15.7926  -12.3121 C   0  0  0  0  0  0  0  0  0  0  0  0
   38.7106   15.8278  -11.8152 N   0  0  0  0  0  0  0  0  0  0  0  0
   37.6905   15.1091  -12.3114 C   0  0  0  0  0  0  0  0  0  0  0  0
   37.8916   14.2836  -13.3940 C   0  0  0  0  0  0  0  0  0  0  0  0
   39.1611   14.2345  -13.9278 C   0  0  0  0  0  0  0  0  0  0  0  0
   40.1377   14.9826  -13.3799 N   0  0  0  0  0  0  0  0  0  0  0  0
   36.7533   13.5306  -13.8981 C   0  0  0  0  0  0  0  0  0  0  0  0
   35.6336   13.4726  -13.0634 C   0  0  0  0  0  0  0  0  0  0  0  0
   34.5136   12.8026  -13.4331 C   0  0  0  0  0  0  0  0  0  0  0  0
   34.4843   12.1652  -14.6626 C   0  0  0  0  0  0  0  0  0  0  0  0
   33.4298   11.4136  -15.2483 N   0  0  0  0  0  0  0  0  0  0  0  0
   33.8860   10.9715  -16.5051 C   0  0  0  0  0  0  0  0  0  0  0  0
   33.2158   10.2647  -17.3288 O   0  0  0  0  0  0  0  0  0  0  0  0
   35.2570   11.4551  -16.7144 C   0  0  0  0  0  0  0  0  0  0  0  0
   35.5755   12.2136  -15.4919 C   0  0  0  0  0  0  0  0  0  0  0  0
   36.7316   12.9059  -15.1096 C   0  0  0  0  0  0  0  0  0  0  0  0
   32.4763   11.2211  -14.8192 H   0  0  0  0  0  0  0  0  0  0  0  0
   41.0013   16.5327  -11.8111 N   0  0  0  0  0  0  0  0  0  0  0  0
   40.7938   17.4713  -11.2967 H   0  0  0  0  0  0  0  0  0  0  0  0
   45.0353   15.3272  -11.9699 C   0  0  0  0  0  0  0  0  0  0  0  0
   44.1220   14.7058  -11.1539 C   0  0  0  0  0  0  0  0  0  0  0  0
   42.8094   15.1233  -11.1121 C   0  0  0  0  0  0  0  0  0  0  0  0
   42.3509   16.1921  -11.8939 C   0  0  0  0  0  0  0  0  0  0  0  0
   43.2593   16.7955  -12.6939 C   0  0  0  0  0  0  0  0  0  0  0  0
   44.6032   16.3662  -12.7347 C   0  0  0  0  0  0  0  0  0  0  0  0
   46.4363   14.9047  -12.0338 C   0  0  0  0  0  0  0  0  0  0  0  0
   47.3483   15.7559  -12.1304 O   0  0  0  0  0  0  0  0  0  0  0  0
   47.2348   12.8612  -13.1435 C   0  0  0  0  0  0  0  0  0  0  0  0
   46.8009   13.5665  -11.9907 O   0  0  0  0  0  0  0  0  0  0  0  0
   39.4839   13.1776  -15.3265 S   0  0  0  0  0  0  0  0  0  0  0  0
   41.2535   13.0331  -15.5009 C   0  0  0  0  0  0  0  0  0  0  0  0
   42.1460   13.5266  -14.5791 C   0  0  0  0  0  0  0  0  0  0  0  0
   43.5275   13.4019  -14.7367 C   0  0  0  0  0  0  0  0  0  0  0  0
   43.9723   12.7550  -15.8695 C   0  0  0  0  0  0  0  0  0  0  0  0
   43.1083   12.2461  -16.8176 C   0  0  0  0  0  0  0  0  0  0  0  0
   41.7529   12.3962  -16.6135 C   0  0  0  0  0  0  0  0  0  0  0  0
 28 29  1  0  0  0
 29 26  1  0  0  0
 26 27  2  0  0  0
 26 20  1  0  0  0
 20 21  2  0  0  0
 21 22  1  0  0  0
 22 23  2  0  0  0
 23 18  1  0  0  0
 18  1  1  0  0  0
  1  2  2  0  0  0
  2  3  1  0  0  0
  3  4  2  0  0  0
  4  5  1  0  0  0
  5 30  1  0  0  0
 30 31  1  0  0  0
 31 32  2  0  0  0
 32 33  1  0  0  0
 33 34  2  0  0  0
 34 35  1  0  0  0
 35 36  2  0  0  0
  5  6  2  0  0  0
  4  7  1  0  0  0
  7  8  2  0  0  0
  8  9  1  0  0  0
  9 10  2  0  0  0
 10 11  1  0  0  0
 11 12  1  0  0  0
 12 13  2  0  0  0
 12 14  1  0  0  0
 14 15  1  0  0  0
 15 16  2  0  0  0
 23 24  1  0  0  0
 24 25  2  0  0  0
 25 20  1  0  0  0
  6  1  1  0  0  0
 16  7  1  0  0  0
 36 31  1  0  0  0
 15 10  1  0  0  0
 18 19  1  0  0  0
 11 17  1  0  0  0
M  END
> <minimizedAffinity>
-8.98996

> <CNNscore>
0.1816413850

> <CNNaffinity>
6.7669601440

> <CNN_VS>
1.2291600704

> <CNNaffinity_variance>
0.1051026583

$$$$
[H]c1nc(N([H])c2c([H])c([H])c(C(=O)OC([H])([H])[H])c([H])c2[H])nc(Sc2c([H])c([H])c([H])c([H])c2[H])c1-c1c([H])c([H])c2c(c1[H])C([H])([H])C(=O)N2[H]


 36 40  0  0  0  0  0  0  0  0999 V2000
   41.3392   14.5811  -13.7904 C   0  0  0  0  0  0  0  0  0  0  0  0
   40.6224   15.5420  -13.2543 N   0  0  0  0  0  0  0  0  0  0  0  0
   39.2852   15.4899  -13.1437 C   0  0  0  0  0  0  0  0  0  0  0  0
   38.5981   14.3900  -13.6043 C   0  0  0  0  0  0  0  0  0  0  0  0
   39.3349   13.3720  -14.1696 C   0  0  0  0  0  0  0  0  0  0  0  0
   40.6741   13.4907  -14.2485 N   0  0  0  0  0  0  0  0  0  0  0  0
   37.1496   14.3841  -13.4671 C   0  0  0  0  0  0  0  0  0  0  0  0
   36.4350   13.7649  -14.4965 C   0  0  0  0  0  0  0  0  0  0  0  0
   35.0806   13.6959  -14.4710 C   0  0  0  0  0  0  0  0  0  0  0  0
   34.3972   14.2515  -13.4018 C   0  0  0  0  0  0  0  0  0  0  0  0
   32.9958   14.2952  -13.1696 N   0  0  0  0  0  0  0  0  0  0  0  0
   32.8001   14.9663  -11.9472 C   0  0  0  0  0  0  0  0  0  0  0  0
   31.6698   15.2001  -11.4041 O   0  0  0  0  0  0  0  0  0  0  0  0
   34.1065   15.3534  -11.3987 C   0  0  0  0  0  0  0  0  0  0  0  0
   35.0853   14.8623  -12.3847 C   0  0  0  0  0  0  0  0  0  0  0  0
   36.4839   14.9330  -12.4116 C   0  0  0  0  0  0  0  0  0  0  0  0
   32.2377   13.8965  -13.7995 H   0  0  0  0  0  0  0  0  0  0  0  0
   42.7316   14.6156  -13.9155 N   0  0  0  0  0  0  0  0  0  0  0  0
   43.1799   15.3867  -14.5424 H   0  0  0  0  0  0  0  0  0  0  0  0
   45.6013   12.0323  -12.2294 C   0  0  0  0  0  0  0  0  0  0  0  0
   45.6539   12.4171  -13.5467 C   0  0  0  0  0  0  0  0  0  0  0  0
   44.6988   13.2562  -14.0785 C   0  0  0  0  0  0  0  0  0  0  0  0
   43.6395   13.7506  -13.3058 C   0  0  0  0  0  0  0  0  0  0  0  0
   43.5990   13.3652  -12.0099 C   0  0  0  0  0  0  0  0  0  0  0  0
   44.5781   12.5055  -11.4676 C   0  0  0  0  0  0  0  0  0  0  0  0
   46.6024   11.1415  -11.6381 C   0  0  0  0  0  0  0  0  0  0  0  0
   47.5796   10.7523  -12.3156 O   0  0  0  0  0  0  0  0  0  0  0  0
   47.1434    9.5149   -9.8756 C   0  0  0  0  0  0  0  0  0  0  0  0
   46.5078   10.7015  -10.3254 O   0  0  0  0  0  0  0  0  0  0  0  0
   38.5006   11.9187  -14.7774 S   0  0  0  0  0  0  0  0  0  0  0  0
   39.0173   11.6622  -16.4657 C   0  0  0  0  0  0  0  0  0  0  0  0
   40.2352   12.0728  -16.9534 C   0  0  0  0  0  0  0  0  0  0  0  0
   40.6182   11.8612  -18.2791 C   0  0  0  0  0  0  0  0  0  0  0  0
   39.7156   11.2146  -19.0957 C   0  0  0  0  0  0  0  0  0  0  0  0
   38.4838   10.7873  -18.6436 C   0  0  0  0  0  0  0  0  0  0  0  0
   38.1549   11.0213  -17.3251 C   0  0  0  0  0  0  0  0  0  0  0  0
 28 29  1  0  0  0
 29 26  1  0  0  0
 26 27  2  0  0  0
 26 20  1  0  0  0
 20 21  2  0  0  0
 21 22  1  0  0  0
 22 23  2  0  0  0
 23 18  1  0  0  0
 18  1  1  0  0  0
  1  2  2  0  0  0
  2  3  1  0  0  0
  3  4  2  0  0  0
  4  5  1  0  0  0
  5 30  1  0  0  0
 30 31  1  0  0  0
 31 32  2  0  0  0
 32 33  1  0  0  0
 33 34  2  0  0  0
 34 35  1  0  0  0
 35 36  2  0  0  0
  5  6  2  0  0  0
  4  7  1  0  0  0
  7  8  2  0  0  0
  8  9  1  0  0  0
  9 10  2  0  0  0
 10 11  1  0  0  0
 11 12  1  0  0  0
 12 13  2  0  0  0
 12 14  1  0  0  0
 14 15  1  0  0  0
 15 16  2  0  0  0
 23 24  1  0  0  0
 24 25  2  0  0  0
 25 20  1  0  0  0
  6  1  1  0  0  0
 16  7  1  0  0  0
 36 31  1  0  0  0
 15 10  1  0  0  0
 18 19  1  0  0  0
 11 17  1  0  0  0
M  END
> <minimizedAffinity>
-8.82169

> <CNNscore>
0.1772490442

> <CNNaffinity>
6.5804719925

> <CNN_VS>
1.1663823128

> <CNNaffinity_variance>
0.1874502003

$$$$
[H]c1nc(N([H])c2c([H])c([H])c(C(=O)OC([H])([H])[H])c([H])c2[H])nc(Sc2c([H])c([H])c([H])c([H])c2[H])c1-c1c([H])c([H])c2c(c1[H])C([H])([H])C(=O)N2[H]


 36 40  0  0  0  0  0  0  0  0999 V2000
   42.7490   12.9081  -16.0413 C   0  0  0  0  0  0  0  0  0  0  0  0
   43.9752   12.4874  -16.2510 N   0  0  0  0  0  0  0  0  0  0  0  0
   44.9579   12.5988  -15.3427 C   0  0  0  0  0  0  0  0  0  0  0  0
   44.7038   13.1772  -14.1201 C   0  0  0  0  0  0  0  0  0  0  0  0
   43.4219   13.6241  -13.8832 C   0  0  0  0  0  0  0  0  0  0  0  0
   42.4848   13.4805  -14.8397 N   0  0  0  0  0  0  0  0  0  0  0  0
   45.8031   13.2801  -13.1727 C   0  0  0  0  0  0  0  0  0  0  0  0
   46.7629   14.2591  -13.4454 C   0  0  0  0  0  0  0  0  0  0  0  0
   47.8285   14.4477  -12.6276 C   0  0  0  0  0  0  0  0  0  0  0  0
   47.9636   13.6521  -11.5018 C   0  0  0  0  0  0  0  0  0  0  0  0
   48.9877   13.6737  -10.5167 N   0  0  0  0  0  0  0  0  0  0  0  0
   48.6771   12.6733   -9.5756 C   0  0  0  0  0  0  0  0  0  0  0  0
   49.3674   12.3909   -8.5407 O   0  0  0  0  0  0  0  0  0  0  0  0
   47.4309   12.0078   -9.9774 C   0  0  0  0  0  0  0  0  0  0  0  0
   47.0296   12.6876  -11.2217 C   0  0  0  0  0  0  0  0  0  0  0  0
   45.9294   12.4935  -12.0664 C   0  0  0  0  0  0  0  0  0  0  0  0
   49.8297   14.3225  -10.4940 H   0  0  0  0  0  0  0  0  0  0  0  0
   41.7116   12.8022  -16.9732 N   0  0  0  0  0  0  0  0  0  0  0  0
   41.9437   12.9398  -18.0296 H   0  0  0  0  0  0  0  0  0  0  0  0
   37.6800   11.8104  -16.2569 C   0  0  0  0  0  0  0  0  0  0  0  0
   38.3806   11.2871  -17.3158 C   0  0  0  0  0  0  0  0  0  0  0  0
   39.6964   11.6331  -17.5353 C   0  0  0  0  0  0  0  0  0  0  0  0
   40.3734   12.5270  -16.6950 C   0  0  0  0  0  0  0  0  0  0  0  0
   39.6731   13.0350  -15.6553 C   0  0  0  0  0  0  0  0  0  0  0  0
   38.3255   12.6795  -15.4327 C   0  0  0  0  0  0  0  0  0  0  0  0
   36.2809   11.4607  -16.0001 C   0  0  0  0  0  0  0  0  0  0  0  0
   35.6592   11.9980  -15.0566 O   0  0  0  0  0  0  0  0  0  0  0  0
   34.1847   10.4953  -16.8478 C   0  0  0  0  0  0  0  0  0  0  0  0
   35.6018   10.5354  -16.7799 O   0  0  0  0  0  0  0  0  0  0  0  0
   43.0310   14.3755  -12.3148 S   0  0  0  0  0  0  0  0  0  0  0  0
   43.9854   15.8767  -12.1791 C   0  0  0  0  0  0  0  0  0  0  0  0
   44.0600   16.8172  -13.1791 C   0  0  0  0  0  0  0  0  0  0  0  0
   44.8138   17.9851  -13.0506 C   0  0  0  0  0  0  0  0  0  0  0  0
   45.4923   18.1648  -11.8644 C   0  0  0  0  0  0  0  0  0  0  0  0
   45.4424   17.2443  -10.8375 C   0  0  0  0  0  0  0  0  0  0  0  0
   44.6830   16.1073  -11.0159 C   0  0  0  0  0  0  0  0  0  0  0  0
 28 29  1  0  0  0
 29 26  1  0  0  0
 26 27  2  0  0  0
 26 20  1  0  0  0
 20 21  2  0  0  0
 21 22  1  0  0  0
 22 23  2  0  0  0
 23 18  1  0  0  0
 18  1  1  0  0  0
  1  2  2  0  0  0
  2  3  1  0  0  0
  3  4  2  0  0  0
  4  5  1  0  0  0
  5 30  1  0  0  0
 30 31  1  0  0  0
 31 32  2  0  0  0
 32 33  1  0  0  0
 33 34  2  0  0  0
 34 35  1  0  0  0
 35 36  2  0  0  0
  5  6  2  0  0  0
  4  7  1  0  0  0
  7  8  2  0  0  0
  8  9  1  0  0  0
  9 10  2  0  0  0
 10 11  1  0  0  0
 11 12  1  0  0  0
 12 13  2  0  0  0
 12 14  1  0  0  0
 14 15  1  0  0  0
 15 16  2  0  0  0
 23 24  1  0  0  0
 24 25  2  0  0  0
 25 20  1  0  0  0
  6  1  1  0  0  0
 16  7  1  0  0  0
 36 31  1  0  0  0
 15 10  1  0  0  0
 18 19  1  0  0  0
 11 17  1  0  0  0
M  END
> <minimizedAffinity>
-7.69724

> <CNNscore>
0.1746726185

> <CNNaffinity>
6.1117343903

> <CNN_VS>
1.0675526857

> <CNNaffinity_variance>
0.1783169806

$$$$
[H]c1nc(N([H])c2c([H])c([H])c(C(=O)OC([H])([H])[H])c([H])c2[H])nc(Sc2c([H])c([H])c([H])c([H])c2[H])c1-c1c([H])c([H])c2c(c1[H])C([H])([H])C(=O)N2[H]


 36 40  0  0  0  0  0  0  0  0999 V2000
   33.4070   13.7190  -13.5519 C   0  0  0  0  0  0  0  0  0  0  0  0
   33.6587   12.8444  -14.4987 N   0  0  0  0  0  0  0  0  0  0  0  0
   34.8929   12.6032  -14.9698 C   0  0  0  0  0  0  0  0  0  0  0  0
   35.9716   13.2879  -14.4584 C   0  0  0  0  0  0  0  0  0  0  0  0
   35.7253   14.2094  -13.4639 C   0  0  0  0  0  0  0  0  0  0  0  0
   34.4619   14.4011  -13.0388 N   0  0  0  0  0  0  0  0  0  0  0  0
   37.2872   12.9951  -15.0065 C   0  0  0  0  0  0  0  0  0  0  0  0
   37.3246   12.0886  -16.0698 C   0  0  0  0  0  0  0  0  0  0  0  0
   38.4959   11.7454  -16.6617 C   0  0  0  0  0  0  0  0  0  0  0  0
   39.6748   12.3071  -16.1996 C   0  0  0  0  0  0  0  0  0  0  0  0
   41.0012   12.0952  -16.6638 N   0  0  0  0  0  0  0  0  0  0  0  0
   41.8488   12.8934  -15.8716 C   0  0  0  0  0  0  0  0  0  0  0  0
   43.1166   12.9701  -15.9900 O   0  0  0  0  0  0  0  0  0  0  0  0
   41.0382   13.6229  -14.8878 C   0  0  0  0  0  0  0  0  0  0  0  0
   39.6532   13.1979  -15.1571 C   0  0  0  0  0  0  0  0  0  0  0  0
   38.4434   13.5520  -14.5464 C   0  0  0  0  0  0  0  0  0  0  0  0
   41.2982   11.4550  -17.4590 H   0  0  0  0  0  0  0  0  0  0  0  0
   32.1301   13.9855  -13.0475 N   0  0  0  0  0  0  0  0  0  0  0  0
   31.2636   13.6968  -13.6429 H   0  0  0  0  0  0  0  0  0  0  0  0
   31.0677   15.6981   -9.3477 C   0  0  0  0  0  0  0  0  0  0  0  0
   30.1944   14.9186  -10.0658 C   0  0  0  0  0  0  0  0  0  0  0  0
   30.5613   14.3761  -11.2783 C   0  0  0  0  0  0  0  0  0  0  0  0
   31.8315   14.5934  -11.8288 C   0  0  0  0  0  0  0  0  0  0  0  0
   32.6828   15.3620  -11.1120 C   0  0  0  0  0  0  0  0  0  0  0  0
   32.3046   15.9168   -9.8705 C   0  0  0  0  0  0  0  0  0  0  0  0
   30.7043   16.2877   -8.0569 C   0  0  0  0  0  0  0  0  0  0  0  0
   30.2112   17.4363   -8.0043 O   0  0  0  0  0  0  0  0  0  0  0  0
   31.8673   15.9977   -5.9102 C   0  0  0  0  0  0  0  0  0  0  0  0
   30.8897   15.6068   -6.8621 O   0  0  0  0  0  0  0  0  0  0  0  0
   37.0842   15.1217  -12.7577 S   0  0  0  0  0  0  0  0  0  0  0  0
   36.6345   15.5596  -11.0877 C   0  0  0  0  0  0  0  0  0  0  0  0
   36.5730   16.8572  -10.6377 C   0  0  0  0  0  0  0  0  0  0  0  0
   36.2186   17.1762   -9.3257 C   0  0  0  0  0  0  0  0  0  0  0  0
   35.9275   16.1253   -8.4828 C   0  0  0  0  0  0  0  0  0  0  0  0
   35.9780   14.8098   -8.8968 C   0  0  0  0  0  0  0  0  0  0  0  0
   36.3338   14.5495  -10.2033 C   0  0  0  0  0  0  0  0  0  0  0  0
 28 29  1  0  0  0
 29 26  1  0  0  0
 26 27  2  0  0  0
 26 20  1  0  0  0
 20 21  2  0  0  0
 21 22  1  0  0  0
 22 23  2  0  0  0
 23 18  1  0  0  0
 18  1  1  0  0  0
  1  2  2  0  0  0
  2  3  1  0  0  0
  3  4  2  0  0  0
  4  5  1  0  0  0
  5 30  1  0  0  0
 30 31  1  0  0  0
 31 32  2  0  0  0
 32 33  1  0  0  0
 33 34  2  0  0  0
 34 35  1  0  0  0
 35 36  2  0  0  0
  5  6  2  0  0  0
  4  7  1  0  0  0
  7  8  2  0  0  0
  8  9  1  0  0  0
  9 10  2  0  0  0
 10 11  1  0  0  0
 11 12  1  0  0  0
 12 13  2  0  0  0
 12 14  1  0  0  0
 14 15  1  0  0  0
 15 16  2  0  0  0
 23 24  1  0  0  0
 24 25  2  0  0  0
 25 20  1  0  0  0
  6  1  1  0  0  0
 16  7  1  0  0  0
 36 31  1  0  0  0
 15 10  1  0  0  0
 18 19  1  0  0  0
 11 17  1  0  0  0
M  END
> <minimizedAffinity>
-9.45357

> <CNNscore>
0.1737280935

> <CNNaffinity>
6.5592699051

> <CNN_VS>
1.1395294666

> <CNNaffinity_variance>
0.5036228895

$$$$
[H]c1nc(N([H])c2c([H])c([H])c(C(=O)OC([H])([H])[H])c([H])c2[H])nc(Sc2c([H])c([H])c([H])c([H])c2[H])c1-c1c([H])c([H])c2c(c1[H])C([H])([H])C(=O)N2[H]


 36 40  0  0  0  0  0  0  0  0999 V2000
   40.9399   12.9291  -15.8939 C   0  0  0  0  0  0  0  0  0  0  0  0
   42.2114   12.6460  -15.7269 N   0  0  0  0  0  0  0  0  0  0  0  0
   42.9545   13.1534  -14.7302 C   0  0  0  0  0  0  0  0  0  0  0  0
   42.3889   14.0163  -13.8195 C   0  0  0  0  0  0  0  0  0  0  0  0
   41.0553   14.3240  -13.9799 C   0  0  0  0  0  0  0  0  0  0  0  0
   40.3697   13.7788  -15.0028 N   0  0  0  0  0  0  0  0  0  0  0  0
   43.2374   14.5437  -12.7618 C   0  0  0  0  0  0  0  0  0  0  0  0
   43.4811   13.6892  -11.6828 C   0  0  0  0  0  0  0  0  0  0  0  0
   44.2619   14.0736  -10.6424 C   0  0  0  0  0  0  0  0  0  0  0  0
   44.8262   15.3386  -10.6544 C   0  0  0  0  0  0  0  0  0  0  0  0
   45.6674   15.9451   -9.6825 N   0  0  0  0  0  0  0  0  0  0  0  0
   45.9768   17.2363  -10.1517 C   0  0  0  0  0  0  0  0  0  0  0  0
   46.7128   18.0860   -9.5488 O   0  0  0  0  0  0  0  0  0  0  0  0
   45.3160   17.4467  -11.4464 C   0  0  0  0  0  0  0  0  0  0  0  0
   44.5958   16.1877  -11.7064 C   0  0  0  0  0  0  0  0  0  0  0  0
   43.7895   15.7900  -12.7805 C   0  0  0  0  0  0  0  0  0  0  0  0
   46.0005   15.5071   -8.7727 H   0  0  0  0  0  0  0  0  0  0  0  0
   40.1485   12.4122  -16.9246 N   0  0  0  0  0  0  0  0  0  0  0  0
   40.5814   12.3268  -17.9216 H   0  0  0  0  0  0  0  0  0  0  0  0
   36.1994   10.9557  -16.7407 C   0  0  0  0  0  0  0  0  0  0  0  0
   37.0333   10.6655  -17.7925 C   0  0  0  0  0  0  0  0  0  0  0  0
   38.3187   11.1606  -17.8353 C   0  0  0  0  0  0  0  0  0  0  0  0
   38.8287   11.9758  -16.8159 C   0  0  0  0  0  0  0  0  0  0  0  0
   37.9983   12.2539  -15.7852 C   0  0  0  0  0  0  0  0  0  0  0  0
   36.6822   11.7459  -15.7438 C   0  0  0  0  0  0  0  0  0  0  0  0
   34.8289   10.4436  -16.6695 C   0  0  0  0  0  0  0  0  0  0  0  0
   34.5970    9.2310  -16.8727 O   0  0  0  0  0  0  0  0  0  0  0  0
   33.5869   11.8814  -15.1090 C   0  0  0  0  0  0  0  0  0  0  0  0
   33.7522   11.2694  -16.3790 O   0  0  0  0  0  0  0  0  0  0  0  0
   40.2659   15.4308  -12.8268 S   0  0  0  0  0  0  0  0  0  0  0  0
   38.5318   15.0146  -12.7751 C   0  0  0  0  0  0  0  0  0  0  0  0
   37.7033   15.0935  -13.8693 C   0  0  0  0  0  0  0  0  0  0  0  0
   36.3486   14.7625  -13.8051 C   0  0  0  0  0  0  0  0  0  0  0  0
   35.8630   14.3466  -12.5841 C   0  0  0  0  0  0  0  0  0  0  0  0
   36.6626   14.2543  -11.4631 C   0  0  0  0  0  0  0  0  0  0  0  0
   37.9940   14.5932  -11.5809 C   0  0  0  0  0  0  0  0  0  0  0  0
 28 29  1  0  0  0
 29 26  1  0  0  0
 26 27  2  0  0  0
 26 20  1  0  0  0
 20 21  2  0  0  0
 21 22  1  0  0  0
 22 23  2  0  0  0
 23 18  1  0  0  0
 18  1  1  0  0  0
  1  2  2  0  0  0
  2  3  1  0  0  0
  3  4  2  0  0  0
  4  5  1  0  0  0
  5 30  1  0  0  0
 30 31  1  0  0  0
 31 32  2  0  0  0
 32 33  1  0  0  0
 33 34  2  0  0  0
 34 35  1  0  0  0
 35 36  2  0  0  0
  5  6  2  0  0  0
  4  7  1  0  0  0
  7  8  2  0  0  0
  8  9  1  0  0  0
  9 10  2  0  0  0
 10 11  1  0  0  0
 11 12  1  0  0  0
 12 13  2  0  0  0
 12 14  1  0  0  0
 14 15  1  0  0  0
 15 16  2  0  0  0
 23 24  1  0  0  0
 24 25  2  0  0  0
 25 20  1  0  0  0
  6  1  1  0  0  0
 16  7  1  0  0  0
 36 31  1  0  0  0
 15 10  1  0  0  0
 18 19  1  0  0  0
 11 17  1  0  0  0
M  END
> <minimizedAffinity>
-8.42970

> <CNNscore>
0.1707575023

> <CNNaffinity>
6.7209839821

> <CNN_VS>
1.1476584673

> <CNNaffinity_variance>
0.1466905326

$$$$
[H]c1nc(N([H])c2c([H])c([H])c(C(=O)OC([H])([H])[H])c([H])c2[H])nc(Sc2c([H])c([H])c([H])c([H])c2[H])c1-c1c([H])c([H])c2c(c1[H])C([H])([H])C(=O)N2[H]


 36 40  0  0  0  0  0  0  0  0999 V2000
   37.3219   15.2211  -11.9867 C   0  0  0  0  0  0  0  0  0  0  0  0
   38.4326   15.8934  -12.1846 N   0  0  0  0  0  0  0  0  0  0  0  0
   39.4379   15.4455  -12.9540 C   0  0  0  0  0  0  0  0  0  0  0  0
   39.3340   14.2254  -13.5821 C   0  0  0  0  0  0  0  0  0  0  0  0
   38.1748   13.5067  -13.3854 C   0  0  0  0  0  0  0  0  0  0  0  0
   37.2065   14.0164  -12.6004 N   0  0  0  0  0  0  0  0  0  0  0  0
   40.4527   13.7819  -14.3997 C   0  0  0  0  0  0  0  0  0  0  0  0
   40.1468   13.4012  -15.7094 C   0  0  0  0  0  0  0  0  0  0  0  0
   41.1116   12.9756  -16.5627 C   0  0  0  0  0  0  0  0  0  0  0  0
   42.4238   12.9190  -16.1225 C   0  0  0  0  0  0  0  0  0  0  0  0
   43.5829   12.5095  -16.8356 N   0  0  0  0  0  0  0  0  0  0  0  0
   44.6746   12.6305  -15.9544 C   0  0  0  0  0  0  0  0  0  0  0  0
   45.8875   12.3537  -16.2366 O   0  0  0  0  0  0  0  0  0  0  0  0
   44.1919   13.1267  -14.6590 C   0  0  0  0  0  0  0  0  0  0  0  0
   42.7386   13.2894  -14.8401 C   0  0  0  0  0  0  0  0  0  0  0  0
   41.7419   13.7291  -13.9596 C   0  0  0  0  0  0  0  0  0  0  0  0
   43.6195   12.1747  -17.8441 H   0  0  0  0  0  0  0  0  0  0  0  0
   36.2637   15.6689  -11.1896 N   0  0  0  0  0  0  0  0  0  0  0  0
   35.5209   16.3321  -11.6336 H   0  0  0  0  0  0  0  0  0  0  0  0
   35.3954   14.7241   -7.1766 C   0  0  0  0  0  0  0  0  0  0  0  0
   34.4742   15.3268   -7.9976 C   0  0  0  0  0  0  0  0  0  0  0  0
   34.7839   15.6344   -9.3047 C   0  0  0  0  0  0  0  0  0  0  0  0
   36.0424   15.3486   -9.8508 C   0  0  0  0  0  0  0  0  0  0  0  0
   36.9407   14.7544   -9.0327 C   0  0  0  0  0  0  0  0  0  0  0  0
   36.6213   14.4406   -7.6943 C   0  0  0  0  0  0  0  0  0  0  0  0
   35.0936   14.3864   -5.7836 C   0  0  0  0  0  0  0  0  0  0  0  0
   34.1515   13.6089   -5.5127 O   0  0  0  0  0  0  0  0  0  0  0  0
   36.4790   14.0790   -3.7758 C   0  0  0  0  0  0  0  0  0  0  0  0
   35.8283   14.9068   -4.7277 O   0  0  0  0  0  0  0  0  0  0  0  0
   37.9799   11.9226  -14.1792 S   0  0  0  0  0  0  0  0  0  0  0  0
   36.3253   11.8475  -14.8424 C   0  0  0  0  0  0  0  0  0  0  0  0
   35.2052   12.1778  -14.1169 C   0  0  0  0  0  0  0  0  0  0  0  0
   33.9197   12.1113  -14.6571 C   0  0  0  0  0  0  0  0  0  0  0  0
   33.8118   11.6953  -15.9666 C   0  0  0  0  0  0  0  0  0  0  0  0
   34.9118   11.3553  -16.7273 C   0  0  0  0  0  0  0  0  0  0  0  0
   36.1592   11.4385  -16.1454 C   0  0  0  0  0  0  0  0  0  0  0  0
 28 29  1  0  0  0
 29 26  1  0  0  0
 26 27  2  0  0  0
 26 20  1  0  0  0
 20 21  2  0  0  0
 21 22  1  0  0  0
 22 23  2  0  0  0
 23 18  1  0  0  0
 18  1  1  0  0  0
  1  2  2  0  0  0
  2  3  1  0  0  0
  3  4  2  0  0  0
  4  5  1  0  0  0
  5 30  1  0  0  0
 30 31  1  0  0  0
 31 32  2  0  0  0
 32 33  1  0  0  0
 33 34  2  0  0  0
 34 35  1  0  0  0
 35 36  2  0  0  0
  5  6  2  0  0  0
  4  7  1  0  0  0
  7  8  2  0  0  0
  8  9  1  0  0  0
  9 10  2  0  0  0
 10 11  1  0  0  0
 11 12  1  0  0  0
 12 13  2  0  0  0
 12 14  1  0  0  0
 14 15  1  0  0  0
 15 16  2  0  0  0
 23 24  1  0  0  0
 24 25  2  0  0  0
 25 20  1  0  0  0
  6  1  1  0  0  0
 16  7  1  0  0  0
 36 31  1  0  0  0
 15 10  1  0  0  0
 18 19  1  0  0  0
 11 17  1  0  0  0
M  END
> <minimizedAffinity>
-9.39548

> <CNNscore>
0.1515474617

> <CNNaffinity>
6.6765794754

> <CNN_VS>
1.0118186474

> <CNNaffinity_variance>
0.0965464637

$$$$
[H]c1nc(N([H])c2c([H])c([H])c(C(=O)OC([H])([H])[H])c([H])c2[H])nc(Sc2c([H])c([H])c([H])c([H])c2[H])c1-c1c([H])c([H])c2c(c1[H])C([H])([H])C(=O)N2[H]


 36 40  0  0  0  0  0  0  0  0999 V2000
   33.0480   14.6480  -12.6637 C   0  0  0  0  0  0  0  0  0  0  0  0
   33.0962   13.9678  -13.7860 N   0  0  0  0  0  0  0  0  0  0  0  0
   34.2449   13.5934  -14.3720 C   0  0  0  0  0  0  0  0  0  0  0  0
   35.4510   13.9213  -13.7962 C   0  0  0  0  0  0  0  0  0  0  0  0
   35.4188   14.6349  -12.6178 C   0  0  0  0  0  0  0  0  0  0  0  0
   34.2303   14.9779  -12.0852 N   0  0  0  0  0  0  0  0  0  0  0  0
   36.6673   13.4981  -14.4731 C   0  0  0  0  0  0  0  0  0  0  0  0
   37.8610   14.0499  -13.9992 C   0  0  0  0  0  0  0  0  0  0  0  0
   39.0560   13.7232  -14.5515 C   0  0  0  0  0  0  0  0  0  0  0  0
   39.0885   12.8249  -15.6055 C   0  0  0  0  0  0  0  0  0  0  0  0
   40.2139   12.3440  -16.3281 N   0  0  0  0  0  0  0  0  0  0  0  0
   39.7284   11.4505  -17.3023 C   0  0  0  0  0  0  0  0  0  0  0  0
   40.4440   10.8154  -18.1459 O   0  0  0  0  0  0  0  0  0  0  0  0
   38.2663   11.3677  -17.1903 C   0  0  0  0  0  0  0  0  0  0  0  0
   37.9253   12.2756  -16.0809 C   0  0  0  0  0  0  0  0  0  0  0  0
   36.6916   12.6132  -15.5099 C   0  0  0  0  0  0  0  0  0  0  0  0
   41.2306   12.6085  -16.1645 H   0  0  0  0  0  0  0  0  0  0  0  0
   31.8634   15.0479  -12.0373 N   0  0  0  0  0  0  0  0  0  0  0  0
   31.0156   15.3350  -12.6598 H   0  0  0  0  0  0  0  0  0  0  0  0
   31.3046   15.4181   -7.8777 C   0  0  0  0  0  0  0  0  0  0  0  0
   32.3531   16.0219   -8.5273 C   0  0  0  0  0  0  0  0  0  0  0  0
   32.5207   15.8793   -9.8877 C   0  0  0  0  0  0  0  0  0  0  0  0
   31.6360   15.1182  -10.6634 C   0  0  0  0  0  0  0  0  0  0  0  0
   30.6070   14.5292  -10.0126 C   0  0  0  0  0  0  0  0  0  0  0  0
   30.4378   14.6764   -8.6192 C   0  0  0  0  0  0  0  0  0  0  0  0
   31.1026   15.5522   -6.4332 C   0  0  0  0  0  0  0  0  0  0  0  0
   30.0905   16.1387   -5.9893 O   0  0  0  0  0  0  0  0  0  0  0  0
   33.0530   15.8311   -4.9625 C   0  0  0  0  0  0  0  0  0  0  0  0
   32.0106   15.0426   -5.5159 O   0  0  0  0  0  0  0  0  0  0  0  0
   36.9496   15.0821  -11.8213 S   0  0  0  0  0  0  0  0  0  0  0  0
   36.5666   15.5879  -10.1539 C   0  0  0  0  0  0  0  0  0  0  0  0
   36.3427   14.7004   -9.1281 C   0  0  0  0  0  0  0  0  0  0  0  0
   36.0443   15.1195   -7.8304 C   0  0  0  0  0  0  0  0  0  0  0  0
   35.9809   16.4786   -7.6105 C   0  0  0  0  0  0  0  0  0  0  0  0
   36.1993   17.4007   -8.6137 C   0  0  0  0  0  0  0  0  0  0  0  0
   36.4906   16.9336   -9.8780 C   0  0  0  0  0  0  0  0  0  0  0  0
 28 29  1  0  0  0
 29 26  1  0  0  0
 26 27  2  0  0  0
 26 20  1  0  0  0
 20 21  2  0  0  0
 21 22  1  0  0  0
 22 23  2  0  0  0
 23 18  1  0  0  0
 18  1  1  0  0  0
  1  2  2  0  0  0
  2  3  1  0  0  0
  3  4  2  0  0  0
  4  5  1  0  0  0
  5 30  1  0  0  0
 30 31  1  0  0  0
 31 32  2  0  0  0
 32 33  1  0  0  0
 33 34  2  0  0  0
 34 35  1  0  0  0
 35 36  2  0  0  0
  5  6  2  0  0  0
  4  7  1  0  0  0
  7  8  2  0  0  0
  8  9  1  0  0  0
  9 10  2  0  0  0
 10 11  1  0  0  0
 11 12  1  0  0  0
 12 13  2  0  0  0
 12 14  1  0  0  0
 14 15  1  0  0  0
 15 16  2  0  0  0
 23 24  1  0  0  0
 24 25  2  0  0  0
 25 20  1  0  0  0
  6  1  1  0  0  0
 16  7  1  0  0  0
 36 31  1  0  0  0
 15 10  1  0  0  0
 18 19  1  0  0  0
 11 17  1  0  0  0
M  END
> <minimizedAffinity>
-8.61797

> <CNNscore>
0.1394929141

> <CNNaffinity>
6.3904657364

> <CNN_VS>
0.8914247155

> <CNNaffinity_variance>
0.6096431613

$$$$
[H]/C(=C(/[H])c1c([H])c([H])c(N([H])/C(=C2\C(=O)N([H])c3c([H])c(C(=O)OC([H])([H])[H])c([H])c([H])c32)c2nc([H])c([H])s2)c([H])c1N1C([H])([H])C([H])([H])N(C([H])([H])[H])C([H])([H])C1([H])[H])c1c([H])oc([H])c1[H]


 43 48  0  0  0  0  0  0  0  0999 V2000
   37.6777   15.5895  -12.4805 N   0  0  0  0  0  0  0  0  0  0  0  0
   38.1430   16.5123  -12.7188 H   0  0  0  0  0  0  0  0  0  0  0  0
   39.4798   11.7377  -17.5202 C   0  0  0  0  0  0  0  0  0  0  0  0
   38.2341   11.6632  -16.9603 C   0  0  0  0  0  0  0  0  0  0  0  0
   37.8370   12.4718  -15.8821 C   0  0  0  0  0  0  0  0  0  0  0  0
   38.7014   13.3887  -15.3383 C   0  0  0  0  0  0  0  0  0  0  0  0
   38.5803   14.3483  -14.2423 C   0  0  0  0  0  0  0  0  0  0  0  0
   37.5252   14.6048  -13.4760 C   0  0  0  0  0  0  0  0  0  0  0  0
   39.8875   15.0190  -14.1799 C   0  0  0  0  0  0  0  0  0  0  0  0
   40.2153   15.9117  -13.3758 O   0  0  0  0  0  0  0  0  0  0  0  0
   40.7135   14.4714  -15.1942 N   0  0  0  0  0  0  0  0  0  0  0  0
   39.9890   13.4776  -15.9015 C   0  0  0  0  0  0  0  0  0  0  0  0
   40.3312   12.6606  -16.9597 C   0  0  0  0  0  0  0  0  0  0  0  0
   41.7010   14.7325  -15.4153 H   0  0  0  0  0  0  0  0  0  0  0  0
   36.2298   13.9575  -13.6731 C   0  0  0  0  0  0  0  0  0  0  0  0
   35.1933   14.3189  -14.4243 N   0  0  0  0  0  0  0  0  0  0  0  0
   34.1673   13.5471  -14.5208 C   0  0  0  0  0  0  0  0  0  0  0  0
   34.1745   12.3619  -13.8381 C   0  0  0  0  0  0  0  0  0  0  0  0
   35.6964   12.4144  -13.0693 S   0  0  0  0  0  0  0  0  0  0  0  0
   39.8891   10.9069  -18.6463 C   0  0  0  0  0  0  0  0  0  0  0  0
   41.1434   10.8837  -18.9007 O   0  0  0  0  0  0  0  0  0  0  0  0
   38.1408   10.7541  -20.3467 C   0  0  0  0  0  0  0  0  0  0  0  0
   39.0900   10.1577  -19.4536 O   0  0  0  0  0  0  0  0  0  0  0  0
   37.2127   15.4790  -11.1612 C   0  0  0  0  0  0  0  0  0  0  0  0
   35.8284   15.5938  -11.0029 C   0  0  0  0  0  0  0  0  0  0  0  0
   35.3156   15.4107   -9.7402 C   0  0  0  0  0  0  0  0  0  0  0  0
   36.0663   15.1258   -8.6382 C   0  0  0  0  0  0  0  0  0  0  0  0
   37.4260   15.0190   -8.8226 C   0  0  0  0  0  0  0  0  0  0  0  0
   37.9935   15.1966  -10.0825 C   0  0  0  0  0  0  0  0  0  0  0  0
   38.3489   14.6707   -7.7858 N   0  0  0  0  0  0  0  0  0  0  0  0
   37.8662   13.8642   -6.6845 C   0  0  0  0  0  0  0  0  0  0  0  0
   38.9748   13.3437   -5.8052 C   0  0  0  0  0  0  0  0  0  0  0  0
   39.9051   14.3486   -5.4100 N   0  0  0  0  0  0  0  0  0  0  0  0
   41.1730   13.6688   -5.1421 C   0  0  0  0  0  0  0  0  0  0  0  0
   40.1443   15.3758   -6.3667 C   0  0  0  0  0  0  0  0  0  0  0  0
   39.7340   15.0808   -7.7690 C   0  0  0  0  0  0  0  0  0  0  0  0
   35.5061   14.9193   -7.3244 C   0  0  0  0  0  0  0  0  0  0  0  0
   34.9900   15.8759   -6.5617 C   0  0  0  0  0  0  0  0  0  0  0  0
   34.4424   15.5500   -5.2344 C   0  0  0  0  0  0  0  0  0  0  0  0
   33.5865   16.3923   -4.5426 C   0  0  0  0  0  0  0  0  0  0  0  0
   33.2943   15.7441   -3.3635 C   0  0  0  0  0  0  0  0  0  0  0  0
   33.9281   14.6118   -3.3627 O   0  0  0  0  0  0  0  0  0  0  0  0
   34.6344   14.4409   -4.4618 C   0  0  0  0  0  0  0  0  0  0  0  0
 22 23  1  0  0  0
 23 20  1  0  0  0
 20 21  2  0  0  0
 20  3  1  0  0  0
  3  4  2  0  0  0
  4  5  1  0  0  0
  5  6  2  0  0  0
  6  7  1  0  0  0
  7  8  2  0  0  0
  8  1  1  0  0  0
  1 24  1  0  0  0
 24 25  2  0  0  0
 25 26  1  0  0  0
 26 27  2  0  0  0
 27 37  1  0  0  0
 37 38  2  0  0  0
 38 39  1  0  0  0
 39 40  1  0  0  0
 40 41  2  0  0  0
 41 42  1  0  0  0
 42 43  1  0  0  0
 27 28  1  0  0  0
 28 29  2  0  0  0
 28 30  1  0  0  0
 30 31  1  0  0  0
 31 32  1  0  0  0
 32 33  1  0  0  0
 33 34  1  0  0  0
 33 35  1  0  0  0
 35 36  1  0  0  0
  8 15  1  0  0  0
 15 16  2  0  0  0
 16 17  1  0  0  0
 17 18  2  0  0  0
 18 19  1  0  0  0
  7  9  1  0  0  0
  9 10  2  0  0  0
  9 11  1  0  0  0
 11 12  1  0  0  0
 12 13  2  0  0  0
 13  3  1  0  0  0
 12  6  1  0  0  0
 29 24  1  0  0  0
 36 30  1  0  0  0
 19 15  1  0  0  0
 43 39  2  0  0  0
  1  2  1  0  0  0
 11 14  1  0  0  0
M  END
> <minimizedAffinity>
-7.93759

> <CNNscore>
0.3231737912

> <CNNaffinity>
7.1084299088

> <CNN_VS>
2.2972581387

> <CNNaffinity_variance>
0.1996268332

$$$$
[H]/C(=C(/[H])c1c([H])c([H])c(N([H])/C(=C2\C(=O)N([H])c3c([H])c(C(=O)OC([H])([H])[H])c([H])c([H])c32)c2nc([H])c([H])s2)c([H])c1N1C([H])([H])C([H])([H])N(C([H])([H])[H])C([H])([H])C1([H])[H])c1c([H])oc([H])c1[H]


 43 48  0  0  0  0  0  0  0  0999 V2000
   38.2034   15.7395   -8.4704 N   0  0  0  0  0  0  0  0  0  0  0  0
   38.8032   15.1449   -7.8290 H   0  0  0  0  0  0  0  0  0  0  0  0
   32.6384   17.6036   -5.4638 C   0  0  0  0  0  0  0  0  0  0  0  0
   33.5900   18.5062   -5.8520 C   0  0  0  0  0  0  0  0  0  0  0  0
   34.7837   18.1248   -6.4873 C   0  0  0  0  0  0  0  0  0  0  0  0
   35.0462   16.8036   -6.7504 C   0  0  0  0  0  0  0  0  0  0  0  0
   36.1696   16.1150   -7.3832 C   0  0  0  0  0  0  0  0  0  0  0  0
   37.2674   16.6370   -7.9204 C   0  0  0  0  0  0  0  0  0  0  0  0
   35.8137   14.6888   -7.3379 C   0  0  0  0  0  0  0  0  0  0  0  0
   36.5045   13.7473   -7.7707 O   0  0  0  0  0  0  0  0  0  0  0  0
   34.5463   14.5697   -6.7131 N   0  0  0  0  0  0  0  0  0  0  0  0
   34.0779   15.8603   -6.3559 C   0  0  0  0  0  0  0  0  0  0  0  0
   32.9215   16.2854   -5.7342 C   0  0  0  0  0  0  0  0  0  0  0  0
   34.0123   13.6905   -6.5285 H   0  0  0  0  0  0  0  0  0  0  0  0
   37.4943   18.0779   -8.0105 C   0  0  0  0  0  0  0  0  0  0  0  0
   37.2153   18.9328   -8.9906 N   0  0  0  0  0  0  0  0  0  0  0  0
   37.4241   20.1925   -8.8256 C   0  0  0  0  0  0  0  0  0  0  0  0
   37.9340   20.6194   -7.6304 C   0  0  0  0  0  0  0  0  0  0  0  0
   38.0931   19.1508   -6.7774 S   0  0  0  0  0  0  0  0  0  0  0  0
   31.3944   17.9995   -4.8145 C   0  0  0  0  0  0  0  0  0  0  0  0
   31.4831   18.3192   -3.5782 O   0  0  0  0  0  0  0  0  0  0  0  0
   29.9571   18.4739   -6.7328 C   0  0  0  0  0  0  0  0  0  0  0  0
   30.1556   18.0657   -5.3733 O   0  0  0  0  0  0  0  0  0  0  0  0
   38.3931   15.5151   -9.8425 C   0  0  0  0  0  0  0  0  0  0  0  0
   39.6665   15.8256  -10.3293 C   0  0  0  0  0  0  0  0  0  0  0  0
   39.9277   15.5462  -11.6501 C   0  0  0  0  0  0  0  0  0  0  0  0
   39.0295   14.9886  -12.5113 C   0  0  0  0  0  0  0  0  0  0  0  0
   37.7839   14.6936  -12.0058 C   0  0  0  0  0  0  0  0  0  0  0  0
   37.4706   14.9585  -10.6744 C   0  0  0  0  0  0  0  0  0  0  0  0
   36.7462   14.0561  -12.7573 N   0  0  0  0  0  0  0  0  0  0  0  0
   36.5194   12.6420  -12.5449 C   0  0  0  0  0  0  0  0  0  0  0  0
   35.2459   12.1471  -13.1824 C   0  0  0  0  0  0  0  0  0  0  0  0
   35.0982   12.5495  -14.5418 N   0  0  0  0  0  0  0  0  0  0  0  0
   33.6620   12.5743  -14.8214 C   0  0  0  0  0  0  0  0  0  0  0  0
   35.6371   13.8267  -14.8672 C   0  0  0  0  0  0  0  0  0  0  0  0
   35.9138   14.7384  -13.7209 C   0  0  0  0  0  0  0  0  0  0  0  0
   39.3299   14.6865  -13.8900 C   0  0  0  0  0  0  0  0  0  0  0  0
   39.7373   13.5036  -14.3352 C   0  0  0  0  0  0  0  0  0  0  0  0
   40.0137   13.3068  -15.7679 C   0  0  0  0  0  0  0  0  0  0  0  0
   39.6571   12.1575  -16.4553 C   0  0  0  0  0  0  0  0  0  0  0  0
   40.0735   12.3523  -17.7532 C   0  0  0  0  0  0  0  0  0  0  0  0
   40.6303   13.5222  -17.8225 O   0  0  0  0  0  0  0  0  0  0  0  0
   40.6232   14.1418  -16.6597 C   0  0  0  0  0  0  0  0  0  0  0  0
 22 23  1  0  0  0
 23 20  1  0  0  0
 20 21  2  0  0  0
 20  3  1  0  0  0
  3  4  2  0  0  0
  4  5  1  0  0  0
  5  6  2  0  0  0
  6  7  1  0  0  0
  7  8  2  0  0  0
  8  1  1  0  0  0
  1 24  1  0  0  0
 24 25  2  0  0  0
 25 26  1  0  0  0
 26 27  2  0  0  0
 27 37  1  0  0  0
 37 38  2  0  0  0
 38 39  1  0  0  0
 39 40  1  0  0  0
 40 41  2  0  0  0
 41 42  1  0  0  0
 42 43  1  0  0  0
 27 28  1  0  0  0
 28 29  2  0  0  0
 28 30  1  0  0  0
 30 31  1  0  0  0
 31 32  1  0  0  0
 32 33  1  0  0  0
 33 34  1  0  0  0
 33 35  1  0  0  0
 35 36  1  0  0  0
  8 15  1  0  0  0
 15 16  2  0  0  0
 16 17  1  0  0  0
 17 18  2  0  0  0
 18 19  1  0  0  0
  7  9  1  0  0  0
  9 10  2  0  0  0
  9 11  1  0  0  0
 11 12  1  0  0  0
 12 13  2  0  0  0
 13  3  1  0  0  0
 12  6  1  0  0  0
 29 24  1  0  0  0
 36 30  1  0  0  0
 19 15  1  0  0  0
 43 39  2  0  0  0
  1  2  1  0  0  0
 11 14  1  0  0  0
M  END
> <minimizedAffinity>
-7.81418

> <CNNscore>
0.1270576864

> <CNNaffinity>
6.6214370728

> <CNN_VS>
0.8413044810

> <CNNaffinity_variance>
0.4747506976

$$$$
[H]/C(=C(/[H])c1c([H])c([H])c(N([H])/C(=C2\C(=O)N([H])c3c([H])c(C(=O)OC([H])([H])[H])c([H])c([H])c32)c2nc([H])c([H])s2)c([H])c1N1C([H])([H])C([H])([H])N(C([H])([H])[H])C([H])([H])C1([H])[H])c1c([H])oc([H])c1[H]


 43 48  0  0  0  0  0  0  0  0999 V2000
   38.4387   15.7046   -8.0331 N   0  0  0  0  0  0  0  0  0  0  0  0
   38.7548   16.0891   -8.9696 H   0  0  0  0  0  0  0  0  0  0  0  0
   31.8970   16.5342   -8.0227 C   0  0  0  0  0  0  0  0  0  0  0  0
   32.6681   16.8396   -6.9351 C   0  0  0  0  0  0  0  0  0  0  0  0
   34.0618   16.6624   -6.9189 C   0  0  0  0  0  0  0  0  0  0  0  0
   34.7179   16.1670   -8.0178 C   0  0  0  0  0  0  0  0  0  0  0  0
   36.1238   15.8802   -8.2968 C   0  0  0  0  0  0  0  0  0  0  0  0
   37.1812   16.0705   -7.5146 C   0  0  0  0  0  0  0  0  0  0  0  0
   36.1382   15.3577   -9.6714 C   0  0  0  0  0  0  0  0  0  0  0  0
   37.1446   14.9839  -10.3025 O   0  0  0  0  0  0  0  0  0  0  0  0
   34.8052   15.3505  -10.1550 N   0  0  0  0  0  0  0  0  0  0  0  0
   33.9392   15.8456   -9.1462 C   0  0  0  0  0  0  0  0  0  0  0  0
   32.5729   16.0373   -9.1122 C   0  0  0  0  0  0  0  0  0  0  0  0
   34.4756   15.0387  -11.0965 H   0  0  0  0  0  0  0  0  0  0  0  0
   37.0857   16.6896   -6.1942 C   0  0  0  0  0  0  0  0  0  0  0  0
   36.9590   16.1354   -4.9916 N   0  0  0  0  0  0  0  0  0  0  0  0
   36.9802   16.8733   -3.9368 C   0  0  0  0  0  0  0  0  0  0  0  0
   37.1344   18.2240   -4.0869 C   0  0  0  0  0  0  0  0  0  0  0  0
   37.2448   18.3735   -5.7826 S   0  0  0  0  0  0  0  0  0  0  0  0
   30.4521   16.7283   -8.0443 C   0  0  0  0  0  0  0  0  0  0  0  0
   30.0372   17.8951   -7.7202 O   0  0  0  0  0  0  0  0  0  0  0  0
   29.1867   14.7074   -7.5100 C   0  0  0  0  0  0  0  0  0  0  0  0
   29.5002   15.8116   -8.3682 O   0  0  0  0  0  0  0  0  0  0  0  0
   39.3701   14.8827   -7.3805 C   0  0  0  0  0  0  0  0  0  0  0  0
   38.9451   13.5733   -7.1360 C   0  0  0  0  0  0  0  0  0  0  0  0
   39.8511   12.7056   -6.5730 C   0  0  0  0  0  0  0  0  0  0  0  0
   41.1308   13.0379   -6.2396 C   0  0  0  0  0  0  0  0  0  0  0  0
   41.5224   14.3332   -6.4907 C   0  0  0  0  0  0  0  0  0  0  0  0
   40.6408   15.2500   -7.0593 C   0  0  0  0  0  0  0  0  0  0  0  0
   42.8435   14.8295   -6.2537 N   0  0  0  0  0  0  0  0  0  0  0  0
   43.1030   15.5106   -5.0026 C   0  0  0  0  0  0  0  0  0  0  0  0
   44.5710   15.7476   -4.7541 C   0  0  0  0  0  0  0  0  0  0  0  0
   45.2493   16.3240   -5.8675 N   0  0  0  0  0  0  0  0  0  0  0  0
   46.6537   15.9276   -5.7580 C   0  0  0  0  0  0  0  0  0  0  0  0
   44.7736   15.9279   -7.1498 C   0  0  0  0  0  0  0  0  0  0  0  0
   43.9343   14.6967   -7.1915 C   0  0  0  0  0  0  0  0  0  0  0  0
   42.0719   12.1064   -5.6660 C   0  0  0  0  0  0  0  0  0  0  0  0
   41.7802   11.2186   -4.7227 C   0  0  0  0  0  0  0  0  0  0  0  0
   42.8220   10.3130   -4.2105 C   0  0  0  0  0  0  0  0  0  0  0  0
   42.6988    8.9328   -4.2281 C   0  0  0  0  0  0  0  0  0  0  0  0
   43.8629    8.4452   -3.6777 C   0  0  0  0  0  0  0  0  0  0  0  0
   44.6100    9.4581   -3.3619 O   0  0  0  0  0  0  0  0  0  0  0  0
   44.0361   10.6063   -3.6590 C   0  0  0  0  0  0  0  0  0  0  0  0
 22 23  1  0  0  0
 23 20  1  0  0  0
 20 21  2  0  0  0
 20  3  1  0  0  0
  3  4  2  0  0  0
  4  5  1  0  0  0
  5  6  2  0  0  0
  6  7  1  0  0  0
  7  8  2  0  0  0
  8  1  1  0  0  0
  1 24  1  0  0  0
 24 25  2  0  0  0
 25 26  1  0  0  0
 26 27  2  0  0  0
 27 37  1  0  0  0
 37 38  2  0  0  0
 38 39  1  0  0  0
 39 40  1  0  0  0
 40 41  2  0  0  0
 41 42  1  0  0  0
 42 43  1  0  0  0
 27 28  1  0  0  0
 28 29  2  0  0  0
 28 30  1  0  0  0
 30 31  1  0  0  0
 31 32  1  0  0  0
 32 33  1  0  0  0
 33 34  1  0  0  0
 33 35  1  0  0  0
 35 36  1  0  0  0
  8 15  1  0  0  0
 15 16  2  0  0  0
 16 17  1  0  0  0
 17 18  2  0  0  0
 18 19  1  0  0  0
  7  9  1  0  0  0
  9 10  2  0  0  0
  9 11  1  0  0  0
 11 12  1  0  0  0
 12 13  2  0  0  0
 13  3  1  0  0  0
 12  6  1  0  0  0
 29 24  1  0  0  0
 36 30  1  0  0  0
 19 15  1  0  0  0
 43 39  2  0  0  0
  1  2  1  0  0  0
 11 14  1  0  0  0
M  END
> <minimizedAffinity>
-6.47636

> <CNNscore>
0.1080833375

> <CNNaffinity>
5.8952522278

> <CNN_VS>
0.6371785402

> <CNNaffinity_variance>
0.3161972165

$$$$
[H]/C(=C(/[H])c1c([H])c([H])c(N([H])/C(=C2\C(=O)N([H])c3c([H])c(C(=O)OC([H])([H])[H])c([H])c([H])c32)c2nc([H])c([H])s2)c([H])c1N1C([H])([H])C([H])([H])N(C([H])([H])[H])C([H])([H])C1([H])[H])c1c([H])oc([H])c1[H]


 43 48  0  0  0  0  0  0  0  0999 V2000
   37.0661   16.0172   -7.9846 N   0  0  0  0  0  0  0  0  0  0  0  0
   37.2010   16.0505   -9.0360 H   0  0  0  0  0  0  0  0  0  0  0  0
   33.6215   21.4058   -6.3781 C   0  0  0  0  0  0  0  0  0  0  0  0
   33.2299   20.1533   -5.9922 C   0  0  0  0  0  0  0  0  0  0  0  0
   33.9488   18.9950   -6.3318 C   0  0  0  0  0  0  0  0  0  0  0  0
   35.0974   19.0769   -7.0785 C   0  0  0  0  0  0  0  0  0  0  0  0
   36.0392   18.0757   -7.5760 C   0  0  0  0  0  0  0  0  0  0  0  0
   36.0287   16.7601   -7.3880 C   0  0  0  0  0  0  0  0  0  0  0  0
   37.0512   18.8431   -8.3172 C   0  0  0  0  0  0  0  0  0  0  0  0
   38.0396   18.3711   -8.9097 O   0  0  0  0  0  0  0  0  0  0  0  0
   36.7059   20.2165   -8.2429 N   0  0  0  0  0  0  0  0  0  0  0  0
   35.5144   20.3587   -7.4860 C   0  0  0  0  0  0  0  0  0  0  0  0
   34.7731   21.4660   -7.1271 C   0  0  0  0  0  0  0  0  0  0  0  0
   37.2214   21.0220   -8.6644 H   0  0  0  0  0  0  0  0  0  0  0  0
   35.0355   16.0897   -6.5514 C   0  0  0  0  0  0  0  0  0  0  0  0
   33.9249   15.4398   -6.8884 N   0  0  0  0  0  0  0  0  0  0  0  0
   33.2294   14.8415   -5.9851 C   0  0  0  0  0  0  0  0  0  0  0  0
   33.6597   14.8932   -4.6878 C   0  0  0  0  0  0  0  0  0  0  0  0
   35.0819   15.8241   -4.8317 S   0  0  0  0  0  0  0  0  0  0  0  0
   32.8823   22.6094   -6.0165 C   0  0  0  0  0  0  0  0  0  0  0  0
   32.8758   23.5475   -6.8875 O   0  0  0  0  0  0  0  0  0  0  0  0
   32.8749   23.1708   -3.6384 C   0  0  0  0  0  0  0  0  0  0  0  0
   32.2027   22.8458   -4.8618 O   0  0  0  0  0  0  0  0  0  0  0  0
   38.0046   15.2416   -7.2870 C   0  0  0  0  0  0  0  0  0  0  0  0
   37.7347   13.8705   -7.2441 C   0  0  0  0  0  0  0  0  0  0  0  0
   38.6667   13.0575   -6.6430 C   0  0  0  0  0  0  0  0  0  0  0  0
   39.8313   13.5002   -6.0889 C   0  0  0  0  0  0  0  0  0  0  0  0
   40.0713   14.8542   -6.1447 C   0  0  0  0  0  0  0  0  0  0  0  0
   39.1572   15.7191   -6.7426 C   0  0  0  0  0  0  0  0  0  0  0  0
   41.2671   15.4751   -5.6624 N   0  0  0  0  0  0  0  0  0  0  0  0
   41.2225   16.1346   -4.3743 C   0  0  0  0  0  0  0  0  0  0  0  0
   42.5877   16.5124   -3.8581 C   0  0  0  0  0  0  0  0  0  0  0  0
   43.3892   17.1944   -4.8194 N   0  0  0  0  0  0  0  0  0  0  0  0
   44.7854   16.9409   -4.4617 C   0  0  0  0  0  0  0  0  0  0  0  0
   43.1974   16.7970   -6.1732 C   0  0  0  0  0  0  0  0  0  0  0  0
   42.5166   15.4883   -6.3873 C   0  0  0  0  0  0  0  0  0  0  0  0
   40.8052   12.6275   -5.4787 C   0  0  0  0  0  0  0  0  0  0  0  0
   41.5837   11.7800   -6.1412 C   0  0  0  0  0  0  0  0  0  0  0  0
   42.5467   10.9362   -5.4142 C   0  0  0  0  0  0  0  0  0  0  0  0
   43.7473   10.5150   -5.9633 C   0  0  0  0  0  0  0  0  0  0  0  0
   44.3623    9.7622   -4.9880 C   0  0  0  0  0  0  0  0  0  0  0  0
   43.5847    9.7426   -3.9494 O   0  0  0  0  0  0  0  0  0  0  0  0
   42.4790   10.4312   -4.1475 C   0  0  0  0  0  0  0  0  0  0  0  0
 22 23  1  0  0  0
 23 20  1  0  0  0
 20 21  2  0  0  0
 20  3  1  0  0  0
  3  4  2  0  0  0
  4  5  1  0  0  0
  5  6  2  0  0  0
  6  7  1  0  0  0
  7  8  2  0  0  0
  8  1  1  0  0  0
  1 24  1  0  0  0
 24 25  2  0  0  0
 25 26  1  0  0  0
 26 27  2  0  0  0
 27 37  1  0  0  0
 37 38  2  0  0  0
 38 39  1  0  0  0
 39 40  1  0  0  0
 40 41  2  0  0  0
 41 42  1  0  0  0
 42 43  1  0  0  0
 27 28  1  0  0  0
 28 29  2  0  0  0
 28 30  1  0  0  0
 30 31  1  0  0  0
 31 32  1  0  0  0
 32 33  1  0  0  0
 33 34  1  0  0  0
 33 35  1  0  0  0
 35 36  1  0  0  0
  8 15  1  0  0  0
 15 16  2  0  0  0
 16 17  1  0  0  0
 17 18  2  0  0  0
 18 19  1  0  0  0
  7  9  1  0  0  0
  9 10  2  0  0  0
  9 11  1  0  0  0
 11 12  1  0  0  0
 12 13  2  0  0  0
 13  3  1  0  0  0
 12  6  1  0  0  0
 29 24  1  0  0  0
 36 30  1  0  0  0
 19 15  1  0  0  0
 43 39  2  0  0  0
  1  2  1  0  0  0
 11 14  1  0  0  0
M  END
> <minimizedAffinity>
-6.50911

> <CNNscore>
0.1075654775

> <CNNaffinity>
5.9561157227

> <CNN_VS>
0.6406724453

> <CNNaffinity_variance>
0.0736839920

$$$$
[H]/C(=C(/[H])c1c([H])c([H])c(N([H])/C(=C2\C(=O)N([H])c3c([H])c(C(=O)OC([H])([H])[H])c([H])c([H])c32)c2nc([H])c([H])s2)c([H])c1N1C([H])([H])C([H])([H])N(C([H])([H])[H])C([H])([H])C1([H])[H])c1c([H])oc([H])c1[H]


 43 48  0  0  0  0  0  0  0  0999 V2000
   38.2039   15.4641  -11.6575 N   0  0  0  0  0  0  0  0  0  0  0  0
   38.9726   16.1948  -11.6637 H   0  0  0  0  0  0  0  0  0  0  0  0
   39.9917   12.2773  -17.1467 C   0  0  0  0  0  0  0  0  0  0  0  0
   38.7654   12.0944  -16.5691 C   0  0  0  0  0  0  0  0  0  0  0  0
   38.3719   12.7604  -15.3963 C   0  0  0  0  0  0  0  0  0  0  0  0
   39.2200   13.6405  -14.7721 C   0  0  0  0  0  0  0  0  0  0  0  0
   39.0977   14.4645  -13.5709 C   0  0  0  0  0  0  0  0  0  0  0  0
   38.0565   14.5938  -12.7552 C   0  0  0  0  0  0  0  0  0  0  0  0
   40.3830   15.1709  -13.4637 C   0  0  0  0  0  0  0  0  0  0  0  0
   40.7032   15.9779  -12.5709 O   0  0  0  0  0  0  0  0  0  0  0  0
   41.1981   14.7724  -14.5536 N   0  0  0  0  0  0  0  0  0  0  0  0
   40.4876   13.8396  -15.3522 C   0  0  0  0  0  0  0  0  0  0  0  0
   40.8272   13.1610  -16.5049 C   0  0  0  0  0  0  0  0  0  0  0  0
   42.1698   15.0927  -14.7670 H   0  0  0  0  0  0  0  0  0  0  0  0
   36.7785   13.9263  -12.9938 C   0  0  0  0  0  0  0  0  0  0  0  0
   36.3140   12.7681  -12.5332 N   0  0  0  0  0  0  0  0  0  0  0  0
   35.1093   12.4036  -12.8042 C   0  0  0  0  0  0  0  0  0  0  0  0
   34.3326   13.2302  -13.5687 C   0  0  0  0  0  0  0  0  0  0  0  0
   35.3992   14.5270  -13.8695 S   0  0  0  0  0  0  0  0  0  0  0  0
   40.3968   11.5951  -18.3700 C   0  0  0  0  0  0  0  0  0  0  0  0
   41.6104   11.1903  -18.4119 O   0  0  0  0  0  0  0  0  0  0  0  0
   38.3911   10.6316  -19.3799 C   0  0  0  0  0  0  0  0  0  0  0  0
   39.6324   11.3428  -19.4670 O   0  0  0  0  0  0  0  0  0  0  0  0
   37.3679   15.4872  -10.5308 C   0  0  0  0  0  0  0  0  0  0  0  0
   38.0181   15.6686   -9.3065 C   0  0  0  0  0  0  0  0  0  0  0  0
   37.2355   15.7806   -8.1814 C   0  0  0  0  0  0  0  0  0  0  0  0
   35.8730   15.7265   -8.1829 C   0  0  0  0  0  0  0  0  0  0  0  0
   35.2591   15.5469   -9.4014 C   0  0  0  0  0  0  0  0  0  0  0  0
   36.0085   15.4274  -10.5698 C   0  0  0  0  0  0  0  0  0  0  0  0
   33.8402   15.5242   -9.5865 N   0  0  0  0  0  0  0  0  0  0  0  0
   33.3221   15.7374  -10.9216 C   0  0  0  0  0  0  0  0  0  0  0  0
   31.8511   15.4290  -11.0391 C   0  0  0  0  0  0  0  0  0  0  0  0
   31.0610   16.0339  -10.0185 N   0  0  0  0  0  0  0  0  0  0  0  0
   29.8665   15.2035   -9.8609 C   0  0  0  0  0  0  0  0  0  0  0  0
   31.6888   16.1567   -8.7463 C   0  0  0  0  0  0  0  0  0  0  0  0
   32.8919   15.3065   -8.5187 C   0  0  0  0  0  0  0  0  0  0  0  0
   35.0692   15.8646   -6.9924 C   0  0  0  0  0  0  0  0  0  0  0  0
   34.9110   16.9936   -6.3116 C   0  0  0  0  0  0  0  0  0  0  0  0
   34.0633   17.0200   -5.1081 C   0  0  0  0  0  0  0  0  0  0  0  0
   33.7905   18.1805   -4.4014 C   0  0  0  0  0  0  0  0  0  0  0  0
   32.9713   17.8024   -3.3612 C   0  0  0  0  0  0  0  0  0  0  0  0
   32.7786   16.5223   -3.4499 O   0  0  0  0  0  0  0  0  0  0  0  0
   33.4103   15.9983   -4.4805 C   0  0  0  0  0  0  0  0  0  0  0  0
 22 23  1  0  0  0
 23 20  1  0  0  0
 20 21  2  0  0  0
 20  3  1  0  0  0
  3  4  2  0  0  0
  4  5  1  0  0  0
  5  6  2  0  0  0
  6  7  1  0  0  0
  7  8  2  0  0  0
  8  1  1  0  0  0
  1 24  1  0  0  0
 24 25  2  0  0  0
 25 26  1  0  0  0
 26 27  2  0  0  0
 27 37  1  0  0  0
 37 38  2  0  0  0
 38 39  1  0  0  0
 39 40  1  0  0  0
 40 41  2  0  0  0
 41 42  1  0  0  0
 42 43  1  0  0  0
 27 28  1  0  0  0
 28 29  2  0  0  0
 28 30  1  0  0  0
 30 31  1  0  0  0
 31 32  1  0  0  0
 32 33  1  0  0  0
 33 34  1  0  0  0
 33 35  1  0  0  0
 35 36  1  0  0  0
  8 15  1  0  0  0
 15 16  2  0  0  0
 16 17  1  0  0  0
 17 18  2  0  0  0
 18 19  1  0  0  0
  7  9  1  0  0  0
  9 10  2  0  0  0
  9 11  1  0  0  0
 11 12  1  0  0  0
 12 13  2  0  0  0
 13  3  1  0  0  0
 12  6  1  0  0  0
 29 24  1  0  0  0
 36 30  1  0  0  0
 19 15  1  0  0  0
 43 39  2  0  0  0
  1  2  1  0  0  0
 11 14  1  0  0  0
M  END
> <minimizedAffinity>
-8.20115

> <CNNscore>
0.0995441228

> <CNNaffinity>
6.8310394287

> <CNN_VS>
0.6799898148

> <CNNaffinity_variance>
0.2209054679

$$$$
[H]/C(=C(/[H])c1c([H])c([H])c(N([H])/C(=C2\C(=O)N([H])c3c([H])c(C(=O)OC([H])([H])[H])c([H])c([H])c32)c2nc([H])c([H])s2)c([H])c1N1C([H])([H])C([H])([H])N(C([H])([H])[H])C([H])([H])C1([H])[H])c1c([H])oc([H])c1[H]


 43 48  0  0  0  0  0  0  0  0999 V2000
   38.6152   15.6584   -8.6137 N   0  0  0  0  0  0  0  0  0  0  0  0
   38.8880   15.9881   -9.5841 H   0  0  0  0  0  0  0  0  0  0  0  0
   32.1610   16.7968   -7.8851 C   0  0  0  0  0  0  0  0  0  0  0  0
   33.0821   17.2379   -6.9752 C   0  0  0  0  0  0  0  0  0  0  0  0
   34.4597   16.9979   -7.1124 C   0  0  0  0  0  0  0  0  0  0  0  0
   34.9452   16.2981   -8.1886 C   0  0  0  0  0  0  0  0  0  0  0  0
   36.2914   15.9013   -8.5972 C   0  0  0  0  0  0  0  0  0  0  0  0
   37.4510   16.1651   -8.0039 C   0  0  0  0  0  0  0  0  0  0  0  0
   36.1029   15.1610   -9.8539 C   0  0  0  0  0  0  0  0  0  0  0  0
   37.0028   14.6404  -10.5395 O   0  0  0  0  0  0  0  0  0  0  0  0
   34.7163   15.1399  -10.1502 N   0  0  0  0  0  0  0  0  0  0  0  0
   34.0105   15.8349   -9.1345 C   0  0  0  0  0  0  0  0  0  0  0  0
   32.6675   16.0961   -8.9544 C   0  0  0  0  0  0  0  0  0  0  0  0
   34.2523   14.6948  -10.9741 H   0  0  0  0  0  0  0  0  0  0  0  0
   37.5541   16.9957   -6.8058 C   0  0  0  0  0  0  0  0  0  0  0  0
   37.5397   16.6557   -5.5199 N   0  0  0  0  0  0  0  0  0  0  0  0
   37.7339   17.5506   -4.6148 C   0  0  0  0  0  0  0  0  0  0  0  0
   37.9520   18.8421   -5.0088 C   0  0  0  0  0  0  0  0  0  0  0  0
   37.8657   18.7054   -6.7069 S   0  0  0  0  0  0  0  0  0  0  0  0
   30.7325   17.0551   -7.7494 C   0  0  0  0  0  0  0  0  0  0  0  0
   29.9547   16.2501   -8.3704 O   0  0  0  0  0  0  0  0  0  0  0  0
   30.2533   19.4286   -7.4218 C   0  0  0  0  0  0  0  0  0  0  0  0
   30.1369   18.0520   -7.0403 O   0  0  0  0  0  0  0  0  0  0  0  0
   39.5093   14.7568   -8.0166 C   0  0  0  0  0  0  0  0  0  0  0  0
   38.9200   13.7577   -7.2361 C   0  0  0  0  0  0  0  0  0  0  0  0
   39.7476   12.8012   -6.6967 C   0  0  0  0  0  0  0  0  0  0  0  0
   41.0992   12.7644   -6.8732 C   0  0  0  0  0  0  0  0  0  0  0  0
   41.6529   13.7600   -7.6455 C   0  0  0  0  0  0  0  0  0  0  0  0
   40.8562   14.7520   -8.2133 C   0  0  0  0  0  0  0  0  0  0  0  0
   43.0432   13.8365   -7.9755 N   0  0  0  0  0  0  0  0  0  0  0  0
   43.4673   13.3361   -9.2662 C   0  0  0  0  0  0  0  0  0  0  0  0
   44.8883   13.7091   -9.6049 C   0  0  0  0  0  0  0  0  0  0  0  0
   45.8129   13.4335   -8.5557 N   0  0  0  0  0  0  0  0  0  0  0  0
   46.9333   14.3595   -8.7258 C   0  0  0  0  0  0  0  0  0  0  0  0
   45.3064   13.5858   -7.2338 C   0  0  0  0  0  0  0  0  0  0  0  0
   44.0517   14.3785   -7.0945 C   0  0  0  0  0  0  0  0  0  0  0  0
   41.9480   11.7406   -6.3130 C   0  0  0  0  0  0  0  0  0  0  0  0
   41.9802   11.4015   -5.0295 C   0  0  0  0  0  0  0  0  0  0  0  0
   42.8867   10.3374   -4.5673 C   0  0  0  0  0  0  0  0  0  0  0  0
   42.4405    9.1818   -3.9461 C   0  0  0  0  0  0  0  0  0  0  0  0
   43.5698    8.4424   -3.6736 C   0  0  0  0  0  0  0  0  0  0  0  0
   44.5969    9.1106   -4.1004 O   0  0  0  0  0  0  0  0  0  0  0  0
   44.2474   10.2574   -4.6469 C   0  0  0  0  0  0  0  0  0  0  0  0
 22 23  1  0  0  0
 23 20  1  0  0  0
 20 21  2  0  0  0
 20  3  1  0  0  0
  3  4  2  0  0  0
  4  5  1  0  0  0
  5  6  2  0  0  0
  6  7  1  0  0  0
  7  8  2  0  0  0
  8  1  1  0  0  0
  1 24  1  0  0  0
 24 25  2  0  0  0
 25 26  1  0  0  0
 26 27  2  0  0  0
 27 37  1  0  0  0
 37 38  2  0  0  0
 38 39  1  0  0  0
 39 40  1  0  0  0
 40 41  2  0  0  0
 41 42  1  0  0  0
 42 43  1  0  0  0
 27 28  1  0  0  0
 28 29  2  0  0  0
 28 30  1  0  0  0
 30 31  1  0  0  0
 31 32  1  0  0  0
 32 33  1  0  0  0
 33 34  1  0  0  0
 33 35  1  0  0  0
 35 36  1  0  0  0
  8 15  1  0  0  0
 15 16  2  0  0  0
 16 17  1  0  0  0
 17 18  2  0  0  0
 18 19  1  0  0  0
  7  9  1  0  0  0
  9 10  2  0  0  0
  9 11  1  0  0  0
 11 12  1  0  0  0
 12 13  2  0  0  0
 13  3  1  0  0  0
 12  6  1  0  0  0
 29 24  1  0  0  0
 36 30  1  0  0  0
 19 15  1  0  0  0
 43 39  2  0  0  0
  1  2  1  0  0  0
 11 14  1  0  0  0
M  END
> <minimizedAffinity>
-6.88595

> <CNNscore>
0.0934252962

> <CNNaffinity>
5.8887057304

> <CNN_VS>
0.5501540899

> <CNNaffinity_variance>
0.2431267947

$$$$
[H]/C(=C(/[H])c1c([H])c([H])c(N([H])/C(=C2\C(=O)N([H])c3c([H])c(C(=O)OC([H])([H])[H])c([H])c([H])c32)c2nc([H])c([H])s2)c([H])c1N1C([H])([H])C([H])([H])N(C([H])([H])[H])C([H])([H])C1([H])[H])c1c([H])oc([H])c1[H]


 43 48  0  0  0  0  0  0  0  0999 V2000
   40.9960   16.3358  -10.9059 N   0  0  0  0  0  0  0  0  0  0  0  0
   40.5656   17.2834  -10.7019 H   0  0  0  0  0  0  0  0  0  0  0  0
   43.5703   13.6032   -5.4847 C   0  0  0  0  0  0  0  0  0  0  0  0
   44.3421   13.9437   -6.5613 C   0  0  0  0  0  0  0  0  0  0  0  0
   43.8083   14.5204   -7.7260 C   0  0  0  0  0  0  0  0  0  0  0  0
   42.4630   14.7713   -7.8304 C   0  0  0  0  0  0  0  0  0  0  0  0
   41.6335   15.3490   -8.8863 C   0  0  0  0  0  0  0  0  0  0  0  0
   42.0084   15.8315  -10.0664 C   0  0  0  0  0  0  0  0  0  0  0  0
   40.2645   15.3222   -8.3497 C   0  0  0  0  0  0  0  0  0  0  0  0
   39.2404   15.7214   -8.9349 O   0  0  0  0  0  0  0  0  0  0  0  0
   40.3112   14.7600   -7.0486 N   0  0  0  0  0  0  0  0  0  0  0  0
   41.6530   14.4252   -6.7318 C   0  0  0  0  0  0  0  0  0  0  0  0
   42.2253   13.8604   -5.6102 C   0  0  0  0  0  0  0  0  0  0  0  0
   39.5082   14.6024   -6.3985 H   0  0  0  0  0  0  0  0  0  0  0  0
   43.4082   15.9093  -10.4793 C   0  0  0  0  0  0  0  0  0  0  0  0
   44.2973   16.8867  -10.3250 N   0  0  0  0  0  0  0  0  0  0  0  0
   45.5183   16.7108  -10.6934 C   0  0  0  0  0  0  0  0  0  0  0  0
   45.8692   15.5072  -11.2403 C   0  0  0  0  0  0  0  0  0  0  0  0
   44.3878   14.6626  -11.1976 S   0  0  0  0  0  0  0  0  0  0  0  0
   44.1249   13.0151   -4.2713 C   0  0  0  0  0  0  0  0  0  0  0  0
   44.4871   13.8402   -3.3621 O   0  0  0  0  0  0  0  0  0  0  0  0
   43.7391   10.6672   -4.8275 C   0  0  0  0  0  0  0  0  0  0  0  0
   44.3005   11.6935   -3.9994 O   0  0  0  0  0  0  0  0  0  0  0  0
   40.5153   15.6981  -12.0596 C   0  0  0  0  0  0  0  0  0  0  0  0
   41.4844   15.3811  -13.0162 C   0  0  0  0  0  0  0  0  0  0  0  0
   41.0758   14.6820  -14.1276 C   0  0  0  0  0  0  0  0  0  0  0  0
   39.7930   14.2800  -14.3557 C   0  0  0  0  0  0  0  0  0  0  0  0
   38.8596   14.6057  -13.3982 C   0  0  0  0  0  0  0  0  0  0  0  0
   39.2242   15.3136  -12.2549 C   0  0  0  0  0  0  0  0  0  0  0  0
   37.4848   14.2125  -13.4550 N   0  0  0  0  0  0  0  0  0  0  0  0
   37.0968   12.9872  -12.7884 C   0  0  0  0  0  0  0  0  0  0  0  0
   35.6020   12.8181  -12.6893 C   0  0  0  0  0  0  0  0  0  0  0  0
   34.9233   13.0341  -13.9240 N   0  0  0  0  0  0  0  0  0  0  0  0
   33.5630   13.4577  -13.5899 C   0  0  0  0  0  0  0  0  0  0  0  0
   35.4985   14.0173  -14.7782 C   0  0  0  0  0  0  0  0  0  0  0  0
   36.4601   14.9629  -14.1433 C   0  0  0  0  0  0  0  0  0  0  0  0
   39.3884   13.5308  -15.5208 C   0  0  0  0  0  0  0  0  0  0  0  0
   40.0290   12.4713  -16.0006 C   0  0  0  0  0  0  0  0  0  0  0  0
   39.5238   11.7804  -17.1986 C   0  0  0  0  0  0  0  0  0  0  0  0
   40.2010   11.7716  -18.4077 C   0  0  0  0  0  0  0  0  0  0  0  0
   39.4240   11.0278  -19.2674 C   0  0  0  0  0  0  0  0  0  0  0  0
   38.3744   10.6318  -18.6154 O   0  0  0  0  0  0  0  0  0  0  0  0
   38.3802   11.0539  -17.3673 C   0  0  0  0  0  0  0  0  0  0  0  0
 22 23  1  0  0  0
 23 20  1  0  0  0
 20 21  2  0  0  0
 20  3  1  0  0  0
  3  4  2  0  0  0
  4  5  1  0  0  0
  5  6  2  0  0  0
  6  7  1  0  0  0
  7  8  2  0  0  0
  8  1  1  0  0  0
  1 24  1  0  0  0
 24 25  2  0  0  0
 25 26  1  0  0  0
 26 27  2  0  0  0
 27 37  1  0  0  0
 37 38  2  0  0  0
 38 39  1  0  0  0
 39 40  1  0  0  0
 40 41  2  0  0  0
 41 42  1  0  0  0
 42 43  1  0  0  0
 27 28  1  0  0  0
 28 29  2  0  0  0
 28 30  1  0  0  0
 30 31  1  0  0  0
 31 32  1  0  0  0
 32 33  1  0  0  0
 33 34  1  0  0  0
 33 35  1  0  0  0
 35 36  1  0  0  0
  8 15  1  0  0  0
 15 16  2  0  0  0
 16 17  1  0  0  0
 17 18  2  0  0  0
 18 19  1  0  0  0
  7  9  1  0  0  0
  9 10  2  0  0  0
  9 11  1  0  0  0
 11 12  1  0  0  0
 12 13  2  0  0  0
 13  3  1  0  0  0
 12  6  1  0  0  0
 29 24  1  0  0  0
 36 30  1  0  0  0
 19 15  1  0  0  0
 43 39  2  0  0  0
  1  2  1  0  0  0
 11 14  1  0  0  0
M  END
> <minimizedAffinity>
-8.26059

> <CNNscore>
0.0929006934

> <CNNaffinity>
6.6200647354

> <CNN_VS>
0.6150085926

> <CNNaffinity_variance>
0.1640270054

$$$$
[H]/C(=C(/[H])c1c([H])c([H])c(N([H])/C(=C2\C(=O)N([H])c3c([H])c(C(=O)OC([H])([H])[H])c([H])c([H])c32)c2nc([H])c([H])s2)c([H])c1N1C([H])([H])C([H])([H])N(C([H])([H])[H])C([H])([H])C1([H])[H])c1c([H])oc([H])c1[H]


 43 48  0  0  0  0  0  0  0  0999 V2000
   39.9354   16.8364  -10.0321 N   0  0  0  0  0  0  0  0  0  0  0  0
   40.5897   17.6707  -10.0077 H   0  0  0  0  0  0  0  0  0  0  0  0
   35.3289   16.8595   -5.3138 C   0  0  0  0  0  0  0  0  0  0  0  0
   36.3570   15.9574   -5.3187 C   0  0  0  0  0  0  0  0  0  0  0  0
   37.3423   15.9349   -6.3200 C   0  0  0  0  0  0  0  0  0  0  0  0
   37.3119   16.8376   -7.3533 C   0  0  0  0  0  0  0  0  0  0  0  0
   38.1751   17.0593   -8.5120 C   0  0  0  0  0  0  0  0  0  0  0  0
   39.2889   16.4191   -8.8523 C   0  0  0  0  0  0  0  0  0  0  0  0
   37.5660   18.1908   -9.2271 C   0  0  0  0  0  0  0  0  0  0  0  0
   37.9866   18.7030  -10.2814 O   0  0  0  0  0  0  0  0  0  0  0  0
   36.4130   18.5979   -8.5088 N   0  0  0  0  0  0  0  0  0  0  0  0
   36.2591   17.7728   -7.3650 C   0  0  0  0  0  0  0  0  0  0  0  0
   35.3152   17.7535   -6.3585 C   0  0  0  0  0  0  0  0  0  0  0  0
   35.7584   19.3756   -8.7516 H   0  0  0  0  0  0  0  0  0  0  0  0
   39.8788   15.3671   -8.0269 C   0  0  0  0  0  0  0  0  0  0  0  0
   39.7007   14.0493   -8.0566 N   0  0  0  0  0  0  0  0  0  0  0  0
   40.3952   13.2878   -7.2850 C   0  0  0  0  0  0  0  0  0  0  0  0
   41.3081   13.8655   -6.4461 C   0  0  0  0  0  0  0  0  0  0  0  0
   41.1201   15.5200   -6.8162 S   0  0  0  0  0  0  0  0  0  0  0  0
   34.3123   16.8907   -4.2691 C   0  0  0  0  0  0  0  0  0  0  0  0
   34.4011   17.8512   -3.4275 O   0  0  0  0  0  0  0  0  0  0  0  0
   32.6963   15.3022   -5.1835 C   0  0  0  0  0  0  0  0  0  0  0  0
   33.2853   16.0165   -4.0894 O   0  0  0  0  0  0  0  0  0  0  0  0
   39.8272   16.1993  -11.2776 C   0  0  0  0  0  0  0  0  0  0  0  0
   40.9973   16.1776  -12.0426 C   0  0  0  0  0  0  0  0  0  0  0  0
   40.9647   15.4935  -13.2349 C   0  0  0  0  0  0  0  0  0  0  0  0
   39.8704   14.8381  -13.7169 C   0  0  0  0  0  0  0  0  0  0  0  0
   38.7323   14.8761  -12.9439 C   0  0  0  0  0  0  0  0  0  0  0  0
   38.7151   15.5567  -11.7284 C   0  0  0  0  0  0  0  0  0  0  0  0
   37.5176   14.1959  -13.2750 N   0  0  0  0  0  0  0  0  0  0  0  0
   36.4506   14.9614  -13.8848 C   0  0  0  0  0  0  0  0  0  0  0  0
   35.3401   14.0972  -14.4260 C   0  0  0  0  0  0  0  0  0  0  0  0
   34.8798   13.1177  -13.4983 N   0  0  0  0  0  0  0  0  0  0  0  0
   34.3240   12.0173  -14.2868 C   0  0  0  0  0  0  0  0  0  0  0  0
   35.8700   12.5840  -12.6254 C   0  0  0  0  0  0  0  0  0  0  0  0
   37.2893   12.7903  -13.0318 C   0  0  0  0  0  0  0  0  0  0  0  0
   39.8626   14.1103  -14.9630 C   0  0  0  0  0  0  0  0  0  0  0  0
   40.5805   13.0205  -15.2085 C   0  0  0  0  0  0  0  0  0  0  0  0
   40.4927   12.3558  -16.5193 C   0  0  0  0  0  0  0  0  0  0  0  0
   39.3459   11.7214  -16.9695 C   0  0  0  0  0  0  0  0  0  0  0  0
   39.6524   11.2359  -18.2210 C   0  0  0  0  0  0  0  0  0  0  0  0
   40.8811   11.5592  -18.4846 O   0  0  0  0  0  0  0  0  0  0  0  0
   41.4366   12.2333  -17.4982 C   0  0  0  0  0  0  0  0  0  0  0  0
 22 23  1  0  0  0
 23 20  1  0  0  0
 20 21  2  0  0  0
 20  3  1  0  0  0
  3  4  2  0  0  0
  4  5  1  0  0  0
  5  6  2  0  0  0
  6  7  1  0  0  0
  7  8  2  0  0  0
  8  1  1  0  0  0
  1 24  1  0  0  0
 24 25  2  0  0  0
 25 26  1  0  0  0
 26 27  2  0  0  0
 27 37  1  0  0  0
 37 38  2  0  0  0
 38 39  1  0  0  0
 39 40  1  0  0  0
 40 41  2  0  0  0
 41 42  1  0  0  0
 42 43  1  0  0  0
 27 28  1  0  0  0
 28 29  2  0  0  0
 28 30  1  0  0  0
 30 31  1  0  0  0
 31 32  1  0  0  0
 32 33  1  0  0  0
 33 34  1  0  0  0
 33 35  1  0  0  0
 35 36  1  0  0  0
  8 15  1  0  0  0
 15 16  2  0  0  0
 16 17  1  0  0  0
 17 18  2  0  0  0
 18 19  1  0  0  0
  7  9  1  0  0  0
  9 10  2  0  0  0
  9 11  1  0  0  0
 11 12  1  0  0  0
 12 13  2  0  0  0
 13  3  1  0  0  0
 12  6  1  0  0  0
 29 24  1  0  0  0
 36 30  1  0  0  0
 19 15  1  0  0  0
 43 39  2  0  0  0
  1  2  1  0  0  0
 11 14  1  0  0  0
M  END
> <minimizedAffinity>
-9.47486

> <CNNscore>
0.0832962841

> <CNNaffinity>
6.5689096451

> <CNN_VS>
0.5471657515

> <CNNaffinity_variance>
0.3185810447

$$$$
[H]/C(=C(/[H])c1c([H])c([H])c(N([H])/C(=C2\C(=O)N([H])c3c([H])c(C(=O)OC([H])([H])[H])c([H])c([H])c32)c2nc([H])c([H])s2)c([H])c1N1C([H])([H])C([H])([H])N(C([H])([H])[H])C([H])([H])C1([H])[H])c1c([H])oc([H])c1[H]


 43 48  0  0  0  0  0  0  0  0999 V2000
   36.2716   15.3382  -12.8759 N   0  0  0  0  0  0  0  0  0  0  0  0
   35.5303   15.3347  -13.6343 H   0  0  0  0  0  0  0  0  0  0  0  0
   32.3588   16.4151   -7.6784 C   0  0  0  0  0  0  0  0  0  0  0  0
   33.6984   16.6893   -7.6464 C   0  0  0  0  0  0  0  0  0  0  0  0
   34.5467   16.4594   -8.7426 C   0  0  0  0  0  0  0  0  0  0  0  0
   34.0533   15.9412   -9.9138 C   0  0  0  0  0  0  0  0  0  0  0  0
   34.6708   15.6017  -11.1945 C   0  0  0  0  0  0  0  0  0  0  0  0
   35.9365   15.7507  -11.5715 C   0  0  0  0  0  0  0  0  0  0  0  0
   33.5703   15.0811  -12.0194 C   0  0  0  0  0  0  0  0  0  0  0  0
   33.6641   14.6705  -13.1913 O   0  0  0  0  0  0  0  0  0  0  0  0
   32.3812   15.1253  -11.2480 N   0  0  0  0  0  0  0  0  0  0  0  0
   32.6762   15.6512   -9.9638 C   0  0  0  0  0  0  0  0  0  0  0  0
   31.8848   15.8946   -8.8597 C   0  0  0  0  0  0  0  0  0  0  0  0
   31.4240   14.8276  -11.5437 H   0  0  0  0  0  0  0  0  0  0  0  0
   36.9472   16.3710  -10.7173 C   0  0  0  0  0  0  0  0  0  0  0  0
   37.3447   17.6378  -10.6362 N   0  0  0  0  0  0  0  0  0  0  0  0
   38.2016   17.9880   -9.7413 C   0  0  0  0  0  0  0  0  0  0  0  0
   38.6840   17.0332   -8.8891 C   0  0  0  0  0  0  0  0  0  0  0  0
   37.8610   15.6398   -9.4287 S   0  0  0  0  0  0  0  0  0  0  0  0
   31.4757   16.6638   -6.5452 C   0  0  0  0  0  0  0  0  0  0  0  0
   30.2288   16.4581   -6.7490 O   0  0  0  0  0  0  0  0  0  0  0  0
   31.7553   18.4695   -4.9228 C   0  0  0  0  0  0  0  0  0  0  0  0
   31.8276   17.0891   -5.3016 O   0  0  0  0  0  0  0  0  0  0  0  0
   37.5560   14.9596  -13.2952 C   0  0  0  0  0  0  0  0  0  0  0  0
   38.5973   15.3212  -12.4352 C   0  0  0  0  0  0  0  0  0  0  0  0
   39.8656   14.9013  -12.7608 C   0  0  0  0  0  0  0  0  0  0  0  0
   40.1716   14.1587  -13.8627 C   0  0  0  0  0  0  0  0  0  0  0  0
   39.1277   13.8173  -14.6920 C   0  0  0  0  0  0  0  0  0  0  0  0
   37.8249   14.2194  -14.4055 C   0  0  0  0  0  0  0  0  0  0  0  0
   39.2666   12.9968  -15.8563 N   0  0  0  0  0  0  0  0  0  0  0  0
   38.5102   11.7637  -15.9169 C   0  0  0  0  0  0  0  0  0  0  0  0
   38.5297   11.1271  -17.2834 C   0  0  0  0  0  0  0  0  0  0  0  0
   39.8370   11.0212  -17.8416 N   0  0  0  0  0  0  0  0  0  0  0  0
   39.6753   11.0043  -19.2959 C   0  0  0  0  0  0  0  0  0  0  0  0
   40.7362   12.0730  -17.5059 C   0  0  0  0  0  0  0  0  0  0  0  0
   40.1218   13.3226  -16.9741 C   0  0  0  0  0  0  0  0  0  0  0  0
   41.5076   13.7126  -14.1766 C   0  0  0  0  0  0  0  0  0  0  0  0
   42.6074   14.1141  -13.5501 C   0  0  0  0  0  0  0  0  0  0  0  0
   43.9227   13.5900  -13.9538 C   0  0  0  0  0  0  0  0  0  0  0  0
   44.8592   13.1194  -13.0471 C   0  0  0  0  0  0  0  0  0  0  0  0
   45.9399   12.7162  -13.7991 C   0  0  0  0  0  0  0  0  0  0  0  0
   45.6605   12.9330  -15.0476 O   0  0  0  0  0  0  0  0  0  0  0  0
   44.4615   13.4572  -15.2012 C   0  0  0  0  0  0  0  0  0  0  0  0
 22 23  1  0  0  0
 23 20  1  0  0  0
 20 21  2  0  0  0
 20  3  1  0  0  0
  3  4  2  0  0  0
  4  5  1  0  0  0
  5  6  2  0  0  0
  6  7  1  0  0  0
  7  8  2  0  0  0
  8  1  1  0  0  0
  1 24  1  0  0  0
 24 25  2  0  0  0
 25 26  1  0  0  0
 26 27  2  0  0  0
 27 37  1  0  0  0
 37 38  2  0  0  0
 38 39  1  0  0  0
 39 40  1  0  0  0
 40 41  2  0  0  0
 41 42  1  0  0  0
 42 43  1  0  0  0
 27 28  1  0  0  0
 28 29  2  0  0  0
 28 30  1  0  0  0
 30 31  1  0  0  0
 31 32  1  0  0  0
 32 33  1  0  0  0
 33 34  1  0  0  0
 33 35  1  0  0  0
 35 36  1  0  0  0
  8 15  1  0  0  0
 15 16  2  0  0  0
 16 17  1  0  0  0
 17 18  2  0  0  0
 18 19  1  0  0  0
  7  9  1  0  0  0
  9 10  2  0  0  0
  9 11  1  0  0  0
 11 12  1  0  0  0
 12 13  2  0  0  0
 13  3  1  0  0  0
 12  6  1  0  0  0
 29 24  1  0  0  0
 36 30  1  0  0  0
 19 15  1  0  0  0
 43 39  2  0  0  0
  1  2  1  0  0  0
 11 14  1  0  0  0
M  END
> <minimizedAffinity>
-9.16874

> <CNNscore>
0.0721337944

> <CNNaffinity>
6.1132664680

> <CNN_VS>
0.4409731030

> <CNNaffinity_variance>
1.0705641508

$$$$
[H]Oc1c([H])c([H])c(-c2c([H])c([H])c(C([H])([H])[H])c(C(c3c([H])n([H])c4nc([H])c(-c5c([H])c([H])c6c([H])c(C(=O)N([H])C([H])([H])[H])c([H])c([H])c6c5[H])c([H])c34)(C([H])([H])[H])C([H])([H])[H])c2[H])c(C([H])([H])C([H])([H])[H])c1[H]


 45 50  0  0  0  0  0  0  0  0999 V2000
   45.5002   13.8551  -14.7418 C   0  0  0  0  0  0  0  0  0  0  0  0
   46.4493   13.3064  -15.5743 C   0  0  0  0  0  0  0  0  0  0  0  0
   45.8367   12.5803  -16.5359 N   0  0  0  0  0  0  0  0  0  0  0  0
   44.5035   12.6374  -16.3583 C   0  0  0  0  0  0  0  0  0  0  0  0
   43.4632   12.0776  -17.0566 N   0  0  0  0  0  0  0  0  0  0  0  0
   42.1787   12.2921  -16.6628 C   0  0  0  0  0  0  0  0  0  0  0  0
   41.9169   13.0692  -15.5653 C   0  0  0  0  0  0  0  0  0  0  0  0
   42.9928   13.6275  -14.8714 C   0  0  0  0  0  0  0  0  0  0  0  0
   44.2884   13.4210  -15.2551 C   0  0  0  0  0  0  0  0  0  0  0  0
   46.3004   12.0428  -17.3160 H   0  0  0  0  0  0  0  0  0  0  0  0
   40.5705   13.3292  -15.1009 C   0  0  0  0  0  0  0  0  0  0  0  0
   40.2706   14.2965  -14.1474 C   0  0  0  0  0  0  0  0  0  0  0  0
   38.9769   14.5215  -13.7246 C   0  0  0  0  0  0  0  0  0  0  0  0
   37.9425   13.7836  -14.2445 C   0  0  0  0  0  0  0  0  0  0  0  0
   36.6137   13.9786  -13.8439 C   0  0  0  0  0  0  0  0  0  0  0  0
   35.5719   13.2597  -14.3445 C   0  0  0  0  0  0  0  0  0  0  0  0
   35.8496   12.2992  -15.2880 C   0  0  0  0  0  0  0  0  0  0  0  0
   37.1418   12.0899  -15.6960 C   0  0  0  0  0  0  0  0  0  0  0  0
   38.1841   12.8231  -15.1822 C   0  0  0  0  0  0  0  0  0  0  0  0
   39.5013   12.6090  -15.5986 C   0  0  0  0  0  0  0  0  0  0  0  0
   34.2208   13.5074  -13.8919 C   0  0  0  0  0  0  0  0  0  0  0  0
   33.2874   13.0599  -14.6290 O   0  0  0  0  0  0  0  0  0  0  0  0
   33.8747   14.1960  -12.7158 N   0  0  0  0  0  0  0  0  0  0  0  0
   32.4901   14.3819  -12.3678 C   0  0  0  0  0  0  0  0  0  0  0  0
   34.6217   14.5898  -12.0668 H   0  0  0  0  0  0  0  0  0  0  0  0
   45.7560   14.7832  -13.6322 C   0  0  0  0  0  0  0  0  0  0  0  0
   47.2946   14.9395  -13.6179 C   0  0  0  0  0  0  0  0  0  0  0  0
   45.2083   16.1615  -13.7706 C   0  0  0  0  0  0  0  0  0  0  0  0
   45.8106   12.4558  -10.6581 C   0  0  0  0  0  0  0  0  0  0  0  0
   44.6827   12.8790   -9.9874 C   0  0  0  0  0  0  0  0  0  0  0  0
   43.9384   13.9100  -10.4803 C   0  0  0  0  0  0  0  0  0  0  0  0
   44.2516   14.5974  -11.6686 C   0  0  0  0  0  0  0  0  0  0  0  0
   43.4107   15.7410  -12.0673 C   0  0  0  0  0  0  0  0  0  0  0  0
   45.3778   14.1653  -12.3324 C   0  0  0  0  0  0  0  0  0  0  0  0
   46.1374   13.1040  -11.8162 C   0  0  0  0  0  0  0  0  0  0  0  0
   47.1492   11.3571   -8.8842 C   0  0  0  0  0  0  0  0  0  0  0  0
   47.8949   10.2345   -8.4988 C   0  0  0  0  0  0  0  0  0  0  0  0
   48.0781    9.1361   -9.3018 C   0  0  0  0  0  0  0  0  0  0  0  0
   48.8421    8.0637   -8.8217 O   0  0  0  0  0  0  0  0  0  0  0  0
   47.5065    9.1169  -10.5566 C   0  0  0  0  0  0  0  0  0  0  0  0
   46.7698   10.2167  -10.9492 C   0  0  0  0  0  0  0  0  0  0  0  0
   46.5868   11.3272  -10.1340 C   0  0  0  0  0  0  0  0  0  0  0  0
   48.3309    7.3335   -8.3153 H   0  0  0  0  0  0  0  0  0  0  0  0
   47.9107   12.3867   -6.7600 C   0  0  0  0  0  0  0  0  0  0  0  0
   46.9733   12.4922   -7.9476 C   0  0  0  0  0  0  0  0  0  0  0  0
 44 45  1  0  0  0
 45 36  1  0  0  0
 36 37  2  0  0  0
 37 38  1  0  0  0
 38 39  1  0  0  0
 38 40  2  0  0  0
 40 41  1  0  0  0
 41 42  2  0  0  0
 42 29  1  0  0  0
 29 30  2  0  0  0
 30 31  1  0  0  0
 31 32  2  0  0  0
 32 33  1  0  0  0
 32 34  1  0  0  0
 34 35  2  0  0  0
 34 26  1  0  0  0
 26 27  1  0  0  0
 26 28  1  0  0  0
 26  1  1  0  0  0
  1  2  2  0  0  0
  2  3  1  0  0  0
  3  4  1  0  0  0
  4  5  2  0  0  0
  5  6  1  0  0  0
  6  7  2  0  0  0
  7  8  1  0  0  0
  8  9  2  0  0  0
  7 11  1  0  0  0
 11 12  2  0  0  0
 12 13  1  0  0  0
 13 14  2  0  0  0
 14 15  1  0  0  0
 15 16  2  0  0  0
 16 17  1  0  0  0
 17 18  2  0  0  0
 18 19  1  0  0  0
 19 20  2  0  0  0
 16 21  1  0  0  0
 21 22  2  0  0  0
 21 23  1  0  0  0
 23 24  1  0  0  0
 42 36  1  0  0  0
 35 29  1  0  0  0
  9  1  1  0  0  0
 20 11  1  0  0  0
  9  4  1  0  0  0
 19 14  1  0  0  0
 39 43  1  0  0  0
  3 10  1  0  0  0
 23 25  1  0  0  0
M  END
> <minimizedAffinity>
-10.07914

> <CNNscore>
0.2016909868

> <CNNaffinity>
7.0852422714

> <CNN_VS>
1.4290294647

> <CNNaffinity_variance>
0.0740089938

$$$$
[H]Oc1c([H])c([H])c(-c2c([H])c([H])c(C([H])([H])[H])c(C(c3c([H])n([H])c4nc([H])c(-c5c([H])c([H])c6c([H])c(C(=O)N([H])C([H])([H])[H])c([H])c([H])c6c5[H])c([H])c34)(C([H])([H])[H])C([H])([H])[H])c2[H])c(C([H])([H])C([H])([H])[H])c1[H]


 45 50  0  0  0  0  0  0  0  0999 V2000
   45.4450   13.2908  -14.2403 C   0  0  0  0  0  0  0  0  0  0  0  0
   46.3919   12.8574  -15.1406 C   0  0  0  0  0  0  0  0  0  0  0  0
   45.7803   12.4617  -16.2792 N   0  0  0  0  0  0  0  0  0  0  0  0
   44.4501   12.6246  -16.1523 C   0  0  0  0  0  0  0  0  0  0  0  0
   43.4118   12.3735  -17.0136 N   0  0  0  0  0  0  0  0  0  0  0  0
   42.1301   12.6298  -16.6360 C   0  0  0  0  0  0  0  0  0  0  0  0
   41.8692   13.1407  -15.3919 C   0  0  0  0  0  0  0  0  0  0  0  0
   42.9430   13.3875  -14.5336 C   0  0  0  0  0  0  0  0  0  0  0  0
   44.2358   13.1351  -14.8989 C   0  0  0  0  0  0  0  0  0  0  0  0
   46.2429   12.0814  -17.1476 H   0  0  0  0  0  0  0  0  0  0  0  0
   40.5255   13.4307  -14.9375 C   0  0  0  0  0  0  0  0  0  0  0  0
   40.2358   14.4331  -14.0176 C   0  0  0  0  0  0  0  0  0  0  0  0
   38.9444   14.6862  -13.6035 C   0  0  0  0  0  0  0  0  0  0  0  0
   37.9023   13.9420  -14.0985 C   0  0  0  0  0  0  0  0  0  0  0  0
   36.5756   14.1647  -13.7055 C   0  0  0  0  0  0  0  0  0  0  0  0
   35.5263   13.4403  -14.1819 C   0  0  0  0  0  0  0  0  0  0  0  0
   35.7940   12.4452  -15.0919 C   0  0  0  0  0  0  0  0  0  0  0  0
   37.0839   12.2084  -15.4919 C   0  0  0  0  0  0  0  0  0  0  0  0
   38.1339   12.9476  -15.0027 C   0  0  0  0  0  0  0  0  0  0  0  0
   39.4488   12.7054  -15.4109 C   0  0  0  0  0  0  0  0  0  0  0  0
   34.1778   13.7177  -13.7388 C   0  0  0  0  0  0  0  0  0  0  0  0
   33.2432   13.3892  -14.5345 O   0  0  0  0  0  0  0  0  0  0  0  0
   33.8356   14.3143  -12.5123 N   0  0  0  0  0  0  0  0  0  0  0  0
   32.4534   14.5415  -12.1797 C   0  0  0  0  0  0  0  0  0  0  0  0
   34.5838   14.6071  -11.8133 H   0  0  0  0  0  0  0  0  0  0  0  0
   45.7119   13.8855  -12.9238 C   0  0  0  0  0  0  0  0  0  0  0  0
   45.1966   12.8275  -11.9202 C   0  0  0  0  0  0  0  0  0  0  0  0
   47.1399   14.1199  -12.5704 C   0  0  0  0  0  0  0  0  0  0  0  0
   43.0246   16.1672  -11.5685 C   0  0  0  0  0  0  0  0  0  0  0  0
   43.2203   17.2815  -12.3566 C   0  0  0  0  0  0  0  0  0  0  0  0
   44.2161   17.2958  -13.2883 C   0  0  0  0  0  0  0  0  0  0  0  0
   45.0897   16.2140  -13.5104 C   0  0  0  0  0  0  0  0  0  0  0  0
   46.1724   16.3701  -14.4990 C   0  0  0  0  0  0  0  0  0  0  0  0
   44.8841   15.1053  -12.7206 C   0  0  0  0  0  0  0  0  0  0  0  0
   43.8571   15.1011  -11.7639 C   0  0  0  0  0  0  0  0  0  0  0  0
   42.1594   15.9165   -9.2588 C   0  0  0  0  0  0  0  0  0  0  0  0
   41.0372   15.8961   -8.4192 C   0  0  0  0  0  0  0  0  0  0  0  0
   39.7548   16.0987   -8.8656 C   0  0  0  0  0  0  0  0  0  0  0  0
   38.7003   16.0583   -7.9433 O   0  0  0  0  0  0  0  0  0  0  0  0
   39.5387   16.3364  -10.2067 C   0  0  0  0  0  0  0  0  0  0  0  0
   40.6355   16.3584  -11.0451 C   0  0  0  0  0  0  0  0  0  0  0  0
   41.9322   16.1524  -10.5899 C   0  0  0  0  0  0  0  0  0  0  0  0
   38.4512   16.9485   -7.4999 H   0  0  0  0  0  0  0  0  0  0  0  0
   44.0712   17.0025   -8.1109 C   0  0  0  0  0  0  0  0  0  0  0  0
   43.5156   15.7178   -8.6949 C   0  0  0  0  0  0  0  0  0  0  0  0
 44 45  1  0  0  0
 45 36  1  0  0  0
 36 37  2  0  0  0
 37 38  1  0  0  0
 38 39  1  0  0  0
 38 40  2  0  0  0
 40 41  1  0  0  0
 41 42  2  0  0  0
 42 29  1  0  0  0
 29 30  2  0  0  0
 30 31  1  0  0  0
 31 32  2  0  0  0
 32 33  1  0  0  0
 32 34  1  0  0  0
 34 35  2  0  0  0
 34 26  1  0  0  0
 26 27  1  0  0  0
 26 28  1  0  0  0
 26  1  1  0  0  0
  1  2  2  0  0  0
  2  3  1  0  0  0
  3  4  1  0  0  0
  4  5  2  0  0  0
  5  6  1  0  0  0
  6  7  2  0  0  0
  7  8  1  0  0  0
  8  9  2  0  0  0
  7 11  1  0  0  0
 11 12  2  0  0  0
 12 13  1  0  0  0
 13 14  2  0  0  0
 14 15  1  0  0  0
 15 16  2  0  0  0
 16 17  1  0  0  0
 17 18  2  0  0  0
 18 19  1  0  0  0
 19 20  2  0  0  0
 16 21  1  0  0  0
 21 22  2  0  0  0
 21 23  1  0  0  0
 23 24  1  0  0  0
 42 36  1  0  0  0
 35 29  1  0  0  0
  9  1  1  0  0  0
 20 11  1  0  0  0
  9  4  1  0  0  0
 19 14  1  0  0  0
 39 43  1  0  0  0
  3 10  1  0  0  0
 23 25  1  0  0  0
M  END
> <minimizedAffinity>
-10.23285

> <CNNscore>
0.2010395378

> <CNNaffinity>
7.0157470703

> <CNN_VS>
1.4104425907

> <CNNaffinity_variance>
0.4092601240

$$$$
[H]Oc1c([H])c([H])c(-c2c([H])c([H])c(C([H])([H])[H])c(C(c3c([H])n([H])c4nc([H])c(-c5c([H])c([H])c6c([H])c(C(=O)N([H])C([H])([H])[H])c([H])c([H])c6c5[H])c([H])c34)(C([H])([H])[H])C([H])([H])[H])c2[H])c(C([H])([H])C([H])([H])[H])c1[H]


 45 50  0  0  0  0  0  0  0  0999 V2000
   44.3148   13.1935  -14.4158 C   0  0  0  0  0  0  0  0  0  0  0  0
   44.9991   12.9278  -15.5803 C   0  0  0  0  0  0  0  0  0  0  0  0
   44.1201   12.8112  -16.6005 N   0  0  0  0  0  0  0  0  0  0  0  0
   42.8698   12.9947  -16.1368 C   0  0  0  0  0  0  0  0  0  0  0  0
   41.6496   12.9760  -16.7646 N   0  0  0  0  0  0  0  0  0  0  0  0
   40.5097   13.1947  -16.0549 C   0  0  0  0  0  0  0  0  0  0  0  0
   40.5742   13.4351  -14.7078 C   0  0  0  0  0  0  0  0  0  0  0  0
   41.8277   13.4489  -14.0920 C   0  0  0  0  0  0  0  0  0  0  0  0
   42.9815   13.2309  -14.7917 C   0  0  0  0  0  0  0  0  0  0  0  0
   44.3455   12.6092  -17.6110 H   0  0  0  0  0  0  0  0  0  0  0  0
   39.3939   13.6726  -13.9037 C   0  0  0  0  0  0  0  0  0  0  0  0
   38.3160   12.7944  -13.8608 C   0  0  0  0  0  0  0  0  0  0  0  0
   37.2043   13.0481  -13.0844 C   0  0  0  0  0  0  0  0  0  0  0  0
   37.1379   14.1907  -12.3262 C   0  0  0  0  0  0  0  0  0  0  0  0
   36.0282   14.4883  -11.5234 C   0  0  0  0  0  0  0  0  0  0  0  0
   35.9393   15.6141  -10.7636 C   0  0  0  0  0  0  0  0  0  0  0  0
   36.9955   16.4937  -10.7938 C   0  0  0  0  0  0  0  0  0  0  0  0
   38.0922   16.2245  -11.5714 C   0  0  0  0  0  0  0  0  0  0  0  0
   38.1686   15.0837  -12.3336 C   0  0  0  0  0  0  0  0  0  0  0  0
   39.2871   14.8101  -13.1264 C   0  0  0  0  0  0  0  0  0  0  0  0
   34.7676   15.8662   -9.9542 C   0  0  0  0  0  0  0  0  0  0  0  0
   34.9700   16.3968   -8.8175 O   0  0  0  0  0  0  0  0  0  0  0  0
   33.4453   15.5704  -10.3302 N   0  0  0  0  0  0  0  0  0  0  0  0
   32.3561   15.8677   -9.4370 C   0  0  0  0  0  0  0  0  0  0  0  0
   33.2261   15.1250  -11.2725 H   0  0  0  0  0  0  0  0  0  0  0  0
   44.9153   13.4795  -13.1060 C   0  0  0  0  0  0  0  0  0  0  0  0
   44.3195   12.3989  -12.1735 C   0  0  0  0  0  0  0  0  0  0  0  0
   46.3944   13.3373  -13.0006 C   0  0  0  0  0  0  0  0  0  0  0  0
   43.1931   16.0199  -10.9048 C   0  0  0  0  0  0  0  0  0  0  0  0
   43.4364   17.1752  -11.6169 C   0  0  0  0  0  0  0  0  0  0  0  0
   44.1616   17.1292  -12.7710 C   0  0  0  0  0  0  0  0  0  0  0  0
   44.6985   15.9425  -13.3059 C   0  0  0  0  0  0  0  0  0  0  0  0
   45.5236   16.0257  -14.5251 C   0  0  0  0  0  0  0  0  0  0  0  0
   44.4475   14.7942  -12.5891 C   0  0  0  0  0  0  0  0  0  0  0  0
   43.7009   14.8524  -11.4021 C   0  0  0  0  0  0  0  0  0  0  0  0
   42.9652   16.1255   -8.4384 C   0  0  0  0  0  0  0  0  0  0  0  0
   42.0980   16.1478   -7.3376 C   0  0  0  0  0  0  0  0  0  0  0  0
   40.7300   16.1247   -7.4517 C   0  0  0  0  0  0  0  0  0  0  0  0
   39.9507   16.1503   -6.2871 O   0  0  0  0  0  0  0  0  0  0  0  0
   40.1601   16.0773   -8.7066 C   0  0  0  0  0  0  0  0  0  0  0  0
   41.0030   16.0543   -9.7999 C   0  0  0  0  0  0  0  0  0  0  0  0
   42.3874   16.0772   -9.6806 C   0  0  0  0  0  0  0  0  0  0  0  0
   39.6854   17.0775   -5.9392 H   0  0  0  0  0  0  0  0  0  0  0  0
   44.9368   17.6126   -8.2066 C   0  0  0  0  0  0  0  0  0  0  0  0
   44.4319   16.1827   -8.2329 C   0  0  0  0  0  0  0  0  0  0  0  0
 44 45  1  0  0  0
 45 36  1  0  0  0
 36 37  2  0  0  0
 37 38  1  0  0  0
 38 39  1  0  0  0
 38 40  2  0  0  0
 40 41  1  0  0  0
 41 42  2  0  0  0
 42 29  1  0  0  0
 29 30  2  0  0  0
 30 31  1  0  0  0
 31 32  2  0  0  0
 32 33  1  0  0  0
 32 34  1  0  0  0
 34 35  2  0  0  0
 34 26  1  0  0  0
 26 27  1  0  0  0
 26 28  1  0  0  0
 26  1  1  0  0  0
  1  2  2  0  0  0
  2  3  1  0  0  0
  3  4  1  0  0  0
  4  5  2  0  0  0
  5  6  1  0  0  0
  6  7  2  0  0  0
  7  8  1  0  0  0
  8  9  2  0  0  0
  7 11  1  0  0  0
 11 12  2  0  0  0
 12 13  1  0  0  0
 13 14  2  0  0  0
 14 15  1  0  0  0
 15 16  2  0  0  0
 16 17  1  0  0  0
 17 18  2  0  0  0
 18 19  1  0  0  0
 19 20  2  0  0  0
 16 21  1  0  0  0
 21 22  2  0  0  0
 21 23  1  0  0  0
 23 24  1  0  0  0
 42 36  1  0  0  0
 35 29  1  0  0  0
  9  1  1  0  0  0
 20 11  1  0  0  0
  9  4  1  0  0  0
 19 14  1  0  0  0
 39 43  1  0  0  0
  3 10  1  0  0  0
 23 25  1  0  0  0
M  END
> <minimizedAffinity>
-8.80793

> <CNNscore>
0.1441958696

> <CNNaffinity>
6.9897680283

> <CNN_VS>
1.0078957081

> <CNNaffinity_variance>
0.3131730258

$$$$
[H]Oc1c([H])c([H])c(-c2c([H])c([H])c(C([H])([H])[H])c(C(c3c([H])n([H])c4nc([H])c(-c5c([H])c([H])c6c([H])c(C(=O)N([H])C([H])([H])[H])c([H])c([H])c6c5[H])c([H])c34)(C([H])([H])[H])C([H])([H])[H])c2[H])c(C([H])([H])C([H])([H])[H])c1[H]


 45 50  0  0  0  0  0  0  0  0999 V2000
   46.6681   13.9368  -13.8863 C   0  0  0  0  0  0  0  0  0  0  0  0
   47.8727   13.7333  -14.5206 C   0  0  0  0  0  0  0  0  0  0  0  0
   47.6530   13.1783  -15.7334 N   0  0  0  0  0  0  0  0  0  0  0  0
   46.3298   13.0108  -15.9154 C   0  0  0  0  0  0  0  0  0  0  0  0
   45.6089   12.4958  -16.9634 N   0  0  0  0  0  0  0  0  0  0  0  0
   44.2513   12.4355  -16.8980 C   0  0  0  0  0  0  0  0  0  0  0  0
   43.5960   12.8893  -15.7838 C   0  0  0  0  0  0  0  0  0  0  0  0
   44.3521   13.4088  -14.7307 C   0  0  0  0  0  0  0  0  0  0  0  0
   45.7164   13.4759  -14.7819 C   0  0  0  0  0  0  0  0  0  0  0  0
   48.3807   12.9075  -16.4474 H   0  0  0  0  0  0  0  0  0  0  0  0
   42.1541   12.8478  -15.6599 C   0  0  0  0  0  0  0  0  0  0  0  0
   41.4582   13.5305  -14.6676 C   0  0  0  0  0  0  0  0  0  0  0  0
   40.0830   13.4718  -14.5751 C   0  0  0  0  0  0  0  0  0  0  0  0
   39.3617   12.7265  -15.4746 C   0  0  0  0  0  0  0  0  0  0  0  0
   37.9641   12.6387  -15.4176 C   0  0  0  0  0  0  0  0  0  0  0  0
   37.2276   11.9065  -16.2975 C   0  0  0  0  0  0  0  0  0  0  0  0
   37.8988   11.2251  -17.2850 C   0  0  0  0  0  0  0  0  0  0  0  0
   39.2659   11.2955  -17.3613 C   0  0  0  0  0  0  0  0  0  0  0  0
   39.9971   12.0387  -16.4662 C   0  0  0  0  0  0  0  0  0  0  0  0
   41.3910   12.1098  -16.5445 C   0  0  0  0  0  0  0  0  0  0  0  0
   35.7864   11.8551  -16.1881 C   0  0  0  0  0  0  0  0  0  0  0  0
   35.2474   12.7126  -15.4209 O   0  0  0  0  0  0  0  0  0  0  0  0
   34.9561   10.9395  -16.8587 N   0  0  0  0  0  0  0  0  0  0  0  0
   33.5295   10.9850  -16.6702 C   0  0  0  0  0  0  0  0  0  0  0  0
   35.3617   10.2022  -17.5115 H   0  0  0  0  0  0  0  0  0  0  0  0
   46.4744   14.6032  -12.5916 C   0  0  0  0  0  0  0  0  0  0  0  0
   45.8975   13.4953  -11.6794 C   0  0  0  0  0  0  0  0  0  0  0  0
   47.6981   15.1007  -11.9032 C   0  0  0  0  0  0  0  0  0  0  0  0
   43.1843   16.3990  -12.1274 C   0  0  0  0  0  0  0  0  0  0  0  0
   43.3880   17.5062  -12.9235 C   0  0  0  0  0  0  0  0  0  0  0  0
   44.5744   17.6729  -13.5751 C   0  0  0  0  0  0  0  0  0  0  0  0
   45.6443   16.7615  -13.4893 C   0  0  0  0  0  0  0  0  0  0  0  0
   46.9043   17.0818  -14.1848 C   0  0  0  0  0  0  0  0  0  0  0  0
   45.4298   15.6580  -12.6945 C   0  0  0  0  0  0  0  0  0  0  0  0
   44.2056   15.4962  -12.0274 C   0  0  0  0  0  0  0  0  0  0  0  0
   41.7996   16.1127  -10.0910 C   0  0  0  0  0  0  0  0  0  0  0  0
   40.5190   15.9093   -9.5589 C   0  0  0  0  0  0  0  0  0  0  0  0
   39.3864   15.8126  -10.3289 C   0  0  0  0  0  0  0  0  0  0  0  0
   38.1516   15.6087   -9.6981 O   0  0  0  0  0  0  0  0  0  0  0  0
   39.4936   15.9187  -11.6997 C   0  0  0  0  0  0  0  0  0  0  0  0
   40.7496   16.1187  -12.2372 C   0  0  0  0  0  0  0  0  0  0  0  0
   41.8939   16.2155  -11.4548 C   0  0  0  0  0  0  0  0  0  0  0  0
   37.6329   16.4523   -9.4332 H   0  0  0  0  0  0  0  0  0  0  0  0
   43.3070   14.9131   -8.5287 C   0  0  0  0  0  0  0  0  0  0  0  0
   42.9700   16.2357   -9.1901 C   0  0  0  0  0  0  0  0  0  0  0  0
 44 45  1  0  0  0
 45 36  1  0  0  0
 36 37  2  0  0  0
 37 38  1  0  0  0
 38 39  1  0  0  0
 38 40  2  0  0  0
 40 41  1  0  0  0
 41 42  2  0  0  0
 42 29  1  0  0  0
 29 30  2  0  0  0
 30 31  1  0  0  0
 31 32  2  0  0  0
 32 33  1  0  0  0
 32 34  1  0  0  0
 34 35  2  0  0  0
 34 26  1  0  0  0
 26 27  1  0  0  0
 26 28  1  0  0  0
 26  1  1  0  0  0
  1  2  2  0  0  0
  2  3  1  0  0  0
  3  4  1  0  0  0
  4  5  2  0  0  0
  5  6  1  0  0  0
  6  7  2  0  0  0
  7  8  1  0  0  0
  8  9  2  0  0  0
  7 11  1  0  0  0
 11 12  2  0  0  0
 12 13  1  0  0  0
 13 14  2  0  0  0
 14 15  1  0  0  0
 15 16  2  0  0  0
 16 17  1  0  0  0
 17 18  2  0  0  0
 18 19  1  0  0  0
 19 20  2  0  0  0
 16 21  1  0  0  0
 21 22  2  0  0  0
 21 23  1  0  0  0
 23 24  1  0  0  0
 42 36  1  0  0  0
 35 29  1  0  0  0
  9  1  1  0  0  0
 20 11  1  0  0  0
  9  4  1  0  0  0
 19 14  1  0  0  0
 39 43  1  0  0  0
  3 10  1  0  0  0
 23 25  1  0  0  0
M  END
> <minimizedAffinity>
-10.99644

> <CNNscore>
0.1382927448

> <CNNaffinity>
6.8018975258

> <CNN_VS>
0.9406530857

> <CNNaffinity_variance>
0.5019773245

$$$$
[H]Oc1c([H])c([H])c(-c2c([H])c([H])c(C([H])([H])[H])c(C(c3c([H])n([H])c4nc([H])c(-c5c([H])c([H])c6c([H])c(C(=O)N([H])C([H])([H])[H])c([H])c([H])c6c5[H])c([H])c34)(C([H])([H])[H])C([H])([H])[H])c2[H])c(C([H])([H])C([H])([H])[H])c1[H]


 45 50  0  0  0  0  0  0  0  0999 V2000
   36.3583   11.9637  -15.1502 C   0  0  0  0  0  0  0  0  0  0  0  0
   35.5096   11.5786  -16.1633 C   0  0  0  0  0  0  0  0  0  0  0  0
   36.2056   11.4782  -17.3177 N   0  0  0  0  0  0  0  0  0  0  0  0
   37.4958   11.7875  -17.0904 C   0  0  0  0  0  0  0  0  0  0  0  0
   38.5853   11.8348  -17.9235 N   0  0  0  0  0  0  0  0  0  0  0  0
   39.8063   12.1854  -17.4366 C   0  0  0  0  0  0  0  0  0  0  0  0
   39.9547   12.4934  -16.1100 C   0  0  0  0  0  0  0  0  0  0  0  0
   38.8308   12.4380  -15.2826 C   0  0  0  0  0  0  0  0  0  0  0  0
   37.5978   12.0875  -15.7574 C   0  0  0  0  0  0  0  0  0  0  0  0
   35.8277   11.2033  -18.2634 H   0  0  0  0  0  0  0  0  0  0  0  0
   41.2294   12.8742  -15.5388 C   0  0  0  0  0  0  0  0  0  0  0  0
   41.3455   13.5788  -14.3451 C   0  0  0  0  0  0  0  0  0  0  0  0
   42.5750   13.9275  -13.8255 C   0  0  0  0  0  0  0  0  0  0  0  0
   43.7273   13.5808  -14.4863 C   0  0  0  0  0  0  0  0  0  0  0  0
   44.9967   13.9145  -13.9949 C   0  0  0  0  0  0  0  0  0  0  0  0
   46.1528   13.5822  -14.6319 C   0  0  0  0  0  0  0  0  0  0  0  0
   46.0572   12.8856  -15.8132 C   0  0  0  0  0  0  0  0  0  0  0  0
   44.8264   12.5476  -16.3141 C   0  0  0  0  0  0  0  0  0  0  0  0
   43.6672   12.8896  -15.6604 C   0  0  0  0  0  0  0  0  0  0  0  0
   42.4127   12.5447  -16.1719 C   0  0  0  0  0  0  0  0  0  0  0  0
   47.4344   13.9542  -14.0744 C   0  0  0  0  0  0  0  0  0  0  0  0
   48.0259   13.0702  -13.3793 O   0  0  0  0  0  0  0  0  0  0  0  0
   48.0594   15.2023  -14.2447 N   0  0  0  0  0  0  0  0  0  0  0  0
   49.3403   15.4579  -13.6391 C   0  0  0  0  0  0  0  0  0  0  0  0
   47.6024   15.9746  -14.8181 H   0  0  0  0  0  0  0  0  0  0  0  0
   36.0066   12.0930  -13.7298 C   0  0  0  0  0  0  0  0  0  0  0  0
   34.4840   11.8240  -13.6919 C   0  0  0  0  0  0  0  0  0  0  0  0
   36.6173   11.1072  -12.7949 C   0  0  0  0  0  0  0  0  0  0  0  0
   37.5691   15.0825  -12.0309 C   0  0  0  0  0  0  0  0  0  0  0  0
   36.5998   16.0361  -12.2591 C   0  0  0  0  0  0  0  0  0  0  0  0
   35.4785   15.7179  -12.9672 C   0  0  0  0  0  0  0  0  0  0  0  0
   35.2319   14.4384  -13.5007 C   0  0  0  0  0  0  0  0  0  0  0  0
   34.0153   14.2303  -14.3072 C   0  0  0  0  0  0  0  0  0  0  0  0
   36.2043   13.4927  -13.2648 C   0  0  0  0  0  0  0  0  0  0  0  0
   37.3550   13.8306  -12.5357 C   0  0  0  0  0  0  0  0  0  0  0  0
   38.7446   15.4087   -9.8727 C   0  0  0  0  0  0  0  0  0  0  0  0
   39.9281   15.7864   -9.2236 C   0  0  0  0  0  0  0  0  0  0  0  0
   41.0683   16.1638   -9.8888 C   0  0  0  0  0  0  0  0  0  0  0  0
   42.2006   16.5238   -9.1455 O   0  0  0  0  0  0  0  0  0  0  0  0
   41.0692   16.1785  -11.2678 C   0  0  0  0  0  0  0  0  0  0  0  0
   39.9096   15.8093  -11.9199 C   0  0  0  0  0  0  0  0  0  0  0  0
   38.7571   15.4283  -11.2433 C   0  0  0  0  0  0  0  0  0  0  0  0
   42.8511   15.7659   -8.9144 H   0  0  0  0  0  0  0  0  0  0  0  0
   37.2303   15.9893   -7.9960 C   0  0  0  0  0  0  0  0  0  0  0  0
   37.5641   14.9855   -9.0829 C   0  0  0  0  0  0  0  0  0  0  0  0
 44 45  1  0  0  0
 45 36  1  0  0  0
 36 37  2  0  0  0
 37 38  1  0  0  0
 38 39  1  0  0  0
 38 40  2  0  0  0
 40 41  1  0  0  0
 41 42  2  0  0  0
 42 29  1  0  0  0
 29 30  2  0  0  0
 30 31  1  0  0  0
 31 32  2  0  0  0
 32 33  1  0  0  0
 32 34  1  0  0  0
 34 35  2  0  0  0
 34 26  1  0  0  0
 26 27  1  0  0  0
 26 28  1  0  0  0
 26  1  1  0  0  0
  1  2  2  0  0  0
  2  3  1  0  0  0
  3  4  1  0  0  0
  4  5  2  0  0  0
  5  6  1  0  0  0
  6  7  2  0  0  0
  7  8  1  0  0  0
  8  9  2  0  0  0
  7 11  1  0  0  0
 11 12  2  0  0  0
 12 13  1  0  0  0
 13 14  2  0  0  0
 14 15  1  0  0  0
 15 16  2  0  0  0
 16 17  1  0  0  0
 17 18  2  0  0  0
 18 19  1  0  0  0
 19 20  2  0  0  0
 16 21  1  0  0  0
 21 22  2  0  0  0
 21 23  1  0  0  0
 23 24  1  0  0  0
 42 36  1  0  0  0
 35 29  1  0  0  0
  9  1  1  0  0  0
 20 11  1  0  0  0
  9  4  1  0  0  0
 19 14  1  0  0  0
 39 43  1  0  0  0
  3 10  1  0  0  0
 23 25  1  0  0  0
M  END
> <minimizedAffinity>
-8.60056

> <CNNscore>
0.1364885569

> <CNNaffinity>
7.2430315018

> <CNN_VS>
0.9885908961

> <CNNaffinity_variance>
0.2618961334

$$$$
[H]Oc1c([H])c([H])c(-c2c([H])c([H])c(C([H])([H])[H])c(C(c3c([H])n([H])c4nc([H])c(-c5c([H])c([H])c6c([H])c(C(=O)N([H])C([H])([H])[H])c([H])c([H])c6c5[H])c([H])c34)(C([H])([H])[H])C([H])([H])[H])c2[H])c(C([H])([H])C([H])([H])[H])c1[H]


 45 50  0  0  0  0  0  0  0  0999 V2000
   44.7485   14.7893  -13.6869 C   0  0  0  0  0  0  0  0  0  0  0  0
   46.1019   14.7664  -13.9372 C   0  0  0  0  0  0  0  0  0  0  0  0
   46.3459   13.9860  -15.0135 N   0  0  0  0  0  0  0  0  0  0  0  0
   45.1839   13.4929  -15.4811 C   0  0  0  0  0  0  0  0  0  0  0  0
   44.9014   12.6631  -16.5369 N   0  0  0  0  0  0  0  0  0  0  0  0
   43.6162   12.3053  -16.8034 C   0  0  0  0  0  0  0  0  0  0  0  0
   42.5957   12.7723  -16.0177 C   0  0  0  0  0  0  0  0  0  0  0  0
   42.9089   13.6154  -14.9491 C   0  0  0  0  0  0  0  0  0  0  0  0
   44.1952   13.9835  -14.6691 C   0  0  0  0  0  0  0  0  0  0  0  0
   47.2857   13.7763  -15.4441 H   0  0  0  0  0  0  0  0  0  0  0  0
   41.2108   12.4229  -16.2543 C   0  0  0  0  0  0  0  0  0  0  0  0
   40.7820   11.7518  -17.3947 C   0  0  0  0  0  0  0  0  0  0  0  0
   39.4546   11.4322  -17.5922 C   0  0  0  0  0  0  0  0  0  0  0  0
   38.5147   11.7755  -16.6523 C   0  0  0  0  0  0  0  0  0  0  0  0
   37.1560   11.4709  -16.8120 C   0  0  0  0  0  0  0  0  0  0  0  0
   36.2061   11.8009  -15.8947 C   0  0  0  0  0  0  0  0  0  0  0  0
   36.6117   12.4646  -14.7612 C   0  0  0  0  0  0  0  0  0  0  0  0
   37.9355   12.7737  -14.5823 C   0  0  0  0  0  0  0  0  0  0  0  0
   38.8841   12.4344  -15.5167 C   0  0  0  0  0  0  0  0  0  0  0  0
   40.2335   12.7500  -15.3336 C   0  0  0  0  0  0  0  0  0  0  0  0
   34.8183   11.4586  -16.1153 C   0  0  0  0  0  0  0  0  0  0  0  0
   33.9793   11.9451  -15.2944 O   0  0  0  0  0  0  0  0  0  0  0  0
   34.3420   10.6403  -17.1550 N   0  0  0  0  0  0  0  0  0  0  0  0
   32.9331   10.3690  -17.2737 C   0  0  0  0  0  0  0  0  0  0  0  0
   35.0068   10.2095  -17.8668 H   0  0  0  0  0  0  0  0  0  0  0  0
   44.0723   15.5954  -12.6617 C   0  0  0  0  0  0  0  0  0  0  0  0
   44.4113   17.0550  -13.0448 C   0  0  0  0  0  0  0  0  0  0  0  0
   42.5852   15.5201  -12.6219 C   0  0  0  0  0  0  0  0  0  0  0  0
   45.9057   16.2469   -9.4245 C   0  0  0  0  0  0  0  0  0  0  0  0
   45.9223   14.9779   -8.8855 C   0  0  0  0  0  0  0  0  0  0  0  0
   45.3317   13.9434   -9.5495 C   0  0  0  0  0  0  0  0  0  0  0  0
   44.6831   14.0848  -10.7913 C   0  0  0  0  0  0  0  0  0  0  0  0
   44.0213   12.9071  -11.3821 C   0  0  0  0  0  0  0  0  0  0  0  0
   44.6746   15.3549  -11.3223 C   0  0  0  0  0  0  0  0  0  0  0  0
   45.2844   16.4130  -10.6305 C   0  0  0  0  0  0  0  0  0  0  0  0
   45.9380   18.0487   -7.7219 C   0  0  0  0  0  0  0  0  0  0  0  0
   46.6576   19.0979   -7.1337 C   0  0  0  0  0  0  0  0  0  0  0  0
   47.9351   19.4392   -7.5030 C   0  0  0  0  0  0  0  0  0  0  0  0
   48.5681   20.5065   -6.8514 O   0  0  0  0  0  0  0  0  0  0  0  0
   48.5604   18.7243   -8.5028 C   0  0  0  0  0  0  0  0  0  0  0  0
   47.8626   17.6884   -9.0913 C   0  0  0  0  0  0  0  0  0  0  0  0
   46.5693   17.3460   -8.7154 C   0  0  0  0  0  0  0  0  0  0  0  0
   49.1098   20.2694   -6.0139 H   0  0  0  0  0  0  0  0  0  0  0  0
   44.6035   16.9763   -5.9272 C   0  0  0  0  0  0  0  0  0  0  0  0
   44.5724   17.7234   -7.2467 C   0  0  0  0  0  0  0  0  0  0  0  0
 44 45  1  0  0  0
 45 36  1  0  0  0
 36 37  2  0  0  0
 37 38  1  0  0  0
 38 39  1  0  0  0
 38 40  2  0  0  0
 40 41  1  0  0  0
 41 42  2  0  0  0
 42 29  1  0  0  0
 29 30  2  0  0  0
 30 31  1  0  0  0
 31 32  2  0  0  0
 32 33  1  0  0  0
 32 34  1  0  0  0
 34 35  2  0  0  0
 34 26  1  0  0  0
 26 27  1  0  0  0
 26 28  1  0  0  0
 26  1  1  0  0  0
  1  2  2  0  0  0
  2  3  1  0  0  0
  3  4  1  0  0  0
  4  5  2  0  0  0
  5  6  1  0  0  0
  6  7  2  0  0  0
  7  8  1  0  0  0
  8  9  2  0  0  0
  7 11  1  0  0  0
 11 12  2  0  0  0
 12 13  1  0  0  0
 13 14  2  0  0  0
 14 15  1  0  0  0
 15 16  2  0  0  0
 16 17  1  0  0  0
 17 18  2  0  0  0
 18 19  1  0  0  0
 19 20  2  0  0  0
 16 21  1  0  0  0
 21 22  2  0  0  0
 21 23  1  0  0  0
 23 24  1  0  0  0
 42 36  1  0  0  0
 35 29  1  0  0  0
  9  1  1  0  0  0
 20 11  1  0  0  0
  9  4  1  0  0  0
 19 14  1  0  0  0
 39 43  1  0  0  0
  3 10  1  0  0  0
 23 25  1  0  0  0
M  END
> <minimizedAffinity>
-9.55487

> <CNNscore>
0.1360324919

> <CNNaffinity>
6.5543060303

> <CNN_VS>
0.8915985823

> <CNNaffinity_variance>
0.1451289207

$$$$
[H]Oc1c([H])c([H])c(-c2c([H])c([H])c(C([H])([H])[H])c(C(c3c([H])n([H])c4nc([H])c(-c5c([H])c([H])c6c([H])c(C(=O)N([H])C([H])([H])[H])c([H])c([H])c6c5[H])c([H])c34)(C([H])([H])[H])C([H])([H])[H])c2[H])c(C([H])([H])C([H])([H])[H])c1[H]


 45 50  0  0  0  0  0  0  0  0999 V2000
   45.5866   14.3057  -14.2695 C   0  0  0  0  0  0  0  0  0  0  0  0
   46.7418   13.8794  -14.8850 C   0  0  0  0  0  0  0  0  0  0  0  0
   46.4285   13.0256  -15.8849 N   0  0  0  0  0  0  0  0  0  0  0  0
   45.0918   12.8783  -15.9450 C   0  0  0  0  0  0  0  0  0  0  0  0
   44.2902   12.1319  -16.7718 N   0  0  0  0  0  0  0  0  0  0  0  0
   42.9383   12.1569  -16.6219 C   0  0  0  0  0  0  0  0  0  0  0  0
   42.3692   12.9284  -15.6433 C   0  0  0  0  0  0  0  0  0  0  0  0
   43.2063   13.6788  -14.8145 C   0  0  0  0  0  0  0  0  0  0  0  0
   44.5661   13.6640  -14.9530 C   0  0  0  0  0  0  0  0  0  0  0  0
   47.1007   12.5358  -16.5336 H   0  0  0  0  0  0  0  0  0  0  0  0
   40.9375   12.9914  -15.4380 C   0  0  0  0  0  0  0  0  0  0  0  0
   40.0269   12.2955  -16.2263 C   0  0  0  0  0  0  0  0  0  0  0  0
   38.6673   12.3755  -16.0061 C   0  0  0  0  0  0  0  0  0  0  0  0
   38.1775   13.1559  -14.9884 C   0  0  0  0  0  0  0  0  0  0  0  0
   36.8046   13.2663  -14.7293 C   0  0  0  0  0  0  0  0  0  0  0  0
   36.2953   14.0334  -13.7268 C   0  0  0  0  0  0  0  0  0  0  0  0
   37.1807   14.7284  -12.9375 C   0  0  0  0  0  0  0  0  0  0  0  0
   38.5286   14.6364  -13.1713 C   0  0  0  0  0  0  0  0  0  0  0  0
   39.0291   13.8580  -14.1871 C   0  0  0  0  0  0  0  0  0  0  0  0
   40.4035   13.7649  -14.4250 C   0  0  0  0  0  0  0  0  0  0  0  0
   34.8676   14.1068  -13.5078 C   0  0  0  0  0  0  0  0  0  0  0  0
   34.1324   13.5614  -14.3890 O   0  0  0  0  0  0  0  0  0  0  0  0
   34.2484   14.7280  -12.4087 N   0  0  0  0  0  0  0  0  0  0  0  0
   32.8130   14.7378  -12.2982 C   0  0  0  0  0  0  0  0  0  0  0  0
   34.8226   15.1988  -11.6453 H   0  0  0  0  0  0  0  0  0  0  0  0
   45.4962   15.3087  -13.2000 C   0  0  0  0  0  0  0  0  0  0  0  0
   46.9531   15.7927  -13.0122 C   0  0  0  0  0  0  0  0  0  0  0  0
   44.6959   16.5307  -13.4920 C   0  0  0  0  0  0  0  0  0  0  0  0
   45.6873   13.2491  -10.0399 C   0  0  0  0  0  0  0  0  0  0  0  0
   44.3893   13.3609   -9.5883 C   0  0  0  0  0  0  0  0  0  0  0  0
   43.4834   14.1063  -10.2839 C   0  0  0  0  0  0  0  0  0  0  0  0
   43.7911   14.7943  -11.4733 C   0  0  0  0  0  0  0  0  0  0  0  0
   42.7466   15.6241  -12.1013 C   0  0  0  0  0  0  0  0  0  0  0  0
   45.0887   14.6739  -11.9172 C   0  0  0  0  0  0  0  0  0  0  0  0
   46.0136   13.9052  -11.1936 C   0  0  0  0  0  0  0  0  0  0  0  0
   46.7558   11.0730   -9.5214 C   0  0  0  0  0  0  0  0  0  0  0  0
   47.6837   10.3764   -8.7351 C   0  0  0  0  0  0  0  0  0  0  0  0
   48.4653   10.9754   -7.7783 C   0  0  0  0  0  0  0  0  0  0  0  0
   49.3638   10.1884   -7.0450 O   0  0  0  0  0  0  0  0  0  0  0  0
   48.3459   12.3325   -7.5648 C   0  0  0  0  0  0  0  0  0  0  0  0
   47.4350   13.0309   -8.3322 C   0  0  0  0  0  0  0  0  0  0  0  0
   46.6451   12.4212   -9.2994 C   0  0  0  0  0  0  0  0  0  0  0  0
   50.3057   10.0904   -7.4375 H   0  0  0  0  0  0  0  0  0  0  0  0
   46.6949   10.3290  -11.8867 C   0  0  0  0  0  0  0  0  0  0  0  0
   45.9698   10.3586  -10.5550 C   0  0  0  0  0  0  0  0  0  0  0  0
 44 45  1  0  0  0
 45 36  1  0  0  0
 36 37  2  0  0  0
 37 38  1  0  0  0
 38 39  1  0  0  0
 38 40  2  0  0  0
 40 41  1  0  0  0
 41 42  2  0  0  0
 42 29  1  0  0  0
 29 30  2  0  0  0
 30 31  1  0  0  0
 31 32  2  0  0  0
 32 33  1  0  0  0
 32 34  1  0  0  0
 34 35  2  0  0  0
 34 26  1  0  0  0
 26 27  1  0  0  0
 26 28  1  0  0  0
 26  1  1  0  0  0
  1  2  2  0  0  0
  2  3  1  0  0  0
  3  4  1  0  0  0
  4  5  2  0  0  0
  5  6  1  0  0  0
  6  7  2  0  0  0
  7  8  1  0  0  0
  8  9  2  0  0  0
  7 11  1  0  0  0
 11 12  2  0  0  0
 12 13  1  0  0  0
 13 14  2  0  0  0
 14 15  1  0  0  0
 15 16  2  0  0  0
 16 17  1  0  0  0
 17 18  2  0  0  0
 18 19  1  0  0  0
 19 20  2  0  0  0
 16 21  1  0  0  0
 21 22  2  0  0  0
 21 23  1  0  0  0
 23 24  1  0  0  0
 42 36  1  0  0  0
 35 29  1  0  0  0
  9  1  1  0  0  0
 20 11  1  0  0  0
  9  4  1  0  0  0
 19 14  1  0  0  0
 39 43  1  0  0  0
  3 10  1  0  0  0
 23 25  1  0  0  0
M  END
> <minimizedAffinity>
-9.52075

> <CNNscore>
0.1212502867

> <CNNaffinity>
6.6595396996

> <CNN_VS>
0.8074710965

> <CNNaffinity_variance>
0.3458435237

$$$$
[H]Oc1c([H])c([H])c(-c2c([H])c([H])c(C([H])([H])[H])c(C(c3c([H])n([H])c4nc([H])c(-c5c([H])c([H])c6c([H])c(C(=O)N([H])C([H])([H])[H])c([H])c([H])c6c5[H])c([H])c34)(C([H])([H])[H])C([H])([H])[H])c2[H])c(C([H])([H])C([H])([H])[H])c1[H]


 45 50  0  0  0  0  0  0  0  0999 V2000
   46.3828   14.7294  -14.1937 C   0  0  0  0  0  0  0  0  0  0  0  0
   47.6166   14.4111  -14.7146 C   0  0  0  0  0  0  0  0  0  0  0  0
   47.4650   13.5029  -15.7042 N   0  0  0  0  0  0  0  0  0  0  0  0
   46.1583   13.2142  -15.8500 C   0  0  0  0  0  0  0  0  0  0  0  0
   45.4988   12.3660  -16.7038 N   0  0  0  0  0  0  0  0  0  0  0  0
   44.1443   12.2524  -16.6471 C   0  0  0  0  0  0  0  0  0  0  0  0
   43.4306   12.9852  -15.7359 C   0  0  0  0  0  0  0  0  0  0  0  0
   44.1247   13.8413  -14.8779 C   0  0  0  0  0  0  0  0  0  0  0  0
   45.4852   13.9660  -14.9230 C   0  0  0  0  0  0  0  0  0  0  0  0
   48.2286   13.0697  -16.2889 H   0  0  0  0  0  0  0  0  0  0  0  0
   41.9890   12.9026  -15.6307 C   0  0  0  0  0  0  0  0  0  0  0  0
   41.2617   13.5586  -14.6429 C   0  0  0  0  0  0  0  0  0  0  0  0
   39.8877   13.4607  -14.5684 C   0  0  0  0  0  0  0  0  0  0  0  0
   39.1990   12.7018  -15.4819 C   0  0  0  0  0  0  0  0  0  0  0  0
   37.8038   12.5744  -15.4435 C   0  0  0  0  0  0  0  0  0  0  0  0
   37.0993   11.8281  -16.3375 C   0  0  0  0  0  0  0  0  0  0  0  0
   37.8017   11.1726  -17.3208 C   0  0  0  0  0  0  0  0  0  0  0  0
   39.1672   11.2818  -17.3791 C   0  0  0  0  0  0  0  0  0  0  0  0
   39.8659   12.0390  -16.4699 C   0  0  0  0  0  0  0  0  0  0  0  0
   41.2581   12.1497  -16.5299 C   0  0  0  0  0  0  0  0  0  0  0  0
   35.6588   11.7355  -16.2470 C   0  0  0  0  0  0  0  0  0  0  0  0
   35.0911   12.5367  -15.4404 O   0  0  0  0  0  0  0  0  0  0  0  0
   34.8582   10.8377  -16.9751 N   0  0  0  0  0  0  0  0  0  0  0  0
   33.4292   10.8379  -16.8002 C   0  0  0  0  0  0  0  0  0  0  0  0
   35.2885   10.1471  -17.6623 H   0  0  0  0  0  0  0  0  0  0  0  0
   46.1135   15.7451  -13.1672 C   0  0  0  0  0  0  0  0  0  0  0  0
   47.5096   16.3170  -12.8266 C   0  0  0  0  0  0  0  0  0  0  0  0
   45.2851   16.9126  -13.5794 C   0  0  0  0  0  0  0  0  0  0  0  0
   46.0055   13.6246  -10.0437 C   0  0  0  0  0  0  0  0  0  0  0  0
   44.6907   13.7990   -9.6670 C   0  0  0  0  0  0  0  0  0  0  0  0
   43.8690   14.6043  -10.3993 C   0  0  0  0  0  0  0  0  0  0  0  0
   44.2834   15.2947  -11.5544 C   0  0  0  0  0  0  0  0  0  0  0  0
   43.3238   16.1906  -12.2258 C   0  0  0  0  0  0  0  0  0  0  0  0
   45.5969   15.1116  -11.9237 C   0  0  0  0  0  0  0  0  0  0  0  0
   46.4347   14.2816  -11.1627 C   0  0  0  0  0  0  0  0  0  0  0  0
   46.8410   11.3727   -9.4293 C   0  0  0  0  0  0  0  0  0  0  0  0
   47.6915   10.6171   -8.6106 C   0  0  0  0  0  0  0  0  0  0  0  0
   48.5320   11.1713   -7.6772 C   0  0  0  0  0  0  0  0  0  0  0  0
   49.3437   10.3267   -6.9078 O   0  0  0  0  0  0  0  0  0  0  0  0
   48.5554   12.5413   -7.5219 C   0  0  0  0  0  0  0  0  0  0  0  0
   47.7220   13.2978   -8.3217 C   0  0  0  0  0  0  0  0  0  0  0  0
   46.8720   12.7334   -9.2652 C   0  0  0  0  0  0  0  0  0  0  0  0
   50.2700   10.1141   -7.2922 H   0  0  0  0  0  0  0  0  0  0  0  0
   46.7307   10.4574  -11.7319 C   0  0  0  0  0  0  0  0  0  0  0  0
   45.9838   10.7010  -10.4346 C   0  0  0  0  0  0  0  0  0  0  0  0
 44 45  1  0  0  0
 45 36  1  0  0  0
 36 37  2  0  0  0
 37 38  1  0  0  0
 38 39  1  0  0  0
 38 40  2  0  0  0
 40 41  1  0  0  0
 41 42  2  0  0  0
 42 29  1  0  0  0
 29 30  2  0  0  0
 30 31  1  0  0  0
 31 32  2  0  0  0
 32 33  1  0  0  0
 32 34  1  0  0  0
 34 35  2  0  0  0
 34 26  1  0  0  0
 26 27  1  0  0  0
 26 28  1  0  0  0
 26  1  1  0  0  0
  1  2  2  0  0  0
  2  3  1  0  0  0
  3  4  1  0  0  0
  4  5  2  0  0  0
  5  6  1  0  0  0
  6  7  2  0  0  0
  7  8  1  0  0  0
  8  9  2  0  0  0
  7 11  1  0  0  0
 11 12  2  0  0  0
 12 13  1  0  0  0
 13 14  2  0  0  0
 14 15  1  0  0  0
 15 16  2  0  0  0
 16 17  1  0  0  0
 17 18  2  0  0  0
 18 19  1  0  0  0
 19 20  2  0  0  0
 16 21  1  0  0  0
 21 22  2  0  0  0
 21 23  1  0  0  0
 23 24  1  0  0  0
 42 36  1  0  0  0
 35 29  1  0  0  0
  9  1  1  0  0  0
 20 11  1  0  0  0
  9  4  1  0  0  0
 19 14  1  0  0  0
 39 43  1  0  0  0
  3 10  1  0  0  0
 23 25  1  0  0  0
M  END
> <minimizedAffinity>
-10.27302

> <CNNscore>
0.1118577048

> <CNNaffinity>
6.5865912437

> <CNN_VS>
0.7367609739

> <CNNaffinity_variance>
0.2992594242

$$$$
[H]Oc1c([H])c([H])c(-c2c([H])c([H])c(C([H])([H])[H])c(C(c3c([H])n([H])c4nc([H])c(-c5c([H])c([H])c6c([H])c(C(=O)N([H])C([H])([H])[H])c([H])c([H])c6c5[H])c([H])c34)(C([H])([H])[H])C([H])([H])[H])c2[H])c(C([H])([H])C([H])([H])[H])c1[H]


 45 50  0  0  0  0  0  0  0  0999 V2000
   44.1552   14.2313  -14.0612 C   0  0  0  0  0  0  0  0  0  0  0  0
   44.9736   13.6514  -15.0039 C   0  0  0  0  0  0  0  0  0  0  0  0
   44.2165   13.0089  -15.9210 N   0  0  0  0  0  0  0  0  0  0  0  0
   42.9156   13.1516  -15.6061 C   0  0  0  0  0  0  0  0  0  0  0  0
   41.7725   12.6941  -16.2122 N   0  0  0  0  0  0  0  0  0  0  0  0
   40.5530   12.9817  -15.6822 C   0  0  0  0  0  0  0  0  0  0  0  0
   40.4596   13.7306  -14.5389 C   0  0  0  0  0  0  0  0  0  0  0  0
   41.6374   14.1845  -13.9409 C   0  0  0  0  0  0  0  0  0  0  0  0
   42.8696   13.9036  -14.4617 C   0  0  0  0  0  0  0  0  0  0  0  0
   44.5595   12.4719  -16.7616 H   0  0  0  0  0  0  0  0  0  0  0  0
   39.1890   14.0652  -13.9310 C   0  0  0  0  0  0  0  0  0  0  0  0
   39.0685   14.9461  -12.8613 C   0  0  0  0  0  0  0  0  0  0  0  0
   37.8431   15.2455  -12.3029 C   0  0  0  0  0  0  0  0  0  0  0  0
   36.6993   14.6710  -12.7993 C   0  0  0  0  0  0  0  0  0  0  0  0
   35.4342   14.9465  -12.2626 C   0  0  0  0  0  0  0  0  0  0  0  0
   34.2866   14.3894  -12.7373 C   0  0  0  0  0  0  0  0  0  0  0  0
   34.3866   13.5162  -13.7944 C   0  0  0  0  0  0  0  0  0  0  0  0
   35.6133   13.2308  -14.3365 C   0  0  0  0  0  0  0  0  0  0  0  0
   36.7640   13.8006  -13.8473 C   0  0  0  0  0  0  0  0  0  0  0  0
   38.0143   13.5091  -14.4004 C   0  0  0  0  0  0  0  0  0  0  0  0
   33.0090   14.7135  -12.1419 C   0  0  0  0  0  0  0  0  0  0  0  0
   33.0144   15.6215  -11.2531 O   0  0  0  0  0  0  0  0  0  0  0  0
   31.7849   14.1051  -12.4716 N   0  0  0  0  0  0  0  0  0  0  0  0
   30.5736   14.5123  -11.8086 C   0  0  0  0  0  0  0  0  0  0  0  0
   31.7305   13.3391  -13.2095 H   0  0  0  0  0  0  0  0  0  0  0  0
   44.5877   15.0943  -12.9538 C   0  0  0  0  0  0  0  0  0  0  0  0
   46.0951   15.3191  -13.2171 C   0  0  0  0  0  0  0  0  0  0  0  0
   43.9798   16.4524  -12.8847 C   0  0  0  0  0  0  0  0  0  0  0  0
   45.3046   12.6000  -10.2098 C   0  0  0  0  0  0  0  0  0  0  0  0
   44.2940   12.9050   -9.3229 C   0  0  0  0  0  0  0  0  0  0  0  0
   43.4173   13.9116   -9.6024 C   0  0  0  0  0  0  0  0  0  0  0  0
   43.4733   14.6892  -10.7750 C   0  0  0  0  0  0  0  0  0  0  0  0
   42.5124   15.7957  -10.9370 C   0  0  0  0  0  0  0  0  0  0  0  0
   44.4840   14.3748  -11.6554 C   0  0  0  0  0  0  0  0  0  0  0  0
   45.3817   13.3376  -11.3578 C   0  0  0  0  0  0  0  0  0  0  0  0
   46.9118   10.8440  -10.9022 C   0  0  0  0  0  0  0  0  0  0  0  0
   47.7397    9.7850  -10.5049 C   0  0  0  0  0  0  0  0  0  0  0  0
   47.8850    9.3873   -9.1989 C   0  0  0  0  0  0  0  0  0  0  0  0
   48.7390    8.3152   -8.9065 O   0  0  0  0  0  0  0  0  0  0  0  0
   47.1886   10.0520   -8.2116 C   0  0  0  0  0  0  0  0  0  0  0  0
   46.3688   11.0969   -8.5891 C   0  0  0  0  0  0  0  0  0  0  0  0
   46.2237   11.4964   -9.9122 C   0  0  0  0  0  0  0  0  0  0  0  0
   49.7166    8.5542   -8.7113 H   0  0  0  0  0  0  0  0  0  0  0  0
   48.1136   11.8891  -12.8036 C   0  0  0  0  0  0  0  0  0  0  0  0
   46.8314   11.2316  -12.3304 C   0  0  0  0  0  0  0  0  0  0  0  0
 44 45  1  0  0  0
 45 36  1  0  0  0
 36 37  2  0  0  0
 37 38  1  0  0  0
 38 39  1  0  0  0
 38 40  2  0  0  0
 40 41  1  0  0  0
 41 42  2  0  0  0
 42 29  1  0  0  0
 29 30  2  0  0  0
 30 31  1  0  0  0
 31 32  2  0  0  0
 32 33  1  0  0  0
 32 34  1  0  0  0
 34 35  2  0  0  0
 34 26  1  0  0  0
 26 27  1  0  0  0
 26 28  1  0  0  0
 26  1  1  0  0  0
  1  2  2  0  0  0
  2  3  1  0  0  0
  3  4  1  0  0  0
  4  5  2  0  0  0
  5  6  1  0  0  0
  6  7  2  0  0  0
  7  8  1  0  0  0
  8  9  2  0  0  0
  7 11  1  0  0  0
 11 12  2  0  0  0
 12 13  1  0  0  0
 13 14  2  0  0  0
 14 15  1  0  0  0
 15 16  2  0  0  0
 16 17  1  0  0  0
 17 18  2  0  0  0
 18 19  1  0  0  0
 19 20  2  0  0  0
 16 21  1  0  0  0
 21 22  2  0  0  0
 21 23  1  0  0  0
 23 24  1  0  0  0
 42 36  1  0  0  0
 35 29  1  0  0  0
  9  1  1  0  0  0
 20 11  1  0  0  0
  9  4  1  0  0  0
 19 14  1  0  0  0
 39 43  1  0  0  0
  3 10  1  0  0  0
 23 25  1  0  0  0
M  END
> <minimizedAffinity>
-9.76432

> <CNNscore>
0.0965859592

> <CNNaffinity>
6.7624387741

> <CNN_VS>
0.6531566381

> <CNNaffinity_variance>
0.1682148278

$$$$
[H]OC([H])(C([H])([H])N([H])c1nc([H])c([H])c2c(OC([H])([H])[H])c(N([H])c3nc([H])c4c([H])nn(C5([H])C([H])([H])C([H])([H])C([H])([H])C5([H])[H])c4n3)c([H])c([H])c12)C([H])([H])N1C([H])([H])C([H])([H])OC([H])([H])C1([H])[H]


 41 46  0  0  0  0  0  0  0  0999 V2000
   42.4503   13.1194  -15.0744 C   0  0  0  0  0  0  0  0  0  0  0  0
   41.1094   13.2521  -15.5254 C   0  0  0  0  0  0  0  0  0  0  0  0
   40.3434   14.0620  -14.7469 C   0  0  0  0  0  0  0  0  0  0  0  0
   40.7916   14.7257  -13.5967 C   0  0  0  0  0  0  0  0  0  0  0  0
   42.0984   14.5675  -13.1978 C   0  0  0  0  0  0  0  0  0  0  0  0
   42.5588   15.2078  -12.0725 C   0  0  0  0  0  0  0  0  0  0  0  0
   43.8682   15.0024  -11.7354 N   0  0  0  0  0  0  0  0  0  0  0  0
   44.7026   14.2307  -12.4273 C   0  0  0  0  0  0  0  0  0  0  0  0
   44.2345   13.5924  -13.5542 C   0  0  0  0  0  0  0  0  0  0  0  0
   42.9218   13.7493  -13.9606 C   0  0  0  0  0  0  0  0  0  0  0  0
   44.3095   12.8204  -16.6486 C   0  0  0  0  0  0  0  0  0  0  0  0
   43.3211   12.3189  -15.7897 O   0  0  0  0  0  0  0  0  0  0  0  0
   40.7309   12.5684  -16.6831 N   0  0  0  0  0  0  0  0  0  0  0  0
   41.4465   12.4528  -17.4665 H   0  0  0  0  0  0  0  0  0  0  0  0
   39.4696   11.9976  -16.9438 C   0  0  0  0  0  0  0  0  0  0  0  0
   39.1471   11.2099  -17.9667 N   0  0  0  0  0  0  0  0  0  0  0  0
   37.9290   10.6934  -18.1707 C   0  0  0  0  0  0  0  0  0  0  0  0
   36.8989   10.9757  -17.2725 C   0  0  0  0  0  0  0  0  0  0  0  0
   35.5870   10.6446  -17.1574 C   0  0  0  0  0  0  0  0  0  0  0  0
   35.1112   11.2350  -16.0574 N   0  0  0  0  0  0  0  0  0  0  0  0
   36.0552   11.9263  -15.4652 N   0  0  0  0  0  0  0  0  0  0  0  0
   37.1958   11.7854  -16.2043 C   0  0  0  0  0  0  0  0  0  0  0  0
   38.4292   12.2533  -16.0801 N   0  0  0  0  0  0  0  0  0  0  0  0
   36.0017   12.7160  -14.2553 C   0  0  0  0  0  0  0  0  0  0  0  0
   37.1291   12.4360  -13.3229 C   0  0  0  0  0  0  0  0  0  0  0  0
   37.2161   13.7084  -12.5098 C   0  0  0  0  0  0  0  0  0  0  0  0
   37.0462   14.7461  -13.6293 C   0  0  0  0  0  0  0  0  0  0  0  0
   35.9291   14.1756  -14.4948 C   0  0  0  0  0  0  0  0  0  0  0  0
   41.7597   16.0542  -11.2657 N   0  0  0  0  0  0  0  0  0  0  0  0
   41.1668   16.7792  -11.6837 H   0  0  0  0  0  0  0  0  0  0  0  0
   41.7998   15.8706   -9.8166 C   0  0  0  0  0  0  0  0  0  0  0  0
   40.3789   15.7204   -9.3146 C   0  0  0  0  0  0  0  0  0  0  0  0
   39.5261   15.4955  -10.3732 O   0  0  0  0  0  0  0  0  0  0  0  0
   40.0394   15.4663  -11.2118 H   0  0  0  0  0  0  0  0  0  0  0  0
   40.2417   14.6416   -8.2966 C   0  0  0  0  0  0  0  0  0  0  0  0
   40.9122   14.8465   -7.0584 N   0  0  0  0  0  0  0  0  0  0  0  0
   39.8790   15.0005   -6.0273 C   0  0  0  0  0  0  0  0  0  0  0  0
   39.5819   13.7464   -5.2832 C   0  0  0  0  0  0  0  0  0  0  0  0
   39.6982   12.6020   -6.0394 O   0  0  0  0  0  0  0  0  0  0  0  0
   40.9941   12.4267   -6.5303 C   0  0  0  0  0  0  0  0  0  0  0  0
   41.7263   13.7321   -6.6102 C   0  0  0  0  0  0  0  0  0  0  0  0
 11 12  1  0  0  0
 12  1  1  0  0  0
  1  2  2  0  0  0
  2 13  1  0  0  0
 13 15  1  0  0  0
 15 16  2  0  0  0
 16 17  1  0  0  0
 17 18  2  0  0  0
 18 19  1  0  0  0
 19 20  2  0  0  0
 20 21  1  0  0  0
 21 24  1  0  0  0
 24 25  1  0  0  0
 25 26  1  0  0  0
 26 27  1  0  0  0
 27 28  1  0  0  0
 21 22  1  0  0  0
 22 23  2  0  0  0
  2  3  1  0  0  0
  3  4  2  0  0  0
  4  5  1  0  0  0
  5  6  2  0  0  0
  6 29  1  0  0  0
 29 31  1  0  0  0
 31 32  1  0  0  0
 32 33  1  0  0  0
 32 35  1  0  0  0
 35 36  1  0  0  0
 36 37  1  0  0  0
 37 38  1  0  0  0
 38 39  1  0  0  0
 39 40  1  0  0  0
 40 41  1  0  0  0
  6  7  1  0  0  0
  7  8  2  0  0  0
  8  9  1  0  0  0
  9 10  2  0  0  0
 10  1  1  0  0  0
 23 15  1  0  0  0
 10  5  1  0  0  0
 22 18  1  0  0  0
 41 36  1  0  0  0
 28 24  1  0  0  0
 13 14  1  0  0  0
 29 30  1  0  0  0
 33 34  1  0  0  0
M  END
> <minimizedAffinity>
-8.98467

> <CNNscore>
0.8234398961

> <CNNaffinity>
7.8056726456

> <CNN_VS>
6.4275021553

> <CNNaffinity_variance>
0.0454225577

$$$$
[H]OC([H])(C([H])([H])N([H])c1nc([H])c([H])c2c(OC([H])([H])[H])c(N([H])c3nc([H])c4c([H])nn(C5([H])C([H])([H])C([H])([H])C([H])([H])C5([H])[H])c4n3)c([H])c([H])c12)C([H])([H])N1C([H])([H])C([H])([H])OC([H])([H])C1([H])[H]


 41 46  0  0  0  0  0  0  0  0999 V2000
   42.4144   13.5390  -14.3184 C   0  0  0  0  0  0  0  0  0  0  0  0
   42.5221   13.5085  -15.7350 C   0  0  0  0  0  0  0  0  0  0  0  0
   43.7708   13.2164  -16.1869 C   0  0  0  0  0  0  0  0  0  0  0  0
   44.8800   12.9618  -15.3689 C   0  0  0  0  0  0  0  0  0  0  0  0
   44.7285   13.0024  -14.0024 C   0  0  0  0  0  0  0  0  0  0  0  0
   45.8027   12.7572  -13.1813 C   0  0  0  0  0  0  0  0  0  0  0  0
   45.5781   12.8166  -11.8335 N   0  0  0  0  0  0  0  0  0  0  0  0
   44.3968   13.0934  -11.2874 C   0  0  0  0  0  0  0  0  0  0  0  0
   43.3245   13.3378  -12.1162 C   0  0  0  0  0  0  0  0  0  0  0  0
   43.4710   13.2967  -13.4910 C   0  0  0  0  0  0  0  0  0  0  0  0
   40.7720   15.1229  -13.4140 C   0  0  0  0  0  0  0  0  0  0  0  0
   41.1893   13.8260  -13.7462 O   0  0  0  0  0  0  0  0  0  0  0  0
   41.3756   13.7649  -16.4904 N   0  0  0  0  0  0  0  0  0  0  0  0
   41.1658   14.7714  -16.7771 H   0  0  0  0  0  0  0  0  0  0  0  0
   40.4324   12.8150  -16.9293 C   0  0  0  0  0  0  0  0  0  0  0  0
   40.5986   11.9133  -17.8938 N   0  0  0  0  0  0  0  0  0  0  0  0
   39.6666   11.0313  -18.2754 C   0  0  0  0  0  0  0  0  0  0  0  0
   38.4221   11.0236  -17.6439 C   0  0  0  0  0  0  0  0  0  0  0  0
   37.2754   10.3049  -17.7565 C   0  0  0  0  0  0  0  0  0  0  0  0
   36.4088   10.7736  -16.8543 N   0  0  0  0  0  0  0  0  0  0  0  0
   36.9462   11.7558  -16.1716 N   0  0  0  0  0  0  0  0  0  0  0  0
   38.2152   11.9405  -16.6432 C   0  0  0  0  0  0  0  0  0  0  0  0
   39.1940   12.7770  -16.3302 N   0  0  0  0  0  0  0  0  0  0  0  0
   36.3876   12.5514  -15.1015 C   0  0  0  0  0  0  0  0  0  0  0  0
   34.9028   12.4637  -15.0201 C   0  0  0  0  0  0  0  0  0  0  0  0
   34.6241   12.8205  -13.5769 C   0  0  0  0  0  0  0  0  0  0  0  0
   35.7370   12.0158  -12.8891 C   0  0  0  0  0  0  0  0  0  0  0  0
   36.9592   12.2500  -13.7690 C   0  0  0  0  0  0  0  0  0  0  0  0
   47.1014   12.4492  -13.6548 N   0  0  0  0  0  0  0  0  0  0  0  0
   47.6020   11.6170  -13.3250 H   0  0  0  0  0  0  0  0  0  0  0  0
   47.7156   13.3490  -14.6286 C   0  0  0  0  0  0  0  0  0  0  0  0
   48.0522   14.6502  -13.9306 C   0  0  0  0  0  0  0  0  0  0  0  0
   49.3287   15.0477  -14.2640 O   0  0  0  0  0  0  0  0  0  0  0  0
   49.7225   14.4032  -14.8942 H   0  0  0  0  0  0  0  0  0  0  0  0
   47.0740   15.7323  -14.2322 C   0  0  0  0  0  0  0  0  0  0  0  0
   47.2268   16.9478  -13.5083 N   0  0  0  0  0  0  0  0  0  0  0  0
   46.3410   17.9375  -14.1330 C   0  0  0  0  0  0  0  0  0  0  0  0
   45.0254   18.0801  -13.4520 C   0  0  0  0  0  0  0  0  0  0  0  0
   44.5474   16.9129  -12.9007 O   0  0  0  0  0  0  0  0  0  0  0  0
   45.4034   16.4064  -11.9199 C   0  0  0  0  0  0  0  0  0  0  0  0
   46.8072   16.8919  -12.1205 C   0  0  0  0  0  0  0  0  0  0  0  0
 11 12  1  0  0  0
 12  1  1  0  0  0
  1  2  2  0  0  0
  2 13  1  0  0  0
 13 15  1  0  0  0
 15 16  2  0  0  0
 16 17  1  0  0  0
 17 18  2  0  0  0
 18 19  1  0  0  0
 19 20  2  0  0  0
 20 21  1  0  0  0
 21 24  1  0  0  0
 24 25  1  0  0  0
 25 26  1  0  0  0
 26 27  1  0  0  0
 27 28  1  0  0  0
 21 22  1  0  0  0
 22 23  2  0  0  0
  2  3  1  0  0  0
  3  4  2  0  0  0
  4  5  1  0  0  0
  5  6  2  0  0  0
  6 29  1  0  0  0
 29 31  1  0  0  0
 31 32  1  0  0  0
 32 33  1  0  0  0
 32 35  1  0  0  0
 35 36  1  0  0  0
 36 37  1  0  0  0
 37 38  1  0  0  0
 38 39  1  0  0  0
 39 40  1  0  0  0
 40 41  1  0  0  0
  6  7  1  0  0  0
  7  8  2  0  0  0
  8  9  1  0  0  0
  9 10  2  0  0  0
 10  1  1  0  0  0
 23 15  1  0  0  0
 10  5  1  0  0  0
 22 18  1  0  0  0
 41 36  1  0  0  0
 28 24  1  0  0  0
 13 14  1  0  0  0
 29 30  1  0  0  0
 33 34  1  0  0  0
M  END
> <minimizedAffinity>
-8.09884

> <CNNscore>
0.8168510795

> <CNNaffinity>
7.6682205200

> <CNN_VS>
6.2637944221

> <CNNaffinity_variance>
0.2808693051

$$$$
[H]OC([H])(C([H])([H])N([H])c1nc([H])c([H])c2c(OC([H])([H])[H])c(N([H])c3nc([H])c4c([H])nn(C5([H])C([H])([H])C([H])([H])C([H])([H])C5([H])[H])c4n3)c([H])c([H])c12)C([H])([H])N1C([H])([H])C([H])([H])OC([H])([H])C1([H])[H]


 41 46  0  0  0  0  0  0  0  0999 V2000
   35.4594   13.6487  -13.2566 C   0  0  0  0  0  0  0  0  0  0  0  0
   36.5424   13.2398  -14.0808 C   0  0  0  0  0  0  0  0  0  0  0  0
   37.7118   13.8792  -13.8121 C   0  0  0  0  0  0  0  0  0  0  0  0
   37.8812   14.8582  -12.8236 C   0  0  0  0  0  0  0  0  0  0  0  0
   36.8042   15.2226  -12.0496 C   0  0  0  0  0  0  0  0  0  0  0  0
   36.9472   16.1812  -11.0754 C   0  0  0  0  0  0  0  0  0  0  0  0
   35.8333   16.4940  -10.3463 N   0  0  0  0  0  0  0  0  0  0  0  0
   34.6423   15.9290  -10.5276 C   0  0  0  0  0  0  0  0  0  0  0  0
   34.5062   14.9688  -11.5054 C   0  0  0  0  0  0  0  0  0  0  0  0
   35.5864   14.5975  -12.2855 C   0  0  0  0  0  0  0  0  0  0  0  0
   33.3414   13.4175  -14.4751 C   0  0  0  0  0  0  0  0  0  0  0  0
   34.2202   13.0647  -13.4409 O   0  0  0  0  0  0  0  0  0  0  0  0
   36.3058   12.2542  -15.0419 N   0  0  0  0  0  0  0  0  0  0  0  0
   35.3690   11.7428  -15.0310 H   0  0  0  0  0  0  0  0  0  0  0  0
   37.1934   11.8433  -16.0558 C   0  0  0  0  0  0  0  0  0  0  0  0
   36.9295   11.0042  -17.0543 N   0  0  0  0  0  0  0  0  0  0  0  0
   37.8120   10.6434  -17.9941 C   0  0  0  0  0  0  0  0  0  0  0  0
   39.1081   11.1599  -17.9605 C   0  0  0  0  0  0  0  0  0  0  0  0
   40.2305   11.0282  -18.7132 C   0  0  0  0  0  0  0  0  0  0  0  0
   41.1808   11.7927  -18.1678 N   0  0  0  0  0  0  0  0  0  0  0  0
   40.7196   12.4057  -17.1042 N   0  0  0  0  0  0  0  0  0  0  0  0
   39.4158   12.0296  -16.9437 C   0  0  0  0  0  0  0  0  0  0  0  0
   38.4799   12.3318  -16.0557 N   0  0  0  0  0  0  0  0  0  0  0  0
   41.3823   13.3267  -16.2083 C   0  0  0  0  0  0  0  0  0  0  0  0
   40.9252   13.2012  -14.7962 C   0  0  0  0  0  0  0  0  0  0  0  0
   42.0971   13.7510  -14.0139 C   0  0  0  0  0  0  0  0  0  0  0  0
   43.2544   13.0913  -14.7786 C   0  0  0  0  0  0  0  0  0  0  0  0
   42.8601   13.2386  -16.2433 C   0  0  0  0  0  0  0  0  0  0  0  0
   38.1677   16.8428  -10.7951 N   0  0  0  0  0  0  0  0  0  0  0  0
   38.8554   17.0215  -11.5347 H   0  0  0  0  0  0  0  0  0  0  0  0
   38.4267   17.2665   -9.4209 C   0  0  0  0  0  0  0  0  0  0  0  0
   38.0669   18.7324   -9.2971 C   0  0  0  0  0  0  0  0  0  0  0  0
   37.5243   19.1862  -10.4796 O   0  0  0  0  0  0  0  0  0  0  0  0
   37.4786   18.4480  -11.1280 H   0  0  0  0  0  0  0  0  0  0  0  0
   37.1411   19.0016   -8.1617 C   0  0  0  0  0  0  0  0  0  0  0  0
   37.5372   20.0148   -7.2445 N   0  0  0  0  0  0  0  0  0  0  0  0
   37.3492   21.3054   -7.9180 C   0  0  0  0  0  0  0  0  0  0  0  0
   36.0595   21.9715   -7.5897 C   0  0  0  0  0  0  0  0  0  0  0  0
   35.0163   21.1010   -7.3689 O   0  0  0  0  0  0  0  0  0  0  0  0
   35.2627   20.2496   -6.2893 C   0  0  0  0  0  0  0  0  0  0  0  0
   36.7330   20.0997   -6.0397 C   0  0  0  0  0  0  0  0  0  0  0  0
 11 12  1  0  0  0
 12  1  1  0  0  0
  1  2  2  0  0  0
  2 13  1  0  0  0
 13 15  1  0  0  0
 15 16  2  0  0  0
 16 17  1  0  0  0
 17 18  2  0  0  0
 18 19  1  0  0  0
 19 20  2  0  0  0
 20 21  1  0  0  0
 21 24  1  0  0  0
 24 25  1  0  0  0
 25 26  1  0  0  0
 26 27  1  0  0  0
 27 28  1  0  0  0
 21 22  1  0  0  0
 22 23  2  0  0  0
  2  3  1  0  0  0
  3  4  2  0  0  0
  4  5  1  0  0  0
  5  6  2  0  0  0
  6 29  1  0  0  0
 29 31  1  0  0  0
 31 32  1  0  0  0
 32 33  1  0  0  0
 32 35  1  0  0  0
 35 36  1  0  0  0
 36 37  1  0  0  0
 37 38  1  0  0  0
 38 39  1  0  0  0
 39 40  1  0  0  0
 40 41  1  0  0  0
  6  7  1  0  0  0
  7  8  2  0  0  0
  8  9  1  0  0  0
  9 10  2  0  0  0
 10  1  1  0  0  0
 23 15  1  0  0  0
 10  5  1  0  0  0
 22 18  1  0  0  0
 41 36  1  0  0  0
 28 24  1  0  0  0
 13 14  1  0  0  0
 29 30  1  0  0  0
 33 34  1  0  0  0
M  END
> <minimizedAffinity>
-9.54312

> <CNNscore>
0.6201937199

> <CNNaffinity>
7.7340345383

> <CNN_VS>
4.7965998650

> <CNNaffinity_variance>
0.2047902793

$$$$
[H]OC([H])(C([H])([H])N([H])c1nc([H])c([H])c2c(OC([H])([H])[H])c(N([H])c3nc([H])c4c([H])nn(C5([H])C([H])([H])C([H])([H])C([H])([H])C5([H])[H])c4n3)c([H])c([H])c12)C([H])([H])N1C([H])([H])C([H])([H])OC([H])([H])C1([H])[H]


 41 46  0  0  0  0  0  0  0  0999 V2000
   42.2942   13.4926  -14.5731 C   0  0  0  0  0  0  0  0  0  0  0  0
   41.0071   13.6028  -15.1650 C   0  0  0  0  0  0  0  0  0  0  0  0
   40.1576   14.4213  -14.4891 C   0  0  0  0  0  0  0  0  0  0  0  0
   40.4774   15.1133  -13.3130 C   0  0  0  0  0  0  0  0  0  0  0  0
   41.7362   14.9762  -12.7759 C   0  0  0  0  0  0  0  0  0  0  0  0
   42.0710   15.6444  -11.6227 C   0  0  0  0  0  0  0  0  0  0  0  0
   43.3393   15.4590  -11.1458 N   0  0  0  0  0  0  0  0  0  0  0  0
   44.2475   14.6812  -11.7293 C   0  0  0  0  0  0  0  0  0  0  0  0
   43.9052   14.0147  -12.8848 C   0  0  0  0  0  0  0  0  0  0  0  0
   42.6413   14.1503  -13.4301 C   0  0  0  0  0  0  0  0  0  0  0  0
   44.0947   13.1213  -16.1993 C   0  0  0  0  0  0  0  0  0  0  0  0
   43.2413   12.6858  -15.1755 O   0  0  0  0  0  0  0  0  0  0  0  0
   40.7575   12.8913  -16.3408 N   0  0  0  0  0  0  0  0  0  0  0  0
   41.5320   12.8228  -17.0720 H   0  0  0  0  0  0  0  0  0  0  0  0
   39.5593   12.2343  -16.6835 C   0  0  0  0  0  0  0  0  0  0  0  0
   39.3654   11.4172  -17.7157 N   0  0  0  0  0  0  0  0  0  0  0  0
   38.2024   10.8178  -17.9995 C   0  0  0  0  0  0  0  0  0  0  0  0
   37.0931   11.0384  -17.1820 C   0  0  0  0  0  0  0  0  0  0  0  0
   35.8012   10.6209  -17.1569 C   0  0  0  0  0  0  0  0  0  0  0  0
   35.2084   11.1881  -16.1026 N   0  0  0  0  0  0  0  0  0  0  0  0
   36.0586   11.9470  -15.4538 N   0  0  0  0  0  0  0  0  0  0  0  0
   37.2568   11.8763  -16.1068 C   0  0  0  0  0  0  0  0  0  0  0  0
   38.4441   12.4274  -15.9007 N   0  0  0  0  0  0  0  0  0  0  0  0
   35.8647   12.7426  -14.2624 C   0  0  0  0  0  0  0  0  0  0  0  0
   36.8862   12.4804  -13.2105 C   0  0  0  0  0  0  0  0  0  0  0  0
   36.8703   13.7581  -12.4011 C   0  0  0  0  0  0  0  0  0  0  0  0
   36.8129   14.7878  -13.5394 C   0  0  0  0  0  0  0  0  0  0  0  0
   35.8032   14.2000  -14.5180 C   0  0  0  0  0  0  0  0  0  0  0  0
   41.1852   16.4997  -10.9229 N   0  0  0  0  0  0  0  0  0  0  0  0
   40.9791   17.4440  -11.2659 H   0  0  0  0  0  0  0  0  0  0  0  0
   40.5691   16.0040   -9.6942 C   0  0  0  0  0  0  0  0  0  0  0  0
   39.1242   16.4568   -9.6680 C   0  0  0  0  0  0  0  0  0  0  0  0
   38.7405   16.8821  -10.9212 O   0  0  0  0  0  0  0  0  0  0  0  0
   39.4893   16.7771  -11.5504 H   0  0  0  0  0  0  0  0  0  0  0  0
   38.2007   15.3987   -9.1715 C   0  0  0  0  0  0  0  0  0  0  0  0
   37.5188   15.6704   -7.9526 N   0  0  0  0  0  0  0  0  0  0  0  0
   37.2199   17.1074   -7.9353 C   0  0  0  0  0  0  0  0  0  0  0  0
   35.8448   17.4400   -8.3971 C   0  0  0  0  0  0  0  0  0  0  0  0
   35.3619   16.6025   -9.3770 O   0  0  0  0  0  0  0  0  0  0  0  0
   35.2810   15.2775   -8.9421 C   0  0  0  0  0  0  0  0  0  0  0  0
   36.2306   15.0175   -7.8119 C   0  0  0  0  0  0  0  0  0  0  0  0
 11 12  1  0  0  0
 12  1  1  0  0  0
  1  2  2  0  0  0
  2 13  1  0  0  0
 13 15  1  0  0  0
 15 16  2  0  0  0
 16 17  1  0  0  0
 17 18  2  0  0  0
 18 19  1  0  0  0
 19 20  2  0  0  0
 20 21  1  0  0  0
 21 24  1  0  0  0
 24 25  1  0  0  0
 25 26  1  0  0  0
 26 27  1  0  0  0
 27 28  1  0  0  0
 21 22  1  0  0  0
 22 23  2  0  0  0
  2  3  1  0  0  0
  3  4  2  0  0  0
  4  5  1  0  0  0
  5  6  2  0  0  0
  6 29  1  0  0  0
 29 31  1  0  0  0
 31 32  1  0  0  0
 32 33  1  0  0  0
 32 35  1  0  0  0
 35 36  1  0  0  0
 36 37  1  0  0  0
 37 38  1  0  0  0
 38 39  1  0  0  0
 39 40  1  0  0  0
 40 41  1  0  0  0
  6  7  1  0  0  0
  7  8  2  0  0  0
  8  9  1  0  0  0
  9 10  2  0  0  0
 10  1  1  0  0  0
 23 15  1  0  0  0
 10  5  1  0  0  0
 22 18  1  0  0  0
 41 36  1  0  0  0
 28 24  1  0  0  0
 13 14  1  0  0  0
 29 30  1  0  0  0
 33 34  1  0  0  0
M  END
> <minimizedAffinity>
-8.70897

> <CNNscore>
0.5635183454

> <CNNaffinity>
7.7036423683

> <CNN_VS>
4.3411436081

> <CNNaffinity_variance>
0.0766674429

$$$$
[H]OC([H])(C([H])([H])N([H])c1nc([H])c([H])c2c(OC([H])([H])[H])c(N([H])c3nc([H])c4c([H])nn(C5([H])C([H])([H])C([H])([H])C([H])([H])C5([H])[H])c4n3)c([H])c([H])c12)C([H])([H])N1C([H])([H])C([H])([H])OC([H])([H])C1([H])[H]


 41 46  0  0  0  0  0  0  0  0999 V2000
   35.3099   13.5491  -13.2118 C   0  0  0  0  0  0  0  0  0  0  0  0
   36.4298   12.9785  -13.8746 C   0  0  0  0  0  0  0  0  0  0  0  0
   37.6293   13.3887  -13.3833 C   0  0  0  0  0  0  0  0  0  0  0  0
   37.7951   14.2897  -12.3226 C   0  0  0  0  0  0  0  0  0  0  0  0
   36.6818   14.8170  -11.7108 C   0  0  0  0  0  0  0  0  0  0  0  0
   36.8209   15.7031  -10.6698 C   0  0  0  0  0  0  0  0  0  0  0  0
   35.6705   16.1878  -10.1114 N   0  0  0  0  0  0  0  0  0  0  0  0
   34.4481   15.8519  -10.5155 C   0  0  0  0  0  0  0  0  0  0  0  0
   34.3160   14.9631  -11.5591 C   0  0  0  0  0  0  0  0  0  0  0  0
   35.4323   14.4286  -12.1768 C   0  0  0  0  0  0  0  0  0  0  0  0
   33.4136   13.7533  -14.7566 C   0  0  0  0  0  0  0  0  0  0  0  0
   34.0379   13.2033  -13.6279 O   0  0  0  0  0  0  0  0  0  0  0  0
   36.1930   12.0822  -14.9195 N   0  0  0  0  0  0  0  0  0  0  0  0
   35.2428   11.5991  -14.9743 H   0  0  0  0  0  0  0  0  0  0  0  0
   37.0965   11.7301  -15.9414 C   0  0  0  0  0  0  0  0  0  0  0  0
   36.8690   10.8981  -16.9547 N   0  0  0  0  0  0  0  0  0  0  0  0
   37.7653   10.5944  -17.9016 C   0  0  0  0  0  0  0  0  0  0  0  0
   39.0368   11.1681  -17.8599 C   0  0  0  0  0  0  0  0  0  0  0  0
   40.1628   11.1007  -18.6158 C   0  0  0  0  0  0  0  0  0  0  0  0
   41.0786   11.8972  -18.0575 N   0  0  0  0  0  0  0  0  0  0  0  0
   40.5921   12.4695  -16.9826 N   0  0  0  0  0  0  0  0  0  0  0  0
   39.3068   12.0323  -16.8278 C   0  0  0  0  0  0  0  0  0  0  0  0
   38.3598   12.2759  -15.9336 N   0  0  0  0  0  0  0  0  0  0  0  0
   41.2141   13.4032  -16.0707 C   0  0  0  0  0  0  0  0  0  0  0  0
   40.7363   13.2577  -14.6673 C   0  0  0  0  0  0  0  0  0  0  0  0
   41.8793   13.8346  -13.8621 C   0  0  0  0  0  0  0  0  0  0  0  0
   43.0670   13.2105  -14.6098 C   0  0  0  0  0  0  0  0  0  0  0  0
   42.6941   13.3551  -16.0804 C   0  0  0  0  0  0  0  0  0  0  0  0
   38.0719   16.1256  -10.1573 N   0  0  0  0  0  0  0  0  0  0  0  0
   38.7493   15.4492   -9.7895 H   0  0  0  0  0  0  0  0  0  0  0  0
   38.3766   17.5546  -10.1638 C   0  0  0  0  0  0  0  0  0  0  0  0
   38.0396   18.1211   -8.8003 C   0  0  0  0  0  0  0  0  0  0  0  0
   36.7402   18.5794   -8.7882 O   0  0  0  0  0  0  0  0  0  0  0  0
   36.3233   18.4168   -9.6642 H   0  0  0  0  0  0  0  0  0  0  0  0
   38.2559   17.1385   -7.7019 C   0  0  0  0  0  0  0  0  0  0  0  0
   37.1058   16.7527   -6.9581 N   0  0  0  0  0  0  0  0  0  0  0  0
   37.1149   15.2871   -6.8768 C   0  0  0  0  0  0  0  0  0  0  0  0
   37.7031   14.7596   -5.6156 C   0  0  0  0  0  0  0  0  0  0  0  0
   38.7248   15.5286   -5.1060 O   0  0  0  0  0  0  0  0  0  0  0  0
   38.3009   16.8210   -4.7883 C   0  0  0  0  0  0  0  0  0  0  0  0
   37.0870   17.2048   -5.5795 C   0  0  0  0  0  0  0  0  0  0  0  0
 11 12  1  0  0  0
 12  1  1  0  0  0
  1  2  2  0  0  0
  2 13  1  0  0  0
 13 15  1  0  0  0
 15 16  2  0  0  0
 16 17  1  0  0  0
 17 18  2  0  0  0
 18 19  1  0  0  0
 19 20  2  0  0  0
 20 21  1  0  0  0
 21 24  1  0  0  0
 24 25  1  0  0  0
 25 26  1  0  0  0
 26 27  1  0  0  0
 27 28  1  0  0  0
 21 22  1  0  0  0
 22 23  2  0  0  0
  2  3  1  0  0  0
  3  4  2  0  0  0
  4  5  1  0  0  0
  5  6  2  0  0  0
  6 29  1  0  0  0
 29 31  1  0  0  0
 31 32  1  0  0  0
 32 33  1  0  0  0
 32 35  1  0  0  0
 35 36  1  0  0  0
 36 37  1  0  0  0
 37 38  1  0  0  0
 38 39  1  0  0  0
 39 40  1  0  0  0
 40 41  1  0  0  0
  6  7  1  0  0  0
  7  8  2  0  0  0
  8  9  1  0  0  0
  9 10  2  0  0  0
 10  1  1  0  0  0
 23 15  1  0  0  0
 10  5  1  0  0  0
 22 18  1  0  0  0
 41 36  1  0  0  0
 28 24  1  0  0  0
 13 14  1  0  0  0
 29 30  1  0  0  0
 33 34  1  0  0  0
M  END
> <minimizedAffinity>
-8.45686

> <CNNscore>
0.4503557086

> <CNNaffinity>
7.4960312843

> <CNN_VS>
3.3758804798

> <CNNaffinity_variance>
0.2006265372

$$$$
[H]OC([H])(C([H])([H])N([H])c1nc([H])c([H])c2c(OC([H])([H])[H])c(N([H])c3nc([H])c4c([H])nn(C5([H])C([H])([H])C([H])([H])C([H])([H])C5([H])[H])c4n3)c([H])c([H])c12)C([H])([H])N1C([H])([H])C([H])([H])OC([H])([H])C1([H])[H]


 41 46  0  0  0  0  0  0  0  0999 V2000
   35.5539   13.7912  -13.1243 C   0  0  0  0  0  0  0  0  0  0  0  0
   36.5984   13.3930  -14.0016 C   0  0  0  0  0  0  0  0  0  0  0  0
   37.7788   14.0297  -13.7784 C   0  0  0  0  0  0  0  0  0  0  0  0
   37.9929   14.9966  -12.7866 C   0  0  0  0  0  0  0  0  0  0  0  0
   36.9520   15.3509  -11.9602 C   0  0  0  0  0  0  0  0  0  0  0  0
   37.1391   16.2975  -10.9818 C   0  0  0  0  0  0  0  0  0  0  0  0
   36.0593   16.6007  -10.1992 N   0  0  0  0  0  0  0  0  0  0  0  0
   34.8613   16.0373  -10.3332 C   0  0  0  0  0  0  0  0  0  0  0  0
   34.6811   15.0891  -11.3156 C   0  0  0  0  0  0  0  0  0  0  0  0
   35.7248   14.7281  -12.1483 C   0  0  0  0  0  0  0  0  0  0  0  0
   33.3896   13.5619  -14.2589 C   0  0  0  0  0  0  0  0  0  0  0  0
   34.3077   13.2088  -13.2595 O   0  0  0  0  0  0  0  0  0  0  0  0
   36.3185   12.4192  -14.9631 N   0  0  0  0  0  0  0  0  0  0  0  0
   35.3576   11.9546  -14.9566 H   0  0  0  0  0  0  0  0  0  0  0  0
   37.1900   11.9639  -15.9720 C   0  0  0  0  0  0  0  0  0  0  0  0
   36.8993   11.1114  -16.9515 N   0  0  0  0  0  0  0  0  0  0  0  0
   37.7673   10.7078  -17.8874 C   0  0  0  0  0  0  0  0  0  0  0  0
   39.0767   11.1906  -17.8703 C   0  0  0  0  0  0  0  0  0  0  0  0
   40.1916   11.0135  -18.6250 C   0  0  0  0  0  0  0  0  0  0  0  0
   41.1643   11.7638  -18.0999 N   0  0  0  0  0  0  0  0  0  0  0  0
   40.7246   12.4108  -17.0474 N   0  0  0  0  0  0  0  0  0  0  0  0
   39.4122   12.0729  -16.8733 C   0  0  0  0  0  0  0  0  0  0  0  0
   38.4890   12.4181  -15.9878 N   0  0  0  0  0  0  0  0  0  0  0  0
   41.4157   13.3326  -16.1739 C   0  0  0  0  0  0  0  0  0  0  0  0
   40.9967   13.2152  -14.7492 C   0  0  0  0  0  0  0  0  0  0  0  0
   42.1921   13.7628  -14.0016 C   0  0  0  0  0  0  0  0  0  0  0  0
   43.3250   13.0944  -14.7946 C   0  0  0  0  0  0  0  0  0  0  0  0
   42.8916   13.2374  -16.2487 C   0  0  0  0  0  0  0  0  0  0  0  0
   38.3710   16.9563  -10.7489 N   0  0  0  0  0  0  0  0  0  0  0  0
   38.8410   17.4799  -11.4951 H   0  0  0  0  0  0  0  0  0  0  0  0
   38.9607   16.8720   -9.4147 C   0  0  0  0  0  0  0  0  0  0  0  0
   39.6824   15.5460   -9.2943 C   0  0  0  0  0  0  0  0  0  0  0  0
   40.5359   15.3750  -10.3624 O   0  0  0  0  0  0  0  0  0  0  0  0
   40.4937   16.1630  -10.9497 H   0  0  0  0  0  0  0  0  0  0  0  0
   40.4227   15.4108   -8.0089 C   0  0  0  0  0  0  0  0  0  0  0  0
   41.3461   14.3321   -7.9171 N   0  0  0  0  0  0  0  0  0  0  0  0
   42.2763   14.6505   -6.8272 C   0  0  0  0  0  0  0  0  0  0  0  0
   41.9159   14.0214   -5.5275 C   0  0  0  0  0  0  0  0  0  0  0  0
   40.5611   13.8922   -5.3209 O   0  0  0  0  0  0  0  0  0  0  0  0
   39.9574   13.0844   -6.2874 C   0  0  0  0  0  0  0  0  0  0  0  0
   40.7627   13.0549   -7.5513 C   0  0  0  0  0  0  0  0  0  0  0  0
 11 12  1  0  0  0
 12  1  1  0  0  0
  1  2  2  0  0  0
  2 13  1  0  0  0
 13 15  1  0  0  0
 15 16  2  0  0  0
 16 17  1  0  0  0
 17 18  2  0  0  0
 18 19  1  0  0  0
 19 20  2  0  0  0
 20 21  1  0  0  0
 21 24  1  0  0  0
 24 25  1  0  0  0
 25 26  1  0  0  0
 26 27  1  0  0  0
 27 28  1  0  0  0
 21 22  1  0  0  0
 22 23  2  0  0  0
  2  3  1  0  0  0
  3  4  2  0  0  0
  4  5  1  0  0  0
  5  6  2  0  0  0
  6 29  1  0  0  0
 29 31  1  0  0  0
 31 32  1  0  0  0
 32 33  1  0  0  0
 32 35  1  0  0  0
 35 36  1  0  0  0
 36 37  1  0  0  0
 37 38  1  0  0  0
 38 39  1  0  0  0
 39 40  1  0  0  0
 40 41  1  0  0  0
  6  7  1  0  0  0
  7  8  2  0  0  0
  8  9  1  0  0  0
  9 10  2  0  0  0
 10  1  1  0  0  0
 23 15  1  0  0  0
 10  5  1  0  0  0
 22 18  1  0  0  0
 41 36  1  0  0  0
 28 24  1  0  0  0
 13 14  1  0  0  0
 29 30  1  0  0  0
 33 34  1  0  0  0
M  END
> <minimizedAffinity>
-9.06049

> <CNNscore>
0.4472278059

> <CNNaffinity>
7.4207239151

> <CNN_VS>
3.3187539577

> <CNNaffinity_variance>
0.0542099290

$$$$
[H]OC([H])(C([H])([H])N([H])c1nc([H])c([H])c2c(OC([H])([H])[H])c(N([H])c3nc([H])c4c([H])nn(C5([H])C([H])([H])C([H])([H])C([H])([H])C5([H])[H])c4n3)c([H])c([H])c12)C([H])([H])N1C([H])([H])C([H])([H])OC([H])([H])C1([H])[H]


 41 46  0  0  0  0  0  0  0  0999 V2000
   41.0815   12.5746  -16.2027 C   0  0  0  0  0  0  0  0  0  0  0  0
   39.6833   12.6418  -15.9583 C   0  0  0  0  0  0  0  0  0  0  0  0
   39.3534   13.3174  -14.8255 C   0  0  0  0  0  0  0  0  0  0  0  0
   40.2729   13.9096  -13.9490 C   0  0  0  0  0  0  0  0  0  0  0  0
   41.6171   13.8190  -14.2261 C   0  0  0  0  0  0  0  0  0  0  0  0
   42.5363   14.3911  -13.3798 C   0  0  0  0  0  0  0  0  0  0  0  0
   43.8549   14.2595  -13.7178 N   0  0  0  0  0  0  0  0  0  0  0  0
   44.2849   13.6195  -14.8022 C   0  0  0  0  0  0  0  0  0  0  0  0
   43.3582   13.0488  -15.6460 C   0  0  0  0  0  0  0  0  0  0  0  0
   42.0052   13.1383  -15.3729 C   0  0  0  0  0  0  0  0  0  0  0  0
   40.7702   11.7494  -18.4932 C   0  0  0  0  0  0  0  0  0  0  0  0
   41.5333   11.9109  -17.3279 O   0  0  0  0  0  0  0  0  0  0  0  0
   38.8223   12.0358  -16.8761 N   0  0  0  0  0  0  0  0  0  0  0  0
   39.1994   11.7825  -17.8419 H   0  0  0  0  0  0  0  0  0  0  0  0
   37.4673   11.7127  -16.6657 C   0  0  0  0  0  0  0  0  0  0  0  0
   36.7779   10.7415  -17.2593 N   0  0  0  0  0  0  0  0  0  0  0  0
   35.4869   10.4763  -17.0247 C   0  0  0  0  0  0  0  0  0  0  0  0
   34.7790   11.2475  -16.1018 C   0  0  0  0  0  0  0  0  0  0  0  0
   33.5087   11.2736  -15.6227 C   0  0  0  0  0  0  0  0  0  0  0  0
   33.4276   12.2666  -14.7327 N   0  0  0  0  0  0  0  0  0  0  0  0
   34.5837   12.8753  -14.6204 N   0  0  0  0  0  0  0  0  0  0  0  0
   35.4590   12.2589  -15.4696 C   0  0  0  0  0  0  0  0  0  0  0  0
   36.7368   12.4510  -15.7629 N   0  0  0  0  0  0  0  0  0  0  0  0
   34.9632   13.9911  -13.7832 C   0  0  0  0  0  0  0  0  0  0  0  0
   33.8584   14.4660  -12.9041 C   0  0  0  0  0  0  0  0  0  0  0  0
   34.5979   15.1423  -11.7712 C   0  0  0  0  0  0  0  0  0  0  0  0
   35.7201   14.1186  -11.5436 C   0  0  0  0  0  0  0  0  0  0  0  0
   36.1615   13.7361  -12.9513 C   0  0  0  0  0  0  0  0  0  0  0  0
   42.1895   15.0979  -12.2025 N   0  0  0  0  0  0  0  0  0  0  0  0
   41.2173   15.3620  -12.0102 H   0  0  0  0  0  0  0  0  0  0  0  0
   43.2539   15.4450  -11.2636 C   0  0  0  0  0  0  0  0  0  0  0  0
   42.6296   15.7042   -9.9083 C   0  0  0  0  0  0  0  0  0  0  0  0
   43.4581   16.5051   -9.1529 O   0  0  0  0  0  0  0  0  0  0  0  0
   44.2582   16.7398   -9.6749 H   0  0  0  0  0  0  0  0  0  0  0  0
   41.2714   16.3075  -10.0087 C   0  0  0  0  0  0  0  0  0  0  0  0
   40.1697   15.4100   -9.9342 N   0  0  0  0  0  0  0  0  0  0  0  0
   39.8587   15.2241   -8.5118 C   0  0  0  0  0  0  0  0  0  0  0  0
   38.7588   16.0970   -8.0188 C   0  0  0  0  0  0  0  0  0  0  0  0
   38.7042   17.3311   -8.6261 O   0  0  0  0  0  0  0  0  0  0  0  0
   38.4891   17.2299  -10.0025 C   0  0  0  0  0  0  0  0  0  0  0  0
   38.9389   15.8995  -10.5264 C   0  0  0  0  0  0  0  0  0  0  0  0
 11 12  1  0  0  0
 12  1  1  0  0  0
  1  2  2  0  0  0
  2 13  1  0  0  0
 13 15  1  0  0  0
 15 16  2  0  0  0
 16 17  1  0  0  0
 17 18  2  0  0  0
 18 19  1  0  0  0
 19 20  2  0  0  0
 20 21  1  0  0  0
 21 24  1  0  0  0
 24 25  1  0  0  0
 25 26  1  0  0  0
 26 27  1  0  0  0
 27 28  1  0  0  0
 21 22  1  0  0  0
 22 23  2  0  0  0
  2  3  1  0  0  0
  3  4  2  0  0  0
  4  5  1  0  0  0
  5  6  2  0  0  0
  6 29  1  0  0  0
 29 31  1  0  0  0
 31 32  1  0  0  0
 32 33  1  0  0  0
 32 35  1  0  0  0
 35 36  1  0  0  0
 36 37  1  0  0  0
 37 38  1  0  0  0
 38 39  1  0  0  0
 39 40  1  0  0  0
 40 41  1  0  0  0
  6  7  1  0  0  0
  7  8  2  0  0  0
  8  9  1  0  0  0
  9 10  2  0  0  0
 10  1  1  0  0  0
 23 15  1  0  0  0
 10  5  1  0  0  0
 22 18  1  0  0  0
 41 36  1  0  0  0
 28 24  1  0  0  0
 13 14  1  0  0  0
 29 30  1  0  0  0
 33 34  1  0  0  0
M  END
> <minimizedAffinity>
-8.72182

> <CNNscore>
0.3157235682

> <CNNaffinity>
7.4787588120

> <CNN_VS>
2.3612203598

> <CNNaffinity_variance>
0.1047359705

$$$$
[H]OC([H])(C([H])([H])N([H])c1nc([H])c([H])c2c(OC([H])([H])[H])c(N([H])c3nc([H])c4c([H])nn(C5([H])C([H])([H])C([H])([H])C([H])([H])C5([H])[H])c4n3)c([H])c([H])c12)C([H])([H])N1C([H])([H])C([H])([H])OC([H])([H])C1([H])[H]


 41 46  0  0  0  0  0  0  0  0999 V2000
   39.4383   12.0228  -16.5583 C   0  0  0  0  0  0  0  0  0  0  0  0
   40.5575   12.7925  -16.1408 C   0  0  0  0  0  0  0  0  0  0  0  0
   40.2701   13.7039  -15.1737 C   0  0  0  0  0  0  0  0  0  0  0  0
   39.0020   13.9020  -14.6105 C   0  0  0  0  0  0  0  0  0  0  0  0
   37.9477   13.1335  -15.0460 C   0  0  0  0  0  0  0  0  0  0  0  0
   36.6956   13.3116  -14.5086 C   0  0  0  0  0  0  0  0  0  0  0  0
   35.6954   12.5134  -14.9914 N   0  0  0  0  0  0  0  0  0  0  0  0
   35.8689   11.5916  -15.9351 C   0  0  0  0  0  0  0  0  0  0  0  0
   37.1265   11.4183  -16.4690 C   0  0  0  0  0  0  0  0  0  0  0  0
   38.1905   12.1873  -16.0335 C   0  0  0  0  0  0  0  0  0  0  0  0
   39.7221   11.3604  -18.9045 C   0  0  0  0  0  0  0  0  0  0  0  0
   39.6134   11.0639  -17.5383 O   0  0  0  0  0  0  0  0  0  0  0  0
   41.7940   12.5387  -16.7389 N   0  0  0  0  0  0  0  0  0  0  0  0
   41.8130   12.1880  -17.7468 H   0  0  0  0  0  0  0  0  0  0  0  0
   43.0605   12.6958  -16.1423 C   0  0  0  0  0  0  0  0  0  0  0  0
   44.2420   12.4513  -16.7037 N   0  0  0  0  0  0  0  0  0  0  0  0
   45.4207   12.6155  -16.0906 C   0  0  0  0  0  0  0  0  0  0  0  0
   45.4570   13.0727  -14.7726 C   0  0  0  0  0  0  0  0  0  0  0  0
   46.4258   13.3488  -13.8621 C   0  0  0  0  0  0  0  0  0  0  0  0
   45.8279   13.7637  -12.7417 N   0  0  0  0  0  0  0  0  0  0  0  0
   44.5253   13.7660  -12.8928 N   0  0  0  0  0  0  0  0  0  0  0  0
   44.2560   13.3356  -14.1614 C   0  0  0  0  0  0  0  0  0  0  0  0
   43.1362   13.1448  -14.8436 N   0  0  0  0  0  0  0  0  0  0  0  0
   43.4873   14.1397  -11.9585 C   0  0  0  0  0  0  0  0  0  0  0  0
   43.8391   13.8413  -10.5421 C   0  0  0  0  0  0  0  0  0  0  0  0
   42.9721   14.8106   -9.7696 C   0  0  0  0  0  0  0  0  0  0  0  0
   43.1595   16.0703  -10.6282 C   0  0  0  0  0  0  0  0  0  0  0  0
   43.0708   15.5571  -12.0604 C   0  0  0  0  0  0  0  0  0  0  0  0
   36.3999   14.2591  -13.4984 N   0  0  0  0  0  0  0  0  0  0  0  0
   36.6610   15.2452  -13.6043 H   0  0  0  0  0  0  0  0  0  0  0  0
   35.7115   13.7973  -12.2951 C   0  0  0  0  0  0  0  0  0  0  0  0
   36.1768   14.6396  -11.1256 C   0  0  0  0  0  0  0  0  0  0  0  0
   35.7615   14.0719   -9.9408 O   0  0  0  0  0  0  0  0  0  0  0  0
   35.2725   13.2387  -10.1261 H   0  0  0  0  0  0  0  0  0  0  0  0
   37.6524   14.8431  -11.1169 C   0  0  0  0  0  0  0  0  0  0  0  0
   38.1119   16.1750  -11.3157 N   0  0  0  0  0  0  0  0  0  0  0  0
   37.1741   17.0645  -10.6201 C   0  0  0  0  0  0  0  0  0  0  0  0
   37.6224   17.4624   -9.2579 C   0  0  0  0  0  0  0  0  0  0  0  0
   38.3412   16.4928   -8.5961 O   0  0  0  0  0  0  0  0  0  0  0  0
   39.5154   16.1556   -9.2734 C   0  0  0  0  0  0  0  0  0  0  0  0
   39.4088   16.4693  -10.7352 C   0  0  0  0  0  0  0  0  0  0  0  0
 11 12  1  0  0  0
 12  1  1  0  0  0
  1  2  2  0  0  0
  2 13  1  0  0  0
 13 15  1  0  0  0
 15 16  2  0  0  0
 16 17  1  0  0  0
 17 18  2  0  0  0
 18 19  1  0  0  0
 19 20  2  0  0  0
 20 21  1  0  0  0
 21 24  1  0  0  0
 24 25  1  0  0  0
 25 26  1  0  0  0
 26 27  1  0  0  0
 27 28  1  0  0  0
 21 22  1  0  0  0
 22 23  2  0  0  0
  2  3  1  0  0  0
  3  4  2  0  0  0
  4  5  1  0  0  0
  5  6  2  0  0  0
  6 29  1  0  0  0
 29 31  1  0  0  0
 31 32  1  0  0  0
 32 33  1  0  0  0
 32 35  1  0  0  0
 35 36  1  0  0  0
 36 37  1  0  0  0
 37 38  1  0  0  0
 38 39  1  0  0  0
 39 40  1  0  0  0
 40 41  1  0  0  0
  6  7  1  0  0  0
  7  8  2  0  0  0
  8  9  1  0  0  0
  9 10  2  0  0  0
 10  1  1  0  0  0
 23 15  1  0  0  0
 10  5  1  0  0  0
 22 18  1  0  0  0
 41 36  1  0  0  0
 28 24  1  0  0  0
 13 14  1  0  0  0
 29 30  1  0  0  0
 33 34  1  0  0  0
M  END
> <minimizedAffinity>
-8.98362

> <CNNscore>
0.2986100912

> <CNNaffinity>
7.2458786964

> <CNN_VS>
2.1636924744

> <CNNaffinity_variance>
0.2111510783

$$$$
[H]OC([H])(C([H])([H])N([H])c1nc([H])c([H])c2c(OC([H])([H])[H])c(N([H])c3nc([H])c4c([H])nn(C5([H])C([H])([H])C([H])([H])C([H])([H])C5([H])[H])c4n3)c([H])c([H])c12)C([H])([H])N1C([H])([H])C([H])([H])OC([H])([H])C1([H])[H]


 41 46  0  0  0  0  0  0  0  0999 V2000
   40.7125   12.1584  -16.5603 C   0  0  0  0  0  0  0  0  0  0  0  0
   39.5326   12.5908  -15.8970 C   0  0  0  0  0  0  0  0  0  0  0  0
   39.7651   13.4045  -14.8328 C   0  0  0  0  0  0  0  0  0  0  0  0
   41.0338   13.8065  -14.3934 C   0  0  0  0  0  0  0  0  0  0  0  0
   42.1481   13.3627  -15.0666 C   0  0  0  0  0  0  0  0  0  0  0  0
   43.4019   13.7433  -14.6525 C   0  0  0  0  0  0  0  0  0  0  0  0
   44.4631   13.2620  -15.3684 N   0  0  0  0  0  0  0  0  0  0  0  0
   44.3464   12.4609  -16.4244 C   0  0  0  0  0  0  0  0  0  0  0  0
   43.0869   12.0838  -16.8342 C   0  0  0  0  0  0  0  0  0  0  0  0
   41.9630   12.5285  -16.1617 C   0  0  0  0  0  0  0  0  0  0  0  0
   40.1860   11.7644  -18.9250 C   0  0  0  0  0  0  0  0  0  0  0  0
   40.5966   11.3262  -17.6579 O   0  0  0  0  0  0  0  0  0  0  0  0
   38.3002   12.1581  -16.3916 N   0  0  0  0  0  0  0  0  0  0  0  0
   38.2772   11.6320  -17.3200 H   0  0  0  0  0  0  0  0  0  0  0  0
   37.0423   12.3454  -15.7855 C   0  0  0  0  0  0  0  0  0  0  0  0
   35.9084   11.7202  -16.0926 N   0  0  0  0  0  0  0  0  0  0  0  0
   34.7352   11.9370  -15.4853 C   0  0  0  0  0  0  0  0  0  0  0  0
   34.6526   12.8744  -14.4548 C   0  0  0  0  0  0  0  0  0  0  0  0
   33.6737   13.3441  -13.6394 C   0  0  0  0  0  0  0  0  0  0  0  0
   34.2176   14.2595  -12.8325 N   0  0  0  0  0  0  0  0  0  0  0  0
   35.4954   14.3969  -13.0932 N   0  0  0  0  0  0  0  0  0  0  0  0
   35.8038   13.5388  -14.1109 C   0  0  0  0  0  0  0  0  0  0  0  0
   36.9219   13.2615  -14.7656 N   0  0  0  0  0  0  0  0  0  0  0  0
   36.4771   15.2598  -12.4753 C   0  0  0  0  0  0  0  0  0  0  0  0
   35.8701   16.3324  -11.6386 C   0  0  0  0  0  0  0  0  0  0  0  0
   36.9823   16.6741  -10.6722 C   0  0  0  0  0  0  0  0  0  0  0  0
   37.4726   15.2600  -10.3273 C   0  0  0  0  0  0  0  0  0  0  0  0
   37.4877   14.5374  -11.6691 C   0  0  0  0  0  0  0  0  0  0  0  0
   43.6409   14.5943  -13.5459 N   0  0  0  0  0  0  0  0  0  0  0  0
   43.0007   14.6142  -12.7449 H   0  0  0  0  0  0  0  0  0  0  0  0
   44.8261   15.4485  -13.5718 C   0  0  0  0  0  0  0  0  0  0  0  0
   45.2715   15.6909  -12.1448 C   0  0  0  0  0  0  0  0  0  0  0  0
   44.2138   16.1541  -11.3929 O   0  0  0  0  0  0  0  0  0  0  0  0
   43.4063   16.2041  -11.9524 H   0  0  0  0  0  0  0  0  0  0  0  0
   45.8663   14.4785  -11.5161 C   0  0  0  0  0  0  0  0  0  0  0  0
   46.5281   13.5696  -12.3881 N   0  0  0  0  0  0  0  0  0  0  0  0
   47.9344   13.5164  -11.9711 C   0  0  0  0  0  0  0  0  0  0  0  0
   48.2511   12.3731  -11.0724 C   0  0  0  0  0  0  0  0  0  0  0  0
   47.2225   12.0177  -10.2296 O   0  0  0  0  0  0  0  0  0  0  0  0
   46.0842   11.6145  -10.9315 C   0  0  0  0  0  0  0  0  0  0  0  0
   46.0621   12.1975  -12.3122 C   0  0  0  0  0  0  0  0  0  0  0  0
 11 12  1  0  0  0
 12  1  1  0  0  0
  1  2  2  0  0  0
  2 13  1  0  0  0
 13 15  1  0  0  0
 15 16  2  0  0  0
 16 17  1  0  0  0
 17 18  2  0  0  0
 18 19  1  0  0  0
 19 20  2  0  0  0
 20 21  1  0  0  0
 21 24  1  0  0  0
 24 25  1  0  0  0
 25 26  1  0  0  0
 26 27  1  0  0  0
 27 28  1  0  0  0
 21 22  1  0  0  0
 22 23  2  0  0  0
  2  3  1  0  0  0
  3  4  2  0  0  0
  4  5  1  0  0  0
  5  6  2  0  0  0
  6 29  1  0  0  0
 29 31  1  0  0  0
 31 32  1  0  0  0
 32 33  1  0  0  0
 32 35  1  0  0  0
 35 36  1  0  0  0
 36 37  1  0  0  0
 37 38  1  0  0  0
 38 39  1  0  0  0
 39 40  1  0  0  0
 40 41  1  0  0  0
  6  7  1  0  0  0
  7  8  2  0  0  0
  8  9  1  0  0  0
  9 10  2  0  0  0
 10  1  1  0  0  0
 23 15  1  0  0  0
 10  5  1  0  0  0
 22 18  1  0  0  0
 41 36  1  0  0  0
 28 24  1  0  0  0
 13 14  1  0  0  0
 29 30  1  0  0  0
 33 34  1  0  0  0
M  END
> <minimizedAffinity>
-8.32215

> <CNNscore>
0.2050002515

> <CNNaffinity>
6.9093370438

> <CNN_VS>
1.4164158106

> <CNNaffinity_variance>
0.2838692963

$$$$
[H]c1oc2c([H])c([H])c(C(=O)N([H])C([H])([H])C3(C#N)C([H])([H])C3([H])[H])c([H])c2c1-c1c([H])c([H])c(C([H])([H])N2C([H])([H])C([H])([H])N(C(=O)C([H])([H])[H])C([H])([H])C2([H])[H])c([H])c1[H]


 35 39  0  0  0  0  0  0  0  0999 V2000
   36.6617   12.6172  -14.6316 C   0  0  0  0  0  0  0  0  0  0  0  0
   35.4107   12.0944  -14.8806 C   0  0  0  0  0  0  0  0  0  0  0  0
   35.4466   11.3856  -15.9622 O   0  0  0  0  0  0  0  0  0  0  0  0
   36.6599   11.3822  -16.4882 C   0  0  0  0  0  0  0  0  0  0  0  0
   37.1943   10.7889  -17.6094 C   0  0  0  0  0  0  0  0  0  0  0  0
   38.5514   10.9855  -17.8958 C   0  0  0  0  0  0  0  0  0  0  0  0
   39.3467   11.7538  -17.0823 C   0  0  0  0  0  0  0  0  0  0  0  0
   38.7937   12.3519  -15.9456 C   0  0  0  0  0  0  0  0  0  0  0  0
   37.4671   12.1540  -15.6739 C   0  0  0  0  0  0  0  0  0  0  0  0
   37.9319   15.1309  -11.4995 C   0  0  0  0  0  0  0  0  0  0  0  0
   38.6480   15.0991  -12.7014 C   0  0  0  0  0  0  0  0  0  0  0  0
   38.1833   14.2608  -13.6844 C   0  0  0  0  0  0  0  0  0  0  0  0
   37.0635   13.4800  -13.5094 C   0  0  0  0  0  0  0  0  0  0  0  0
   36.3541   13.5059  -12.3300 C   0  0  0  0  0  0  0  0  0  0  0  0
   36.8109   14.3473  -11.3285 C   0  0  0  0  0  0  0  0  0  0  0  0
   38.4408   16.0479  -10.4227 C   0  0  0  0  0  0  0  0  0  0  0  0
   37.3927   19.3969   -5.6116 C   0  0  0  0  0  0  0  0  0  0  0  0
   37.4000   17.9177   -5.6898 C   0  0  0  0  0  0  0  0  0  0  0  0
   37.7469   17.2253   -4.6863 O   0  0  0  0  0  0  0  0  0  0  0  0
   37.0233   17.2505   -6.8758 N   0  0  0  0  0  0  0  0  0  0  0  0
   37.0188   15.8051   -6.9835 C   0  0  0  0  0  0  0  0  0  0  0  0
   37.8153   15.4370   -8.1885 C   0  0  0  0  0  0  0  0  0  0  0  0
   37.4799   16.1222   -9.3775 N   0  0  0  0  0  0  0  0  0  0  0  0
   36.6708   17.2684   -9.3077 C   0  0  0  0  0  0  0  0  0  0  0  0
   36.6286   18.0106   -8.0236 C   0  0  0  0  0  0  0  0  0  0  0  0
   40.7551   12.0005  -17.3280 C   0  0  0  0  0  0  0  0  0  0  0  0
   41.2479   11.7316  -18.4733 O   0  0  0  0  0  0  0  0  0  0  0  0
   41.5636   12.5339  -16.2985 N   0  0  0  0  0  0  0  0  0  0  0  0
   41.1659   12.7471  -15.3716 H   0  0  0  0  0  0  0  0  0  0  0  0
   42.9895   12.7822  -16.5549 C   0  0  0  0  0  0  0  0  0  0  0  0
   43.6575   13.0395  -15.2229 C   0  0  0  0  0  0  0  0  0  0  0  0
   43.4185   14.4007  -14.6614 C   0  0  0  0  0  0  0  0  0  0  0  0
   42.8843   13.1999  -13.9861 C   0  0  0  0  0  0  0  0  0  0  0  0
   45.0524   12.5500  -15.1165 C   0  0  0  0  0  0  0  0  0  0  0  0
   46.1242   12.1602  -15.0456 N   0  0  0  0  0  0  0  0  0  0  0  0
 17 18  1  0  0  0
 18 19  2  0  0  0
 18 20  1  0  0  0
 20 21  1  0  0  0
 21 22  1  0  0  0
 22 23  1  0  0  0
 23 16  1  0  0  0
 16 10  1  0  0  0
 10 11  2  0  0  0
 11 12  1  0  0  0
 12 13  2  0  0  0
 13 14  1  0  0  0
 14 15  2  0  0  0
 13  1  1  0  0  0
  1  2  2  0  0  0
  2  3  1  0  0  0
  3  4  1  0  0  0
  4  5  2  0  0  0
  5  6  1  0  0  0
  6  7  2  0  0  0
  7  8  1  0  0  0
  8  9  2  0  0  0
  7 26  1  0  0  0
 26 27  2  0  0  0
 26 28  1  0  0  0
 28 30  1  0  0  0
 30 31  1  0  0  0
 31 32  1  0  0  0
 32 33  1  0  0  0
 31 34  1  0  0  0
 34 35  3  0  0  0
 23 24  1  0  0  0
 24 25  1  0  0  0
 25 20  1  0  0  0
 15 10  1  0  0  0
  9  1  1  0  0  0
 33 31  1  0  0  0
  9  4  1  0  0  0
 28 29  1  0  0  0
M  END
> <minimizedAffinity>
-8.72876

> <CNNscore>
0.5909801722

> <CNNaffinity>
6.8060851097

> <CNN_VS>
4.0222611427

> <CNNaffinity_variance>
0.1785772741

$$$$
[H]c1oc2c([H])c([H])c(C(=O)N([H])C([H])([H])C3(C#N)C([H])([H])C3([H])[H])c([H])c2c1-c1c([H])c([H])c(C([H])([H])N2C([H])([H])C([H])([H])N(C(=O)C([H])([H])[H])C([H])([H])C2([H])[H])c([H])c1[H]


 35 39  0  0  0  0  0  0  0  0999 V2000
   36.0396   12.4406  -15.1410 C   0  0  0  0  0  0  0  0  0  0  0  0
   34.8585   11.8788  -15.5763 C   0  0  0  0  0  0  0  0  0  0  0  0
   35.0822   11.1696  -16.6349 O   0  0  0  0  0  0  0  0  0  0  0  0
   36.3616   11.2031  -16.9678 C   0  0  0  0  0  0  0  0  0  0  0  0
   37.0801   10.6249  -17.9895 C   0  0  0  0  0  0  0  0  0  0  0  0
   38.4586   10.8632  -18.0649 C   0  0  0  0  0  0  0  0  0  0  0  0
   39.0952   11.6571  -17.1436 C   0  0  0  0  0  0  0  0  0  0  0  0
   38.3557   12.2396  -16.1095 C   0  0  0  0  0  0  0  0  0  0  0  0
   37.0097   12.0010  -16.0440 C   0  0  0  0  0  0  0  0  0  0  0  0
   36.5746   14.8331  -11.7159 C   0  0  0  0  0  0  0  0  0  0  0  0
   36.2929   13.4696  -11.5762 C   0  0  0  0  0  0  0  0  0  0  0  0
   36.1306   12.7430  -12.7297 C   0  0  0  0  0  0  0  0  0  0  0  0
   36.2373   13.3174  -13.9759 C   0  0  0  0  0  0  0  0  0  0  0  0
   36.5141   14.6580  -14.1212 C   0  0  0  0  0  0  0  0  0  0  0  0
   36.6806   15.4043  -12.9659 C   0  0  0  0  0  0  0  0  0  0  0  0
   36.7515   15.6292  -10.4532 C   0  0  0  0  0  0  0  0  0  0  0  0
   32.6608   15.1066   -6.1575 C   0  0  0  0  0  0  0  0  0  0  0  0
   32.4248   15.1524   -7.6191 C   0  0  0  0  0  0  0  0  0  0  0  0
   31.4442   14.5318   -8.1290 O   0  0  0  0  0  0  0  0  0  0  0  0
   33.2811   15.8832   -8.4713 N   0  0  0  0  0  0  0  0  0  0  0  0
   33.0764   15.9485   -9.9047 C   0  0  0  0  0  0  0  0  0  0  0  0
   34.3558   15.5613  -10.5642 C   0  0  0  0  0  0  0  0  0  0  0  0
   35.5114   16.2273  -10.0984 N   0  0  0  0  0  0  0  0  0  0  0  0
   35.4511   16.9546   -8.8981 C   0  0  0  0  0  0  0  0  0  0  0  0
   34.3967   16.5918   -7.9193 C   0  0  0  0  0  0  0  0  0  0  0  0
   40.5165   11.9471  -17.1712 C   0  0  0  0  0  0  0  0  0  0  0  0
   41.1840   11.7101  -18.2319 O   0  0  0  0  0  0  0  0  0  0  0  0
   41.1443   12.4870  -16.0255 N   0  0  0  0  0  0  0  0  0  0  0  0
   40.6054   12.6745  -15.1670 H   0  0  0  0  0  0  0  0  0  0  0  0
   42.5844   12.7792  -16.0610 C   0  0  0  0  0  0  0  0  0  0  0  0
   42.9155   13.6056  -14.8386 C   0  0  0  0  0  0  0  0  0  0  0  0
   44.0022   13.0436  -13.9853 C   0  0  0  0  0  0  0  0  0  0  0  0
   44.1910   14.3189  -14.7073 C   0  0  0  0  0  0  0  0  0  0  0  0
   41.7422   14.1301  -14.1004 C   0  0  0  0  0  0  0  0  0  0  0  0
   40.8477   14.5380  -13.5180 N   0  0  0  0  0  0  0  0  0  0  0  0
 17 18  1  0  0  0
 18 19  2  0  0  0
 18 20  1  0  0  0
 20 21  1  0  0  0
 21 22  1  0  0  0
 22 23  1  0  0  0
 23 16  1  0  0  0
 16 10  1  0  0  0
 10 11  2  0  0  0
 11 12  1  0  0  0
 12 13  2  0  0  0
 13 14  1  0  0  0
 14 15  2  0  0  0
 13  1  1  0  0  0
  1  2  2  0  0  0
  2  3  1  0  0  0
  3  4  1  0  0  0
  4  5  2  0  0  0
  5  6  1  0  0  0
  6  7  2  0  0  0
  7  8  1  0  0  0
  8  9  2  0  0  0
  7 26  1  0  0  0
 26 27  2  0  0  0
 26 28  1  0  0  0
 28 30  1  0  0  0
 30 31  1  0  0  0
 31 32  1  0  0  0
 32 33  1  0  0  0
 31 34  1  0  0  0
 34 35  3  0  0  0
 23 24  1  0  0  0
 24 25  1  0  0  0
 25 20  1  0  0  0
 15 10  1  0  0  0
  9  1  1  0  0  0
 33 31  1  0  0  0
  9  4  1  0  0  0
 28 29  1  0  0  0
M  END
> <minimizedAffinity>
-8.94409

> <CNNscore>
0.5629891753

> <CNNaffinity>
7.0814046860

> <CNN_VS>
3.9867541790

> <CNNaffinity_variance>
0.1090551019

$$$$
[H]c1oc2c([H])c([H])c(C(=O)N([H])C([H])([H])C3(C#N)C([H])([H])C3([H])[H])c([H])c2c1-c1c([H])c([H])c(C([H])([H])N2C([H])([H])C([H])([H])N(C(=O)C([H])([H])[H])C([H])([H])C2([H])[H])c([H])c1[H]


 35 39  0  0  0  0  0  0  0  0999 V2000
   40.7678   12.2292  -16.6506 C   0  0  0  0  0  0  0  0  0  0  0  0
   41.1054   11.7159  -17.8845 C   0  0  0  0  0  0  0  0  0  0  0  0
   40.0519   11.2207  -18.4490 O   0  0  0  0  0  0  0  0  0  0  0  0
   38.9886   11.3592  -17.6751 C   0  0  0  0  0  0  0  0  0  0  0  0
   37.6673   11.0037  -17.8246 C   0  0  0  0  0  0  0  0  0  0  0  0
   36.7672   11.3001  -16.7929 C   0  0  0  0  0  0  0  0  0  0  0  0
   37.1808   11.9332  -15.6472 C   0  0  0  0  0  0  0  0  0  0  0  0
   38.5255   12.2900  -15.5056 C   0  0  0  0  0  0  0  0  0  0  0  0
   39.3973   11.9965  -16.5188 C   0  0  0  0  0  0  0  0  0  0  0  0
   43.1987   14.1490  -13.7963 C   0  0  0  0  0  0  0  0  0  0  0  0
   41.8058   14.2002  -13.6725 C   0  0  0  0  0  0  0  0  0  0  0  0
   41.0682   13.5541  -14.6335 C   0  0  0  0  0  0  0  0  0  0  0  0
   41.6595   12.8813  -15.6785 C   0  0  0  0  0  0  0  0  0  0  0  0
   43.0290   12.8266  -15.8068 C   0  0  0  0  0  0  0  0  0  0  0  0
   43.7867   13.4741  -14.8444 C   0  0  0  0  0  0  0  0  0  0  0  0
   44.0066   14.8571  -12.7448 C   0  0  0  0  0  0  0  0  0  0  0  0
   48.3049   18.6833  -11.2133 C   0  0  0  0  0  0  0  0  0  0  0  0
   47.4262   18.7520  -12.4038 C   0  0  0  0  0  0  0  0  0  0  0  0
   47.1020   19.8741  -12.8963 O   0  0  0  0  0  0  0  0  0  0  0  0
   46.9334   17.5771  -13.0125 N   0  0  0  0  0  0  0  0  0  0  0  0
   46.0731   17.6110  -14.1785 C   0  0  0  0  0  0  0  0  0  0  0  0
   44.8659   16.7906  -13.8760 C   0  0  0  0  0  0  0  0  0  0  0  0
   45.1159   15.4996  -13.3597 N   0  0  0  0  0  0  0  0  0  0  0  0
   46.4022   15.1807  -12.8938 C   0  0  0  0  0  0  0  0  0  0  0  0
   47.2844   16.2973  -12.4739 C   0  0  0  0  0  0  0  0  0  0  0  0
   36.3003   12.2611  -14.5418 C   0  0  0  0  0  0  0  0  0  0  0  0
   35.0494   12.0353  -14.6488 O   0  0  0  0  0  0  0  0  0  0  0  0
   36.8361   12.8261  -13.3621 N   0  0  0  0  0  0  0  0  0  0  0  0
   37.8465   13.0123  -13.2776 H   0  0  0  0  0  0  0  0  0  0  0  0
   35.9381   13.1549  -12.2459 C   0  0  0  0  0  0  0  0  0  0  0  0
   36.4742   14.4006  -11.5770 C   0  0  0  0  0  0  0  0  0  0  0  0
   35.4331   15.4016  -11.2038 C   0  0  0  0  0  0  0  0  0  0  0  0
   36.2107   14.6963  -10.1641 C   0  0  0  0  0  0  0  0  0  0  0  0
   37.6988   14.9647  -12.1925 C   0  0  0  0  0  0  0  0  0  0  0  0
   38.6406   15.4139  -12.6583 N   0  0  0  0  0  0  0  0  0  0  0  0
 17 18  1  0  0  0
 18 19  2  0  0  0
 18 20  1  0  0  0
 20 21  1  0  0  0
 21 22  1  0  0  0
 22 23  1  0  0  0
 23 16  1  0  0  0
 16 10  1  0  0  0
 10 11  2  0  0  0
 11 12  1  0  0  0
 12 13  2  0  0  0
 13 14  1  0  0  0
 14 15  2  0  0  0
 13  1  1  0  0  0
  1  2  2  0  0  0
  2  3  1  0  0  0
  3  4  1  0  0  0
  4  5  2  0  0  0
  5  6  1  0  0  0
  6  7  2  0  0  0
  7  8  1  0  0  0
  8  9  2  0  0  0
  7 26  1  0  0  0
 26 27  2  0  0  0
 26 28  1  0  0  0
 28 30  1  0  0  0
 30 31  1  0  0  0
 31 32  1  0  0  0
 32 33  1  0  0  0
 31 34  1  0  0  0
 34 35  3  0  0  0
 23 24  1  0  0  0
 24 25  1  0  0  0
 25 20  1  0  0  0
 15 10  1  0  0  0
  9  1  1  0  0  0
 33 31  1  0  0  0
  9  4  1  0  0  0
 28 29  1  0  0  0
M  END
> <minimizedAffinity>
-9.57870

> <CNNscore>
0.4970848560

> <CNNaffinity>
6.7680349350

> <CNN_VS>
3.3642876148

> <CNNaffinity_variance>
0.2621919811

$$$$
[H]c1oc2c([H])c([H])c(C(=O)N([H])C([H])([H])C3(C#N)C([H])([H])C3([H])[H])c([H])c2c1-c1c([H])c([H])c(C([H])([H])N2C([H])([H])C([H])([H])N(C(=O)C([H])([H])[H])C([H])([H])C2([H])[H])c([H])c1[H]


 35 39  0  0  0  0  0  0  0  0999 V2000
   36.3822   13.0169  -14.0872 C   0  0  0  0  0  0  0  0  0  0  0  0
   35.0495   12.6664  -14.1206 C   0  0  0  0  0  0  0  0  0  0  0  0
   34.8311   11.8957  -15.1364 O   0  0  0  0  0  0  0  0  0  0  0  0
   35.9428   11.6851  -15.8209 C   0  0  0  0  0  0  0  0  0  0  0  0
   36.2227   10.9542  -16.9531 C   0  0  0  0  0  0  0  0  0  0  0  0
   37.5373   10.9349  -17.4368 C   0  0  0  0  0  0  0  0  0  0  0  0
   38.5391   11.6278  -16.8037 C   0  0  0  0  0  0  0  0  0  0  0  0
   38.2438   12.3672  -15.6540 C   0  0  0  0  0  0  0  0  0  0  0  0
   36.9568   12.3799  -15.1890 C   0  0  0  0  0  0  0  0  0  0  0  0
   38.4161   15.5164  -11.3747 C   0  0  0  0  0  0  0  0  0  0  0  0
   38.8762   15.3961  -12.6908 C   0  0  0  0  0  0  0  0  0  0  0  0
   38.1700   14.5674  -13.5271 C   0  0  0  0  0  0  0  0  0  0  0  0
   37.0562   13.8788  -13.1033 C   0  0  0  0  0  0  0  0  0  0  0  0
   36.5977   13.9921  -11.8103 C   0  0  0  0  0  0  0  0  0  0  0  0
   37.3001   14.8250  -10.9545 C   0  0  0  0  0  0  0  0  0  0  0  0
   39.1895   16.4230  -10.4585 C   0  0  0  0  0  0  0  0  0  0  0  0
   43.5531   17.2707   -6.4960 C   0  0  0  0  0  0  0  0  0  0  0  0
   43.6983   16.9218   -7.9283 C   0  0  0  0  0  0  0  0  0  0  0  0
   44.7088   17.3163   -8.5840 O   0  0  0  0  0  0  0  0  0  0  0  0
   42.7210   16.1473   -8.5906 N   0  0  0  0  0  0  0  0  0  0  0  0
   42.8347   15.7884   -9.9903 C   0  0  0  0  0  0  0  0  0  0  0  0
   41.5683   16.1897  -10.6663 C   0  0  0  0  0  0  0  0  0  0  0  0
   40.3768   15.7629  -10.0387 N   0  0  0  0  0  0  0  0  0  0  0  0
   40.4278   15.2741   -8.7227 C   0  0  0  0  0  0  0  0  0  0  0  0
   41.5695   15.6908   -7.8717 C   0  0  0  0  0  0  0  0  0  0  0  0
   39.9166   11.6530  -17.2581 C   0  0  0  0  0  0  0  0  0  0  0  0
   40.2367   11.0282  -18.3231 O   0  0  0  0  0  0  0  0  0  0  0  0
   40.8864   12.3668  -16.5178 N   0  0  0  0  0  0  0  0  0  0  0  0
   40.6282   12.8682  -15.6548 H   0  0  0  0  0  0  0  0  0  0  0  0
   42.2799   12.3888  -16.9847 C   0  0  0  0  0  0  0  0  0  0  0  0
   43.1239   12.9892  -15.8829 C   0  0  0  0  0  0  0  0  0  0  0  0
   44.4157   12.2852  -15.6370 C   0  0  0  0  0  0  0  0  0  0  0  0
   44.3955   13.6662  -16.1620 C   0  0  0  0  0  0  0  0  0  0  0  0
   42.3770   13.3798  -14.6637 C   0  0  0  0  0  0  0  0  0  0  0  0
   41.7894   13.6694  -13.7276 N   0  0  0  0  0  0  0  0  0  0  0  0
 17 18  1  0  0  0
 18 19  2  0  0  0
 18 20  1  0  0  0
 20 21  1  0  0  0
 21 22  1  0  0  0
 22 23  1  0  0  0
 23 16  1  0  0  0
 16 10  1  0  0  0
 10 11  2  0  0  0
 11 12  1  0  0  0
 12 13  2  0  0  0
 13 14  1  0  0  0
 14 15  2  0  0  0
 13  1  1  0  0  0
  1  2  2  0  0  0
  2  3  1  0  0  0
  3  4  1  0  0  0
  4  5  2  0  0  0
  5  6  1  0  0  0
  6  7  2  0  0  0
  7  8  1  0  0  0
  8  9  2  0  0  0
  7 26  1  0  0  0
 26 27  2  0  0  0
 26 28  1  0  0  0
 28 30  1  0  0  0
 30 31  1  0  0  0
 31 32  1  0  0  0
 32 33  1  0  0  0
 31 34  1  0  0  0
 34 35  3  0  0  0
 23 24  1  0  0  0
 24 25  1  0  0  0
 25 20  1  0  0  0
 15 10  1  0  0  0
  9  1  1  0  0  0
 33 31  1  0  0  0
  9  4  1  0  0  0
 28 29  1  0  0  0
M  END
> <minimizedAffinity>
-8.67424

> <CNNscore>
0.4893849790

> <CNNaffinity>
6.8285508156

> <CNN_VS>
3.3417901993

> <CNNaffinity_variance>
0.1436212957

$$$$
[H]c1oc2c([H])c([H])c(C(=O)N([H])C([H])([H])C3(C#N)C([H])([H])C3([H])[H])c([H])c2c1-c1c([H])c([H])c(C([H])([H])N2C([H])([H])C([H])([H])N(C(=O)C([H])([H])[H])C([H])([H])C2([H])[H])c([H])c1[H]


 35 39  0  0  0  0  0  0  0  0999 V2000
   36.8193   12.1623  -15.7825 C   0  0  0  0  0  0  0  0  0  0  0  0
   36.1769   11.3625  -16.7033 C   0  0  0  0  0  0  0  0  0  0  0  0
   37.0416   10.8869  -17.5397 O   0  0  0  0  0  0  0  0  0  0  0  0
   38.2614   11.3111  -17.2549 C   0  0  0  0  0  0  0  0  0  0  0  0
   39.4901   11.0903  -17.8345 C   0  0  0  0  0  0  0  0  0  0  0  0
   40.6199   11.7027  -17.2768 C   0  0  0  0  0  0  0  0  0  0  0  0
   40.5189   12.5115  -16.1721 C   0  0  0  0  0  0  0  0  0  0  0  0
   39.2656   12.7290  -15.5911 C   0  0  0  0  0  0  0  0  0  0  0  0
   38.1678   12.1264  -16.1429 C   0  0  0  0  0  0  0  0  0  0  0  0
   35.1776   14.1918  -12.4768 C   0  0  0  0  0  0  0  0  0  0  0  0
   36.2102   13.2672  -12.2841 C   0  0  0  0  0  0  0  0  0  0  0  0
   36.7042   12.6395  -13.4006 C   0  0  0  0  0  0  0  0  0  0  0  0
   36.2149   12.8982  -14.6608 C   0  0  0  0  0  0  0  0  0  0  0  0
   35.1993   13.8064  -14.8581 C   0  0  0  0  0  0  0  0  0  0  0  0
   34.6906   14.4480  -13.7405 C   0  0  0  0  0  0  0  0  0  0  0  0
   34.6358   14.8787  -11.2544 C   0  0  0  0  0  0  0  0  0  0  0  0
   35.4255   18.1919   -6.3697 C   0  0  0  0  0  0  0  0  0  0  0  0
   36.1299   18.3241   -7.6661 C   0  0  0  0  0  0  0  0  0  0  0  0
   36.5354   19.4582   -8.0615 O   0  0  0  0  0  0  0  0  0  0  0  0
   36.3640   17.1977   -8.4846 N   0  0  0  0  0  0  0  0  0  0  0  0
   37.0511   17.2941   -9.7572 C   0  0  0  0  0  0  0  0  0  0  0  0
   36.1921   16.6440  -10.7874 C   0  0  0  0  0  0  0  0  0  0  0  0
   35.7187   15.3527  -10.4644 N   0  0  0  0  0  0  0  0  0  0  0  0
   35.8180   14.8933   -9.1406 C   0  0  0  0  0  0  0  0  0  0  0  0
   35.9144   15.9058   -8.0603 C   0  0  0  0  0  0  0  0  0  0  0  0
   41.6485   13.1786  -15.5526 C   0  0  0  0  0  0  0  0  0  0  0  0
   41.5562   13.5754  -14.3439 O   0  0  0  0  0  0  0  0  0  0  0  0
   42.8353   13.3816  -16.2932 N   0  0  0  0  0  0  0  0  0  0  0  0
   42.9081   13.0646  -17.2714 H   0  0  0  0  0  0  0  0  0  0  0  0
   43.9761   14.0574  -15.6588 C   0  0  0  0  0  0  0  0  0  0  0  0
   45.0346   13.0126  -15.3856 C   0  0  0  0  0  0  0  0  0  0  0  0
   46.4033   13.5604  -15.1581 C   0  0  0  0  0  0  0  0  0  0  0  0
   45.6711   12.8795  -14.0702 C   0  0  0  0  0  0  0  0  0  0  0  0
   44.9720   11.8147  -16.2561 C   0  0  0  0  0  0  0  0  0  0  0  0
   44.9221   10.8814  -16.9135 N   0  0  0  0  0  0  0  0  0  0  0  0
 17 18  1  0  0  0
 18 19  2  0  0  0
 18 20  1  0  0  0
 20 21  1  0  0  0
 21 22  1  0  0  0
 22 23  1  0  0  0
 23 16  1  0  0  0
 16 10  1  0  0  0
 10 11  2  0  0  0
 11 12  1  0  0  0
 12 13  2  0  0  0
 13 14  1  0  0  0
 14 15  2  0  0  0
 13  1  1  0  0  0
  1  2  2  0  0  0
  2  3  1  0  0  0
  3  4  1  0  0  0
  4  5  2  0  0  0
  5  6  1  0  0  0
  6  7  2  0  0  0
  7  8  1  0  0  0
  8  9  2  0  0  0
  7 26  1  0  0  0
 26 27  2  0  0  0
 26 28  1  0  0  0
 28 30  1  0  0  0
 30 31  1  0  0  0
 31 32  1  0  0  0
 32 33  1  0  0  0
 31 34  1  0  0  0
 34 35  3  0  0  0
 23 24  1  0  0  0
 24 25  1  0  0  0
 25 20  1  0  0  0
 15 10  1  0  0  0
  9  1  1  0  0  0
 33 31  1  0  0  0
  9  4  1  0  0  0
 28 29  1  0  0  0
M  END
> <minimizedAffinity>
-8.75867

> <CNNscore>
0.4861631393

> <CNNaffinity>
6.6829862595

> <CNN_VS>
3.2490215302

> <CNNaffinity_variance>
0.0842580274

$$$$
[H]c1oc2c([H])c([H])c(C(=O)N([H])C([H])([H])C3(C#N)C([H])([H])C3([H])[H])c([H])c2c1-c1c([H])c([H])c(C([H])([H])N2C([H])([H])C([H])([H])N(C(=O)C([H])([H])[H])C([H])([H])C2([H])[H])c([H])c1[H]


 35 39  0  0  0  0  0  0  0  0999 V2000
   39.3454   11.8784  -16.7157 C   0  0  0  0  0  0  0  0  0  0  0  0
   39.3652   11.1791  -17.9035 C   0  0  0  0  0  0  0  0  0  0  0  0
   38.1658   10.7937  -18.1975 O   0  0  0  0  0  0  0  0  0  0  0  0
   37.3014   11.1862  -17.2769 C   0  0  0  0  0  0  0  0  0  0  0  0
   35.9410   11.0279  -17.1398 C   0  0  0  0  0  0  0  0  0  0  0  0
   35.3063   11.5795  -16.0193 C   0  0  0  0  0  0  0  0  0  0  0  0
   36.0154   12.2679  -15.0665 C   0  0  0  0  0  0  0  0  0  0  0  0
   37.3972   12.4229  -15.2157 C   0  0  0  0  0  0  0  0  0  0  0  0
   38.0083   11.8808  -16.3136 C   0  0  0  0  0  0  0  0  0  0  0  0
   42.7077   13.5665  -14.8217 C   0  0  0  0  0  0  0  0  0  0  0  0
   42.8706   12.8163  -15.9917 C   0  0  0  0  0  0  0  0  0  0  0  0
   41.7367   12.2934  -16.5625 C   0  0  0  0  0  0  0  0  0  0  0  0
   40.4878   12.4903  -16.0187 C   0  0  0  0  0  0  0  0  0  0  0  0
   40.3197   13.2270  -14.8681 C   0  0  0  0  0  0  0  0  0  0  0  0
   41.4550   13.7612  -14.2805 C   0  0  0  0  0  0  0  0  0  0  0  0
   43.9490   14.1384  -14.1959 C   0  0  0  0  0  0  0  0  0  0  0  0
   47.6307   13.9453   -9.5195 C   0  0  0  0  0  0  0  0  0  0  0  0
   47.7281   13.1575  -10.7701 C   0  0  0  0  0  0  0  0  0  0  0  0
   48.8602   12.8034  -11.2172 O   0  0  0  0  0  0  0  0  0  0  0  0
   46.5700   12.7857  -11.4873 N   0  0  0  0  0  0  0  0  0  0  0  0
   46.6320   12.0144  -12.7128 C   0  0  0  0  0  0  0  0  0  0  0  0
   45.8523   12.7473  -13.7506 C   0  0  0  0  0  0  0  0  0  0  0  0
   44.5539   13.1527  -13.3690 N   0  0  0  0  0  0  0  0  0  0  0  0
   44.1927   13.1204  -12.0119 C   0  0  0  0  0  0  0  0  0  0  0  0
   45.2795   13.1748  -11.0032 C   0  0  0  0  0  0  0  0  0  0  0  0
   35.4183   12.8558  -13.8822 C   0  0  0  0  0  0  0  0  0  0  0  0
   34.7857   12.1101  -13.0632 O   0  0  0  0  0  0  0  0  0  0  0  0
   35.5429   14.2445  -13.6497 N   0  0  0  0  0  0  0  0  0  0  0  0
   36.0505   14.8477  -14.3139 H   0  0  0  0  0  0  0  0  0  0  0  0
   34.9361   14.8331  -12.4472 C   0  0  0  0  0  0  0  0  0  0  0  0
   36.0571   15.2084  -11.5041 C   0  0  0  0  0  0  0  0  0  0  0  0
   35.7159   16.2882  -10.5332 C   0  0  0  0  0  0  0  0  0  0  0  0
   35.9934   14.9134  -10.0681 C   0  0  0  0  0  0  0  0  0  0  0  0
   37.3931   15.3270  -12.1347 C   0  0  0  0  0  0  0  0  0  0  0  0
   38.4302   15.4194  -12.6054 N   0  0  0  0  0  0  0  0  0  0  0  0
 17 18  1  0  0  0
 18 19  2  0  0  0
 18 20  1  0  0  0
 20 21  1  0  0  0
 21 22  1  0  0  0
 22 23  1  0  0  0
 23 16  1  0  0  0
 16 10  1  0  0  0
 10 11  2  0  0  0
 11 12  1  0  0  0
 12 13  2  0  0  0
 13 14  1  0  0  0
 14 15  2  0  0  0
 13  1  1  0  0  0
  1  2  2  0  0  0
  2  3  1  0  0  0
  3  4  1  0  0  0
  4  5  2  0  0  0
  5  6  1  0  0  0
  6  7  2  0  0  0
  7  8  1  0  0  0
  8  9  2  0  0  0
  7 26  1  0  0  0
 26 27  2  0  0  0
 26 28  1  0  0  0
 28 30  1  0  0  0
 30 31  1  0  0  0
 31 32  1  0  0  0
 32 33  1  0  0  0
 31 34  1  0  0  0
 34 35  3  0  0  0
 23 24  1  0  0  0
 24 25  1  0  0  0
 25 20  1  0  0  0
 15 10  1  0  0  0
  9  1  1  0  0  0
 33 31  1  0  0  0
  9  4  1  0  0  0
 28 29  1  0  0  0
M  END
> <minimizedAffinity>
-9.50457

> <CNNscore>
0.4698015749

> <CNNaffinity>
6.8193235397

> <CNN_VS>
3.2037289143

> <CNNaffinity_variance>
0.1045608893

$$$$
[H]c1oc2c([H])c([H])c(C(=O)N([H])C([H])([H])C3(C#N)C([H])([H])C3([H])[H])c([H])c2c1-c1c([H])c([H])c(C([H])([H])N2C([H])([H])C([H])([H])N(C(=O)C([H])([H])[H])C([H])([H])C2([H])[H])c([H])c1[H]


 35 39  0  0  0  0  0  0  0  0999 V2000
   37.1082   11.6924  -16.3754 C   0  0  0  0  0  0  0  0  0  0  0  0
   36.6032   10.7747  -17.2714 C   0  0  0  0  0  0  0  0  0  0  0  0
   35.3303   10.6422  -17.0823 O   0  0  0  0  0  0  0  0  0  0  0  0
   34.9125   11.4204  -16.0982 C   0  0  0  0  0  0  0  0  0  0  0  0
   33.6764   11.6336  -15.5314 C   0  0  0  0  0  0  0  0  0  0  0  0
   33.5658   12.5482  -14.4760 C   0  0  0  0  0  0  0  0  0  0  0  0
   34.6619   13.2271  -14.0045 C   0  0  0  0  0  0  0  0  0  0  0  0
   35.9131   13.0031  -14.5876 C   0  0  0  0  0  0  0  0  0  0  0  0
   36.0112   12.1079  -15.6181 C   0  0  0  0  0  0  0  0  0  0  0  0
   41.1375   12.8937  -16.1223 C   0  0  0  0  0  0  0  0  0  0  0  0
   40.7050   12.1310  -17.2129 C   0  0  0  0  0  0  0  0  0  0  0  0
   39.3803   11.7717  -17.2390 C   0  0  0  0  0  0  0  0  0  0  0  0
   38.5042   12.1384  -16.2428 C   0  0  0  0  0  0  0  0  0  0  0  0
   38.9223   12.8886  -15.1670 C   0  0  0  0  0  0  0  0  0  0  0  0
   40.2567   13.2589  -15.1268 C   0  0  0  0  0  0  0  0  0  0  0  0
   42.5881   13.2866  -16.0929 C   0  0  0  0  0  0  0  0  0  0  0  0
   44.9230   16.9900  -12.0564 C   0  0  0  0  0  0  0  0  0  0  0  0
   45.4303   15.6541  -12.4465 C   0  0  0  0  0  0  0  0  0  0  0  0
   46.6720   15.4030  -12.4028 O   0  0  0  0  0  0  0  0  0  0  0  0
   44.5481   14.6374  -12.8727 N   0  0  0  0  0  0  0  0  0  0  0  0
   45.0130   13.3202  -13.2596 C   0  0  0  0  0  0  0  0  0  0  0  0
   44.4534   13.0190  -14.6079 C   0  0  0  0  0  0  0  0  0  0  0  0
   43.0634   13.2249  -14.7544 N   0  0  0  0  0  0  0  0  0  0  0  0
   42.3673   13.9522  -13.7748 C   0  0  0  0  0  0  0  0  0  0  0  0
   43.1408   14.8969  -12.9317 C   0  0  0  0  0  0  0  0  0  0  0  0
   34.6139   14.1804  -12.9120 C   0  0  0  0  0  0  0  0  0  0  0  0
   35.7022   14.6577  -12.4485 O   0  0  0  0  0  0  0  0  0  0  0  0
   33.3656   14.5684  -12.3742 N   0  0  0  0  0  0  0  0  0  0  0  0
   32.4864   14.1793  -12.7462 H   0  0  0  0  0  0  0  0  0  0  0  0
   33.3245   15.5354  -11.2680 C   0  0  0  0  0  0  0  0  0  0  0  0
   31.9480   15.4634  -10.6460 C   0  0  0  0  0  0  0  0  0  0  0  0
   31.9420   15.1608   -9.1854 C   0  0  0  0  0  0  0  0  0  0  0  0
   31.4767   16.4700   -9.6881 C   0  0  0  0  0  0  0  0  0  0  0  0
   30.9369   14.7317  -11.4453 C   0  0  0  0  0  0  0  0  0  0  0  0
   30.1469   14.1677  -12.0482 N   0  0  0  0  0  0  0  0  0  0  0  0
 17 18  1  0  0  0
 18 19  2  0  0  0
 18 20  1  0  0  0
 20 21  1  0  0  0
 21 22  1  0  0  0
 22 23  1  0  0  0
 23 16  1  0  0  0
 16 10  1  0  0  0
 10 11  2  0  0  0
 11 12  1  0  0  0
 12 13  2  0  0  0
 13 14  1  0  0  0
 14 15  2  0  0  0
 13  1  1  0  0  0
  1  2  2  0  0  0
  2  3  1  0  0  0
  3  4  1  0  0  0
  4  5  2  0  0  0
  5  6  1  0  0  0
  6  7  2  0  0  0
  7  8  1  0  0  0
  8  9  2  0  0  0
  7 26  1  0  0  0
 26 27  2  0  0  0
 26 28  1  0  0  0
 28 30  1  0  0  0
 30 31  1  0  0  0
 31 32  1  0  0  0
 32 33  1  0  0  0
 31 34  1  0  0  0
 34 35  3  0  0  0
 23 24  1  0  0  0
 24 25  1  0  0  0
 25 20  1  0  0  0
 15 10  1  0  0  0
  9  1  1  0  0  0
 33 31  1  0  0  0
  9  4  1  0  0  0
 28 29  1  0  0  0
M  END
> <minimizedAffinity>
-9.71227

> <CNNscore>
0.4661925733

> <CNNaffinity>
6.8185930252

> <CNN_VS>
3.1787774563

> <CNNaffinity_variance>
0.0513017699

$$$$
[H]c1oc2c([H])c([H])c(C(=O)N([H])C([H])([H])C3(C#N)C([H])([H])C3([H])[H])c([H])c2c1-c1c([H])c([H])c(C([H])([H])N2C([H])([H])C([H])([H])N(C(=O)C([H])([H])[H])C([H])([H])C2([H])[H])c([H])c1[H]


 35 39  0  0  0  0  0  0  0  0999 V2000
   37.2845   12.0225  -15.5542 C   0  0  0  0  0  0  0  0  0  0  0  0
   36.5287   11.2179  -16.3799 C   0  0  0  0  0  0  0  0  0  0  0  0
   37.2499   10.8280  -17.3806 O   0  0  0  0  0  0  0  0  0  0  0  0
   38.4760   11.3170  -17.3020 C   0  0  0  0  0  0  0  0  0  0  0  0
   39.5876   11.1946  -18.1044 C   0  0  0  0  0  0  0  0  0  0  0  0
   40.7653   11.8559  -17.7325 C   0  0  0  0  0  0  0  0  0  0  0  0
   40.8247   12.6163  -16.5911 C   0  0  0  0  0  0  0  0  0  0  0  0
   39.6895   12.7338  -15.7829 C   0  0  0  0  0  0  0  0  0  0  0  0
   38.5437   12.0841  -16.1543 C   0  0  0  0  0  0  0  0  0  0  0  0
   36.1409   14.0208  -12.0271 C   0  0  0  0  0  0  0  0  0  0  0  0
   36.9339   14.6780  -12.9743 C   0  0  0  0  0  0  0  0  0  0  0  0
   37.2723   13.9742  -14.1035 C   0  0  0  0  0  0  0  0  0  0  0  0
   36.8569   12.6781  -14.3082 C   0  0  0  0  0  0  0  0  0  0  0  0
   36.0767   12.0252  -13.3810 C   0  0  0  0  0  0  0  0  0  0  0  0
   35.7270   12.7228  -12.2362 C   0  0  0  0  0  0  0  0  0  0  0  0
   35.7709   14.7908  -10.7902 C   0  0  0  0  0  0  0  0  0  0  0  0
   30.0011   14.2738   -9.4109 C   0  0  0  0  0  0  0  0  0  0  0  0
   30.5828   14.5435  -10.7462 C   0  0  0  0  0  0  0  0  0  0  0  0
   29.9970   14.1360  -11.7939 O   0  0  0  0  0  0  0  0  0  0  0  0
   31.7945   15.2557  -10.8810 N   0  0  0  0  0  0  0  0  0  0  0  0
   32.3884   15.5365  -12.1730 C   0  0  0  0  0  0  0  0  0  0  0  0
   33.8028   15.0676  -12.1342 C   0  0  0  0  0  0  0  0  0  0  0  0
   34.5620   15.5014  -11.0246 N   0  0  0  0  0  0  0  0  0  0  0  0
   33.9054   16.0658   -9.9184 C   0  0  0  0  0  0  0  0  0  0  0  0
   32.4760   15.7254   -9.7122 C   0  0  0  0  0  0  0  0  0  0  0  0
   42.0105   13.3299  -16.1560 C   0  0  0  0  0  0  0  0  0  0  0  0
   42.4143   14.3396  -16.8226 O   0  0  0  0  0  0  0  0  0  0  0  0
   42.7040   12.8995  -15.0018 N   0  0  0  0  0  0  0  0  0  0  0  0
   42.3798   12.0808  -14.4656 H   0  0  0  0  0  0  0  0  0  0  0  0
   43.9041   13.6278  -14.5663 C   0  0  0  0  0  0  0  0  0  0  0  0
   45.1103   12.8188  -14.9875 C   0  0  0  0  0  0  0  0  0  0  0  0
   46.4209   13.4928  -14.7570 C   0  0  0  0  0  0  0  0  0  0  0  0
   46.0568   12.2717  -14.0088 C   0  0  0  0  0  0  0  0  0  0  0  0
   44.9773   12.1289  -16.2925 C   0  0  0  0  0  0  0  0  0  0  0  0
   44.8606   11.6057  -17.3016 N   0  0  0  0  0  0  0  0  0  0  0  0
 17 18  1  0  0  0
 18 19  2  0  0  0
 18 20  1  0  0  0
 20 21  1  0  0  0
 21 22  1  0  0  0
 22 23  1  0  0  0
 23 16  1  0  0  0
 16 10  1  0  0  0
 10 11  2  0  0  0
 11 12  1  0  0  0
 12 13  2  0  0  0
 13 14  1  0  0  0
 14 15  2  0  0  0
 13  1  1  0  0  0
  1  2  2  0  0  0
  2  3  1  0  0  0
  3  4  1  0  0  0
  4  5  2  0  0  0
  5  6  1  0  0  0
  6  7  2  0  0  0
  7  8  1  0  0  0
  8  9  2  0  0  0
  7 26  1  0  0  0
 26 27  2  0  0  0
 26 28  1  0  0  0
 28 30  1  0  0  0
 30 31  1  0  0  0
 31 32  1  0  0  0
 32 33  1  0  0  0
 31 34  1  0  0  0
 34 35  3  0  0  0
 23 24  1  0  0  0
 24 25  1  0  0  0
 25 20  1  0  0  0
 15 10  1  0  0  0
  9  1  1  0  0  0
 33 31  1  0  0  0
  9  4  1  0  0  0
 28 29  1  0  0  0
M  END
> <minimizedAffinity>
-9.04084

> <CNNscore>
0.4454559982

> <CNNaffinity>
6.9569525719

> <CNN_VS>
3.0990161896

> <CNNaffinity_variance>
0.1313737780

$$$$
[H]c1oc2c([H])c([H])c(C(=O)N([H])C([H])([H])C3(C#N)C([H])([H])C3([H])[H])c([H])c2c1-c1c([H])c([H])c(C([H])([H])N2C([H])([H])C([H])([H])N(C(=O)C([H])([H])[H])C([H])([H])C2([H])[H])c([H])c1[H]


 35 39  0  0  0  0  0  0  0  0999 V2000
   39.1248   11.7712  -16.8996 C   0  0  0  0  0  0  0  0  0  0  0  0
   39.0925   11.0666  -18.0840 C   0  0  0  0  0  0  0  0  0  0  0  0
   37.8778   10.6987  -18.3344 O   0  0  0  0  0  0  0  0  0  0  0  0
   37.0521   11.1084  -17.3863 C   0  0  0  0  0  0  0  0  0  0  0  0
   35.6950   10.9719  -17.2012 C   0  0  0  0  0  0  0  0  0  0  0  0
   35.1083   11.5380  -16.0620 C   0  0  0  0  0  0  0  0  0  0  0  0
   35.8605   12.2194  -15.1377 C   0  0  0  0  0  0  0  0  0  0  0  0
   37.2385   12.3523  -15.3355 C   0  0  0  0  0  0  0  0  0  0  0  0
   37.8026   11.7960  -16.4514 C   0  0  0  0  0  0  0  0  0  0  0  0
   42.5770   13.4093  -15.1275 C   0  0  0  0  0  0  0  0  0  0  0  0
   42.6931   12.6073  -16.2683 C   0  0  0  0  0  0  0  0  0  0  0  0
   41.5318   12.1039  -16.8000 C   0  0  0  0  0  0  0  0  0  0  0  0
   40.3000   12.3682  -16.2456 C   0  0  0  0  0  0  0  0  0  0  0  0
   40.1779   13.1561  -15.1235 C   0  0  0  0  0  0  0  0  0  0  0  0
   41.3414   13.6714  -14.5756 C   0  0  0  0  0  0  0  0  0  0  0  0
   43.8485   13.9599  -14.5445 C   0  0  0  0  0  0  0  0  0  0  0  0
   47.0331   15.9461   -9.9213 C   0  0  0  0  0  0  0  0  0  0  0  0
   46.0904   14.8035   -9.9357 C   0  0  0  0  0  0  0  0  0  0  0  0
   46.2795   13.8080   -9.1741 O   0  0  0  0  0  0  0  0  0  0  0  0
   44.9679   14.7979  -10.7921 N   0  0  0  0  0  0  0  0  0  0  0  0
   44.0269   13.6961  -10.8286 C   0  0  0  0  0  0  0  0  0  0  0  0
   43.8878   13.2646  -12.2486 C   0  0  0  0  0  0  0  0  0  0  0  0
   43.6317   14.2955  -13.1800 N   0  0  0  0  0  0  0  0  0  0  0  0
   43.8144   15.6338  -12.7945 C   0  0  0  0  0  0  0  0  0  0  0  0
   44.7333   15.9105  -11.6628 C   0  0  0  0  0  0  0  0  0  0  0  0
   35.3141   12.8216  -13.9363 C   0  0  0  0  0  0  0  0  0  0  0  0
   34.7386   12.0822  -13.0707 O   0  0  0  0  0  0  0  0  0  0  0  0
   35.4243   14.2169  -13.7387 N   0  0  0  0  0  0  0  0  0  0  0  0
   35.8857   14.8148  -14.4404 H   0  0  0  0  0  0  0  0  0  0  0  0
   34.8692   14.8200  -12.5186 C   0  0  0  0  0  0  0  0  0  0  0  0
   36.0240   15.1274  -11.5920 C   0  0  0  0  0  0  0  0  0  0  0  0
   35.7841   16.2651  -10.6575 C   0  0  0  0  0  0  0  0  0  0  0  0
   35.9431   14.8878  -10.1466 C   0  0  0  0  0  0  0  0  0  0  0  0
   37.3617   15.1072  -12.2299 C   0  0  0  0  0  0  0  0  0  0  0  0
   38.3886   15.1053  -12.7309 N   0  0  0  0  0  0  0  0  0  0  0  0
 17 18  1  0  0  0
 18 19  2  0  0  0
 18 20  1  0  0  0
 20 21  1  0  0  0
 21 22  1  0  0  0
 22 23  1  0  0  0
 23 16  1  0  0  0
 16 10  1  0  0  0
 10 11  2  0  0  0
 11 12  1  0  0  0
 12 13  2  0  0  0
 13 14  1  0  0  0
 14 15  2  0  0  0
 13  1  1  0  0  0
  1  2  2  0  0  0
  2  3  1  0  0  0
  3  4  1  0  0  0
  4  5  2  0  0  0
  5  6  1  0  0  0
  6  7  2  0  0  0
  7  8  1  0  0  0
  8  9  2  0  0  0
  7 26  1  0  0  0
 26 27  2  0  0  0
 26 28  1  0  0  0
 28 30  1  0  0  0
 30 31  1  0  0  0
 31 32  1  0  0  0
 32 33  1  0  0  0
 31 34  1  0  0  0
 34 35  3  0  0  0
 23 24  1  0  0  0
 24 25  1  0  0  0
 25 20  1  0  0  0
 15 10  1  0  0  0
  9  1  1  0  0  0
 33 31  1  0  0  0
  9  4  1  0  0  0
 28 29  1  0  0  0
M  END
> <minimizedAffinity>
-9.48933

> <CNNscore>
0.4451086819

> <CNNaffinity>
6.8576240540

> <CNN_VS>
3.0523879528

> <CNNaffinity_variance>
0.0770242214

$$$$
[H]c1nc2c([H])c(OC([H])([H])C([H])([H])C([H])([H])N3C([H])([H])C([H])([H])N(C([H])([H])[H])C([H])([H])C3([H])[H])c(OC([H])([H])[H])c([H])c2c(N([H])[C@@]2([H])C([H])([H])[C@@]([H])(C([H])([H])C([H])([H])[H])C2(C([H])([H])[H])C([H])([H])[H])c1C#N


 35 38  0  0  0  0  0  0  0  0999 V2000
   39.2029   11.9771  -16.0583 C   0  0  0  0  0  0  0  0  0  0  0  0
   39.0755   11.3719  -17.2776 C   0  0  0  0  0  0  0  0  0  0  0  0
   40.1832   11.3887  -18.1322 C   0  0  0  0  0  0  0  0  0  0  0  0
   41.3213   11.9792  -17.7562 N   0  0  0  0  0  0  0  0  0  0  0  0
   41.4417   12.5788  -16.5411 C   0  0  0  0  0  0  0  0  0  0  0  0
   42.6447   13.1765  -16.1966 C   0  0  0  0  0  0  0  0  0  0  0  0
   42.8402   13.7972  -14.9891 C   0  0  0  0  0  0  0  0  0  0  0  0
   41.7302   13.7921  -14.1089 C   0  0  0  0  0  0  0  0  0  0  0  0
   40.5390   13.2085  -14.4334 C   0  0  0  0  0  0  0  0  0  0  0  0
   40.3900   12.5959  -15.6586 C   0  0  0  0  0  0  0  0  0  0  0  0
   38.1277   12.0140  -15.1614 N   0  0  0  0  0  0  0  0  0  0  0  0
   38.1229   11.2634  -14.4080 H   0  0  0  0  0  0  0  0  0  0  0  0
   35.2078   13.6558  -14.5857 C   0  0  0  0  0  0  0  0  0  0  0  0
   35.6739   12.5131  -15.5185 C   0  0  0  0  0  0  0  0  0  0  0  0
   37.0695   12.9502  -15.1769 C   0  0  0  0  0  0  0  0  0  0  0  0
   36.5025   13.3675  -13.8126 C   0  0  0  0  0  0  0  0  0  0  0  0
   37.1641   14.5930  -13.2426 C   0  0  0  0  0  0  0  0  0  0  0  0
   36.4294   12.2413  -12.8376 C   0  0  0  0  0  0  0  0  0  0  0  0
   33.5408   14.5893  -13.0520 C   0  0  0  0  0  0  0  0  0  0  0  0
   33.9452   13.3457  -13.8531 C   0  0  0  0  0  0  0  0  0  0  0  0
   41.9384   14.4234  -12.8908 O   0  0  0  0  0  0  0  0  0  0  0  0
   41.2074   15.6004  -12.6177 C   0  0  0  0  0  0  0  0  0  0  0  0
   37.8818   10.7042  -17.7219 C   0  0  0  0  0  0  0  0  0  0  0  0
   36.9443   10.1596  -18.0864 N   0  0  0  0  0  0  0  0  0  0  0  0
   43.9958   14.3944  -14.5975 O   0  0  0  0  0  0  0  0  0  0  0  0
   45.3122   14.0709  -14.6725 C   0  0  0  0  0  0  0  0  0  0  0  0
   46.0622   13.8560  -13.3923 C   0  0  0  0  0  0  0  0  0  0  0  0
   45.7989   14.9132  -12.3667 C   0  0  0  0  0  0  0  0  0  0  0  0
   45.4164   14.4551  -11.0802 N   0  0  0  0  0  0  0  0  0  0  0  0
   45.0579   15.5110  -10.1675 C   0  0  0  0  0  0  0  0  0  0  0  0
   43.6031   15.4189   -9.8384 C   0  0  0  0  0  0  0  0  0  0  0  0
   43.2704   14.2001   -9.1230 N   0  0  0  0  0  0  0  0  0  0  0  0
   43.6441   14.3698   -7.7106 C   0  0  0  0  0  0  0  0  0  0  0  0
   43.9989   13.0626   -9.6537 C   0  0  0  0  0  0  0  0  0  0  0  0
   44.5233   13.3439  -11.0472 C   0  0  0  0  0  0  0  0  0  0  0  0
 19 20  1  0  0  0
 20 13  1  0  0  0
 13 14  1  0  0  0
 14 15  1  0  0  0
 15 11  1  0  0  0
 11  1  1  0  0  0
  1  2  2  0  0  0
  2  3  1  0  0  0
  3  4  2  0  0  0
  4  5  1  0  0  0
  5  6  2  0  0  0
  6  7  1  0  0  0
  7 25  1  0  0  0
 25 26  1  0  0  0
 26 27  1  0  0  0
 27 28  1  0  0  0
 28 29  1  0  0  0
 29 30  1  0  0  0
 30 31  1  0  0  0
 31 32  1  0  0  0
 32 33  1  0  0  0
 32 34  1  0  0  0
 34 35  1  0  0  0
  7  8  2  0  0  0
  8 21  1  0  0  0
 21 22  1  0  0  0
  8  9  1  0  0  0
  9 10  2  0  0  0
  2 23  1  0  0  0
 23 24  3  0  0  0
 15 16  1  0  0  0
 16 17  1  0  0  0
 16 18  1  0  0  0
 16 13  1  0  0  0
 10  1  1  0  0  0
 10  5  1  0  0  0
 35 29  1  0  0  0
 11 12  1  0  0  0
M  END
> <minimizedAffinity>
-7.07588

> <CNNscore>
0.7199924588

> <CNNaffinity>
7.6018958092

> <CNN_VS>
5.4733076096

> <CNNaffinity_variance>
0.1228794605

$$$$
[H]c1nc2c([H])c(OC([H])([H])C([H])([H])C([H])([H])N3C([H])([H])C([H])([H])N(C([H])([H])[H])C([H])([H])C3([H])[H])c(OC([H])([H])[H])c([H])c2c(N([H])[C@@]2([H])C([H])([H])[C@@]([H])(C([H])([H])C([H])([H])[H])C2(C([H])([H])[H])C([H])([H])[H])c1C#N


 35 38  0  0  0  0  0  0  0  0999 V2000
   37.0488   11.6414  -15.8668 C   0  0  0  0  0  0  0  0  0  0  0  0
   36.4576   10.9687  -16.8998 C   0  0  0  0  0  0  0  0  0  0  0  0
   37.2281   10.7196  -18.0409 C   0  0  0  0  0  0  0  0  0  0  0  0
   38.4978   11.1305  -18.1051 N   0  0  0  0  0  0  0  0  0  0  0  0
   39.0804   11.7987  -17.0732 C   0  0  0  0  0  0  0  0  0  0  0  0
   40.4021   12.2026  -17.1875 C   0  0  0  0  0  0  0  0  0  0  0  0
   41.0556   12.8776  -16.1882 C   0  0  0  0  0  0  0  0  0  0  0  0
   40.2927   13.1407  -15.0238 C   0  0  0  0  0  0  0  0  0  0  0  0
   38.9905   12.7501  -14.8960 C   0  0  0  0  0  0  0  0  0  0  0  0
   38.3761   12.0734  -15.9271 C   0  0  0  0  0  0  0  0  0  0  0  0
   36.3298   11.9409  -14.7027 N   0  0  0  0  0  0  0  0  0  0  0  0
   36.4633   11.2718  -13.8870 H   0  0  0  0  0  0  0  0  0  0  0  0
   34.2957   14.3214  -13.3805 C   0  0  0  0  0  0  0  0  0  0  0  0
   34.1320   12.8559  -13.8483 C   0  0  0  0  0  0  0  0  0  0  0  0
   35.4582   13.0394  -14.5285 C   0  0  0  0  0  0  0  0  0  0  0  0
   35.7995   14.0123  -13.3910 C   0  0  0  0  0  0  0  0  0  0  0  0
   36.6609   15.1648  -13.8317 C   0  0  0  0  0  0  0  0  0  0  0  0
   36.3221   13.3304  -12.1719 C   0  0  0  0  0  0  0  0  0  0  0  0
   32.3950   15.3517  -12.2278 C   0  0  0  0  0  0  0  0  0  0  0  0
   33.7080   14.5833  -12.0339 C   0  0  0  0  0  0  0  0  0  0  0  0
   40.9630   13.8247  -14.0196 O   0  0  0  0  0  0  0  0  0  0  0  0
   40.3817   15.0108  -13.5200 C   0  0  0  0  0  0  0  0  0  0  0  0
   35.1031   10.4862  -16.8732 C   0  0  0  0  0  0  0  0  0  0  0  0
   34.0201   10.1181  -16.8652 N   0  0  0  0  0  0  0  0  0  0  0  0
   42.3476   13.2933  -16.2437 O   0  0  0  0  0  0  0  0  0  0  0  0
   43.5546   12.6785  -16.1501 C   0  0  0  0  0  0  0  0  0  0  0  0
   44.7099   13.4663  -15.6096 C   0  0  0  0  0  0  0  0  0  0  0  0
   44.4269   14.0993  -14.2836 C   0  0  0  0  0  0  0  0  0  0  0  0
   44.4408   13.2326  -13.1612 N   0  0  0  0  0  0  0  0  0  0  0  0
   45.7205   12.6177  -12.9145 C   0  0  0  0  0  0  0  0  0  0  0  0
   46.2791   13.1204  -11.6227 C   0  0  0  0  0  0  0  0  0  0  0  0
   45.4714   12.7349  -10.4795 N   0  0  0  0  0  0  0  0  0  0  0  0
   45.7771   11.3366  -10.1408 C   0  0  0  0  0  0  0  0  0  0  0  0
   44.0547   12.8321  -10.7792 C   0  0  0  0  0  0  0  0  0  0  0  0
   43.8041   13.7193  -11.9817 C   0  0  0  0  0  0  0  0  0  0  0  0
 19 20  1  0  0  0
 20 13  1  0  0  0
 13 14  1  0  0  0
 14 15  1  0  0  0
 15 11  1  0  0  0
 11  1  1  0  0  0
  1  2  2  0  0  0
  2  3  1  0  0  0
  3  4  2  0  0  0
  4  5  1  0  0  0
  5  6  2  0  0  0
  6  7  1  0  0  0
  7 25  1  0  0  0
 25 26  1  0  0  0
 26 27  1  0  0  0
 27 28  1  0  0  0
 28 29  1  0  0  0
 29 30  1  0  0  0
 30 31  1  0  0  0
 31 32  1  0  0  0
 32 33  1  0  0  0
 32 34  1  0  0  0
 34 35  1  0  0  0
  7  8  2  0  0  0
  8 21  1  0  0  0
 21 22  1  0  0  0
  8  9  1  0  0  0
  9 10  2  0  0  0
  2 23  1  0  0  0
 23 24  3  0  0  0
 15 16  1  0  0  0
 16 17  1  0  0  0
 16 18  1  0  0  0
 16 13  1  0  0  0
 10  1  1  0  0  0
 10  5  1  0  0  0
 35 29  1  0  0  0
 11 12  1  0  0  0
M  END
> <minimizedAffinity>
-7.57693

> <CNNscore>
0.7184022665

> <CNNaffinity>
7.5663957596

> <CNN_VS>
5.4357156754

> <CNNaffinity_variance>
0.0154570267

$$$$
[H]c1nc2c([H])c(OC([H])([H])C([H])([H])C([H])([H])N3C([H])([H])C([H])([H])N(C([H])([H])[H])C([H])([H])C3([H])[H])c(OC([H])([H])[H])c([H])c2c(N([H])[C@@]2([H])C([H])([H])[C@@]([H])(C([H])([H])C([H])([H])[H])C2(C([H])([H])[H])C([H])([H])[H])c1C#N


 35 38  0  0  0  0  0  0  0  0999 V2000
   37.3109   11.6460  -16.0009 C   0  0  0  0  0  0  0  0  0  0  0  0
   36.7668   10.9077  -17.0149 C   0  0  0  0  0  0  0  0  0  0  0  0
   37.5701   10.6385  -18.1284 C   0  0  0  0  0  0  0  0  0  0  0  0
   38.8251   11.0933  -18.1854 N   0  0  0  0  0  0  0  0  0  0  0  0
   39.3608   11.8267  -17.1726 C   0  0  0  0  0  0  0  0  0  0  0  0
   40.6691   12.2743  -17.2784 C   0  0  0  0  0  0  0  0  0  0  0  0
   41.2761   13.0157  -16.2969 C   0  0  0  0  0  0  0  0  0  0  0  0
   40.4793   13.3002  -15.1606 C   0  0  0  0  0  0  0  0  0  0  0  0
   39.1897   12.8672  -15.0415 C   0  0  0  0  0  0  0  0  0  0  0  0
   38.6226   12.1242  -16.0538 C   0  0  0  0  0  0  0  0  0  0  0  0
   36.5567   11.9685  -14.8655 N   0  0  0  0  0  0  0  0  0  0  0  0
   36.7135   11.3543  -14.0117 H   0  0  0  0  0  0  0  0  0  0  0  0
   34.1267   14.0921  -13.7988 C   0  0  0  0  0  0  0  0  0  0  0  0
   34.1680   12.7309  -14.5328 C   0  0  0  0  0  0  0  0  0  0  0  0
   35.6225   13.0238  -14.7656 C   0  0  0  0  0  0  0  0  0  0  0  0
   35.5849   13.7829  -13.4317 C   0  0  0  0  0  0  0  0  0  0  0  0
   36.4823   14.9906  -13.4084 C   0  0  0  0  0  0  0  0  0  0  0  0
   35.7733   12.8974  -12.2465 C   0  0  0  0  0  0  0  0  0  0  0  0
   33.1323   15.5480  -12.0977 C   0  0  0  0  0  0  0  0  0  0  0  0
   33.1722   14.1187  -12.6519 C   0  0  0  0  0  0  0  0  0  0  0  0
   41.1026   14.0515  -14.1743 O   0  0  0  0  0  0  0  0  0  0  0  0
   40.3351   15.0197  -13.4905 C   0  0  0  0  0  0  0  0  0  0  0  0
   35.4305   10.3767  -16.9939 C   0  0  0  0  0  0  0  0  0  0  0  0
   34.3661    9.9596  -16.9568 N   0  0  0  0  0  0  0  0  0  0  0  0
   42.5530   13.4765  -16.3450 O   0  0  0  0  0  0  0  0  0  0  0  0
   43.7786   12.9153  -16.1826 C   0  0  0  0  0  0  0  0  0  0  0  0
   44.4347   13.0250  -14.8391 C   0  0  0  0  0  0  0  0  0  0  0  0
   44.8231   14.4252  -14.4819 C   0  0  0  0  0  0  0  0  0  0  0  0
   44.8313   14.7384  -13.0988 N   0  0  0  0  0  0  0  0  0  0  0  0
   44.7321   16.1486  -12.8192 C   0  0  0  0  0  0  0  0  0  0  0  0
   43.4336   16.4359  -12.1376 C   0  0  0  0  0  0  0  0  0  0  0  0
   43.3383   15.8056  -10.8332 N   0  0  0  0  0  0  0  0  0  0  0  0
   44.0972   16.6137   -9.8665 C   0  0  0  0  0  0  0  0  0  0  0  0
   43.9025   14.4686  -10.8521 C   0  0  0  0  0  0  0  0  0  0  0  0
   44.0024   13.9312  -12.2652 C   0  0  0  0  0  0  0  0  0  0  0  0
 19 20  1  0  0  0
 20 13  1  0  0  0
 13 14  1  0  0  0
 14 15  1  0  0  0
 15 11  1  0  0  0
 11  1  1  0  0  0
  1  2  2  0  0  0
  2  3  1  0  0  0
  3  4  2  0  0  0
  4  5  1  0  0  0
  5  6  2  0  0  0
  6  7  1  0  0  0
  7 25  1  0  0  0
 25 26  1  0  0  0
 26 27  1  0  0  0
 27 28  1  0  0  0
 28 29  1  0  0  0
 29 30  1  0  0  0
 30 31  1  0  0  0
 31 32  1  0  0  0
 32 33  1  0  0  0
 32 34  1  0  0  0
 34 35  1  0  0  0
  7  8  2  0  0  0
  8 21  1  0  0  0
 21 22  1  0  0  0
  8  9  1  0  0  0
  9 10  2  0  0  0
  2 23  1  0  0  0
 23 24  3  0  0  0
 15 16  1  0  0  0
 16 17  1  0  0  0
 16 18  1  0  0  0
 16 13  1  0  0  0
 10  1  1  0  0  0
 10  5  1  0  0  0
 35 29  1  0  0  0
 11 12  1  0  0  0
M  END
> <minimizedAffinity>
-7.79955

> <CNNscore>
0.6981952786

> <CNNaffinity>
7.5855932236

> <CNN_VS>
5.2962255478

> <CNNaffinity_variance>
0.0206753220

$$$$
[H]c1nc2c([H])c(OC([H])([H])C([H])([H])C([H])([H])N3C([H])([H])C([H])([H])N(C([H])([H])[H])C([H])([H])C3([H])[H])c(OC([H])([H])[H])c([H])c2c(N([H])[C@@]2([H])C([H])([H])[C@@]([H])(C([H])([H])C([H])([H])[H])C2(C([H])([H])[H])C([H])([H])[H])c1C#N


 35 38  0  0  0  0  0  0  0  0999 V2000
   39.2049   11.9413  -16.0526 C   0  0  0  0  0  0  0  0  0  0  0  0
   39.0207   11.3408  -17.2670 C   0  0  0  0  0  0  0  0  0  0  0  0
   40.0965   11.3365  -18.1616 C   0  0  0  0  0  0  0  0  0  0  0  0
   41.2593   11.9033  -17.8271 N   0  0  0  0  0  0  0  0  0  0  0  0
   41.4363   12.4984  -16.6166 C   0  0  0  0  0  0  0  0  0  0  0  0
   42.6630   13.0711  -16.3159 C   0  0  0  0  0  0  0  0  0  0  0  0
   42.9151   13.6857  -15.1159 C   0  0  0  0  0  0  0  0  0  0  0  0
   41.8382   13.7017  -14.1957 C   0  0  0  0  0  0  0  0  0  0  0  0
   40.6244   13.1428  -14.4767 C   0  0  0  0  0  0  0  0  0  0  0  0
   40.4182   12.5353  -15.6962 C   0  0  0  0  0  0  0  0  0  0  0  0
   38.1643   11.9985  -15.1168 N   0  0  0  0  0  0  0  0  0  0  0  0
   38.1779   11.2533  -14.3582 H   0  0  0  0  0  0  0  0  0  0  0  0
   35.2696   13.6615  -14.4780 C   0  0  0  0  0  0  0  0  0  0  0  0
   35.7150   12.5384  -15.4443 C   0  0  0  0  0  0  0  0  0  0  0  0
   37.1182   12.9482  -15.1003 C   0  0  0  0  0  0  0  0  0  0  0  0
   36.5653   13.3359  -13.7216 C   0  0  0  0  0  0  0  0  0  0  0  0
   37.2463   14.5371  -13.1233 C   0  0  0  0  0  0  0  0  0  0  0  0
   36.4837   12.1849  -12.7767 C   0  0  0  0  0  0  0  0  0  0  0  0
   33.5929   14.5947  -12.9548 C   0  0  0  0  0  0  0  0  0  0  0  0
   34.0077   13.3480  -13.7457 C   0  0  0  0  0  0  0  0  0  0  0  0
   42.1036   14.3267  -12.9854 O   0  0  0  0  0  0  0  0  0  0  0  0
   41.4229   15.5291  -12.6940 C   0  0  0  0  0  0  0  0  0  0  0  0
   37.7982   10.6981  -17.6678 C   0  0  0  0  0  0  0  0  0  0  0  0
   36.8174   10.2060  -17.9906 N   0  0  0  0  0  0  0  0  0  0  0  0
   44.0961   14.2588  -14.7664 O   0  0  0  0  0  0  0  0  0  0  0  0
   45.3812   13.8282  -14.6871 C   0  0  0  0  0  0  0  0  0  0  0  0
   46.4438   14.8304  -14.3493 C   0  0  0  0  0  0  0  0  0  0  0  0
   46.5159   15.1479  -12.8888 C   0  0  0  0  0  0  0  0  0  0  0  0
   46.6209   16.5214  -12.5518 N   0  0  0  0  0  0  0  0  0  0  0  0
   47.9776   16.9840  -12.4040 C   0  0  0  0  0  0  0  0  0  0  0  0
   48.2935   17.9686  -13.4829 C   0  0  0  0  0  0  0  0  0  0  0  0
   47.4922   19.1755  -13.3871 N   0  0  0  0  0  0  0  0  0  0  0  0
   48.0681   20.0378  -12.3439 C   0  0  0  0  0  0  0  0  0  0  0  0
   46.1217   18.8697  -13.0203 C   0  0  0  0  0  0  0  0  0  0  0  0
   45.7895   17.4159  -13.2883 C   0  0  0  0  0  0  0  0  0  0  0  0
 19 20  1  0  0  0
 20 13  1  0  0  0
 13 14  1  0  0  0
 14 15  1  0  0  0
 15 11  1  0  0  0
 11  1  1  0  0  0
  1  2  2  0  0  0
  2  3  1  0  0  0
  3  4  2  0  0  0
  4  5  1  0  0  0
  5  6  2  0  0  0
  6  7  1  0  0  0
  7 25  1  0  0  0
 25 26  1  0  0  0
 26 27  1  0  0  0
 27 28  1  0  0  0
 28 29  1  0  0  0
 29 30  1  0  0  0
 30 31  1  0  0  0
 31 32  1  0  0  0
 32 33  1  0  0  0
 32 34  1  0  0  0
 34 35  1  0  0  0
  7  8  2  0  0  0
  8 21  1  0  0  0
 21 22  1  0  0  0
  8  9  1  0  0  0
  9 10  2  0  0  0
  2 23  1  0  0  0
 23 24  3  0  0  0
 15 16  1  0  0  0
 16 17  1  0  0  0
 16 18  1  0  0  0
 16 13  1  0  0  0
 10  1  1  0  0  0
 10  5  1  0  0  0
 35 29  1  0  0  0
 11 12  1  0  0  0
M  END
> <minimizedAffinity>
-7.33778

> <CNNscore>
0.6928815246

> <CNNaffinity>
7.3583083153

> <CNN_VS>
5.0984358788

> <CNNaffinity_variance>
0.1916580498

$$$$
[H]c1nc2c([H])c(OC([H])([H])C([H])([H])C([H])([H])N3C([H])([H])C([H])([H])N(C([H])([H])[H])C([H])([H])C3([H])[H])c(OC([H])([H])[H])c([H])c2c(N([H])[C@@]2([H])C([H])([H])[C@@]([H])(C([H])([H])C([H])([H])[H])C2(C([H])([H])[H])C([H])([H])[H])c1C#N


 35 38  0  0  0  0  0  0  0  0999 V2000
   39.2549   12.0237  -16.0031 C   0  0  0  0  0  0  0  0  0  0  0  0
   39.1155   11.4205  -17.2221 C   0  0  0  0  0  0  0  0  0  0  0  0
   40.2184   11.4283  -18.0829 C   0  0  0  0  0  0  0  0  0  0  0  0
   41.3636   12.0089  -17.7130 N   0  0  0  0  0  0  0  0  0  0  0  0
   41.4960   12.6066  -16.4982 C   0  0  0  0  0  0  0  0  0  0  0  0
   42.7060   13.1938  -16.1602 C   0  0  0  0  0  0  0  0  0  0  0  0
   42.9137   13.8120  -14.9534 C   0  0  0  0  0  0  0  0  0  0  0  0
   41.8086   13.8159  -14.0670 C   0  0  0  0  0  0  0  0  0  0  0  0
   40.6107   13.2426  -14.3850 C   0  0  0  0  0  0  0  0  0  0  0  0
   40.4495   12.6321  -15.6098 C   0  0  0  0  0  0  0  0  0  0  0  0
   38.1851   12.0692  -15.1001 N   0  0  0  0  0  0  0  0  0  0  0  0
   38.1840   11.3247  -14.3407 H   0  0  0  0  0  0  0  0  0  0  0  0
   35.2492   13.6943  -14.5599 C   0  0  0  0  0  0  0  0  0  0  0  0
   35.7436   12.5828  -15.5156 C   0  0  0  0  0  0  0  0  0  0  0  0
   37.1280   13.0066  -15.1169 C   0  0  0  0  0  0  0  0  0  0  0  0
   36.5194   13.3788  -13.7575 C   0  0  0  0  0  0  0  0  0  0  0  0
   37.1633   14.5838  -13.1268 C   0  0  0  0  0  0  0  0  0  0  0  0
   36.4162   12.2207  -12.8234 C   0  0  0  0  0  0  0  0  0  0  0  0
   33.5755   14.5484  -12.9877 C   0  0  0  0  0  0  0  0  0  0  0  0
   33.9646   13.3613  -13.8772 C   0  0  0  0  0  0  0  0  0  0  0  0
   42.0291   14.4445  -12.8497 O   0  0  0  0  0  0  0  0  0  0  0  0
   41.4528   15.7172  -12.6440 C   0  0  0  0  0  0  0  0  0  0  0  0
   37.9136   10.7633  -17.6600 C   0  0  0  0  0  0  0  0  0  0  0  0
   36.9695   10.2268  -18.0194 N   0  0  0  0  0  0  0  0  0  0  0  0
   44.0764   14.3990  -14.5680 O   0  0  0  0  0  0  0  0  0  0  0  0
   45.3930   14.1106  -14.7313 C   0  0  0  0  0  0  0  0  0  0  0  0
   46.2024   13.7839  -13.5125 C   0  0  0  0  0  0  0  0  0  0  0  0
   45.6094   12.6883  -12.6837 C   0  0  0  0  0  0  0  0  0  0  0  0
   46.4962   12.0238  -11.7986 N   0  0  0  0  0  0  0  0  0  0  0  0
   45.9261   10.8618  -11.1649 C   0  0  0  0  0  0  0  0  0  0  0  0
   46.6318    9.6331  -11.6397 C   0  0  0  0  0  0  0  0  0  0  0  0
   48.0288    9.6059  -11.2451 N   0  0  0  0  0  0  0  0  0  0  0  0
   48.1095    9.1854   -9.8379 C   0  0  0  0  0  0  0  0  0  0  0  0
   48.6349   10.9193  -11.3638 C   0  0  0  0  0  0  0  0  0  0  0  0
   47.8255   11.8210  -12.2734 C   0  0  0  0  0  0  0  0  0  0  0  0
 19 20  1  0  0  0
 20 13  1  0  0  0
 13 14  1  0  0  0
 14 15  1  0  0  0
 15 11  1  0  0  0
 11  1  1  0  0  0
  1  2  2  0  0  0
  2  3  1  0  0  0
  3  4  2  0  0  0
  4  5  1  0  0  0
  5  6  2  0  0  0
  6  7  1  0  0  0
  7 25  1  0  0  0
 25 26  1  0  0  0
 26 27  1  0  0  0
 27 28  1  0  0  0
 28 29  1  0  0  0
 29 30  1  0  0  0
 30 31  1  0  0  0
 31 32  1  0  0  0
 32 33  1  0  0  0
 32 34  1  0  0  0
 34 35  1  0  0  0
  7  8  2  0  0  0
  8 21  1  0  0  0
 21 22  1  0  0  0
  8  9  1  0  0  0
  9 10  2  0  0  0
  2 23  1  0  0  0
 23 24  3  0  0  0
 15 16  1  0  0  0
 16 17  1  0  0  0
 16 18  1  0  0  0
 16 13  1  0  0  0
 10  1  1  0  0  0
 10  5  1  0  0  0
 35 29  1  0  0  0
 11 12  1  0  0  0
M  END
> <minimizedAffinity>
-7.63578

> <CNNscore>
0.5531226993

> <CNNaffinity>
7.2774772644

> <CNN_VS>
4.0253376961

> <CNNaffinity_variance>
0.1008377299

$$$$
[H]c1nc2c([H])c(OC([H])([H])C([H])([H])C([H])([H])N3C([H])([H])C([H])([H])N(C([H])([H])[H])C([H])([H])C3([H])[H])c(OC([H])([H])[H])c([H])c2c(N([H])[C@@]2([H])C([H])([H])[C@@]([H])(C([H])([H])C([H])([H])[H])C2(C([H])([H])[H])C([H])([H])[H])c1C#N


 35 38  0  0  0  0  0  0  0  0999 V2000
   38.4497   12.6017  -15.9085 C   0  0  0  0  0  0  0  0  0  0  0  0
   38.9149   11.7689  -16.8880 C   0  0  0  0  0  0  0  0  0  0  0  0
   40.2994   11.6915  -17.0741 C   0  0  0  0  0  0  0  0  0  0  0  0
   41.1277   12.4122  -16.3126 N   0  0  0  0  0  0  0  0  0  0  0  0
   40.6584   13.2384  -15.3391 C   0  0  0  0  0  0  0  0  0  0  0  0
   41.5589   13.9641  -14.5739 C   0  0  0  0  0  0  0  0  0  0  0  0
   41.1595   14.8141  -13.5742 C   0  0  0  0  0  0  0  0  0  0  0  0
   39.7607   14.9077  -13.3698 C   0  0  0  0  0  0  0  0  0  0  0  0
   38.8612   14.2002  -14.1148 C   0  0  0  0  0  0  0  0  0  0  0  0
   39.3101   13.3577  -15.1084 C   0  0  0  0  0  0  0  0  0  0  0  0
   37.0748   12.7418  -15.6810 N   0  0  0  0  0  0  0  0  0  0  0  0
   36.4348   12.2941  -16.4028 H   0  0  0  0  0  0  0  0  0  0  0  0
   34.8576   14.0397  -13.4557 C   0  0  0  0  0  0  0  0  0  0  0  0
   35.4326   14.4658  -14.8272 C   0  0  0  0  0  0  0  0  0  0  0  0
   36.4814   13.4172  -14.5910 C   0  0  0  0  0  0  0  0  0  0  0  0
   35.4030   12.6498  -13.8132 C   0  0  0  0  0  0  0  0  0  0  0  0
   35.9481   11.8827  -12.6391 C   0  0  0  0  0  0  0  0  0  0  0  0
   34.5240   11.8225  -14.6891 C   0  0  0  0  0  0  0  0  0  0  0  0
   33.0131   14.9898  -12.1527 C   0  0  0  0  0  0  0  0  0  0  0  0
   33.3707   14.1408  -13.3788 C   0  0  0  0  0  0  0  0  0  0  0  0
   39.3675   15.7709  -12.3569 O   0  0  0  0  0  0  0  0  0  0  0  0
   38.1695   15.4845  -11.6663 C   0  0  0  0  0  0  0  0  0  0  0  0
   38.0687   10.9562  -17.7196 C   0  0  0  0  0  0  0  0  0  0  0  0
   37.3997   10.2931  -18.3685 N   0  0  0  0  0  0  0  0  0  0  0  0
   41.9955   15.5454  -12.7922 O   0  0  0  0  0  0  0  0  0  0  0  0
   42.8873   15.2527  -11.8112 C   0  0  0  0  0  0  0  0  0  0  0  0
   44.3026   14.9563  -12.2068 C   0  0  0  0  0  0  0  0  0  0  0  0
   44.7809   15.7818  -13.3596 C   0  0  0  0  0  0  0  0  0  0  0  0
   45.5471   15.1019  -14.3403 N   0  0  0  0  0  0  0  0  0  0  0  0
   46.9482   15.4385  -14.3228 C   0  0  0  0  0  0  0  0  0  0  0  0
   47.7472   14.2441  -13.9126 C   0  0  0  0  0  0  0  0  0  0  0  0
   47.6532   13.1562  -14.8694 N   0  0  0  0  0  0  0  0  0  0  0  0
   48.5498   13.4473  -15.9985 C   0  0  0  0  0  0  0  0  0  0  0  0
   46.3023   13.0220  -15.3829 C   0  0  0  0  0  0  0  0  0  0  0  0
   45.2971   13.7047  -14.4778 C   0  0  0  0  0  0  0  0  0  0  0  0
 19 20  1  0  0  0
 20 13  1  0  0  0
 13 14  1  0  0  0
 14 15  1  0  0  0
 15 11  1  0  0  0
 11  1  1  0  0  0
  1  2  2  0  0  0
  2  3  1  0  0  0
  3  4  2  0  0  0
  4  5  1  0  0  0
  5  6  2  0  0  0
  6  7  1  0  0  0
  7 25  1  0  0  0
 25 26  1  0  0  0
 26 27  1  0  0  0
 27 28  1  0  0  0
 28 29  1  0  0  0
 29 30  1  0  0  0
 30 31  1  0  0  0
 31 32  1  0  0  0
 32 33  1  0  0  0
 32 34  1  0  0  0
 34 35  1  0  0  0
  7  8  2  0  0  0
  8 21  1  0  0  0
 21 22  1  0  0  0
  8  9  1  0  0  0
  9 10  2  0  0  0
  2 23  1  0  0  0
 23 24  3  0  0  0
 15 16  1  0  0  0
 16 17  1  0  0  0
 16 18  1  0  0  0
 16 13  1  0  0  0
 10  1  1  0  0  0
 10  5  1  0  0  0
 35 29  1  0  0  0
 11 12  1  0  0  0
M  END
> <minimizedAffinity>
-7.22015

> <CNNscore>
0.3617136180

> <CNNaffinity>
7.1346917152

> <CNN_VS>
2.5807151794

> <CNNaffinity_variance>
0.0391757935

$$$$
[H]c1nc2c([H])c(OC([H])([H])C([H])([H])C([H])([H])N3C([H])([H])C([H])([H])N(C([H])([H])[H])C([H])([H])C3([H])[H])c(OC([H])([H])[H])c([H])c2c(N([H])[C@@]2([H])C([H])([H])[C@@]([H])(C([H])([H])C([H])([H])[H])C2(C([H])([H])[H])C([H])([H])[H])c1C#N


 35 38  0  0  0  0  0  0  0  0999 V2000
   34.4960   15.4996  -11.3945 C   0  0  0  0  0  0  0  0  0  0  0  0
   35.6979   15.8348  -10.8357 C   0  0  0  0  0  0  0  0  0  0  0  0
   35.6994   16.2701   -9.5060 C   0  0  0  0  0  0  0  0  0  0  0  0
   34.5574   16.3500   -8.8170 N   0  0  0  0  0  0  0  0  0  0  0  0
   33.3649   16.0140   -9.3787 C   0  0  0  0  0  0  0  0  0  0  0  0
   32.2074   16.1122   -8.6212 C   0  0  0  0  0  0  0  0  0  0  0  0
   30.9710   15.7886   -9.1192 C   0  0  0  0  0  0  0  0  0  0  0  0
   30.9472   15.3462  -10.4647 C   0  0  0  0  0  0  0  0  0  0  0  0
   32.0778   15.2445  -11.2239 C   0  0  0  0  0  0  0  0  0  0  0  0
   33.2983   15.5803  -10.6797 C   0  0  0  0  0  0  0  0  0  0  0  0
   34.4194   15.0744  -12.7269 N   0  0  0  0  0  0  0  0  0  0  0  0
   34.5164   15.8338  -13.4650 H   0  0  0  0  0  0  0  0  0  0  0  0
   34.3864   12.2011  -14.5423 C   0  0  0  0  0  0  0  0  0  0  0  0
   33.4931   13.4600  -14.4396 C   0  0  0  0  0  0  0  0  0  0  0  0
   34.2274   13.7434  -13.1606 C   0  0  0  0  0  0  0  0  0  0  0  0
   35.4341   13.0532  -13.8119 C   0  0  0  0  0  0  0  0  0  0  0  0
   36.2791   12.2831  -12.8335 C   0  0  0  0  0  0  0  0  0  0  0  0
   36.2353   13.9652  -14.6782 C   0  0  0  0  0  0  0  0  0  0  0  0
   33.9410   10.5704  -16.3157 C   0  0  0  0  0  0  0  0  0  0  0  0
   34.7314   11.8317  -15.9464 C   0  0  0  0  0  0  0  0  0  0  0  0
   29.6915   15.0224  -10.9588 O   0  0  0  0  0  0  0  0  0  0  0  0
   29.6044   14.5141  -12.2734 C   0  0  0  0  0  0  0  0  0  0  0  0
   36.9567   15.7463  -11.5256 C   0  0  0  0  0  0  0  0  0  0  0  0
   37.9533   15.6559  -12.0796 N   0  0  0  0  0  0  0  0  0  0  0  0
   29.8067   15.8616   -8.4232 O   0  0  0  0  0  0  0  0  0  0  0  0
   29.4017   15.4568   -7.1922 C   0  0  0  0  0  0  0  0  0  0  0  0
   29.1471   16.5048   -6.1509 C   0  0  0  0  0  0  0  0  0  0  0  0
   28.7926   17.8393   -6.7275 C   0  0  0  0  0  0  0  0  0  0  0  0
   29.6048   18.9301   -6.3253 N   0  0  0  0  0  0  0  0  0  0  0  0
   30.7752   18.5422   -5.5795 C   0  0  0  0  0  0  0  0  0  0  0  0
   32.0030   18.8570   -6.3712 C   0  0  0  0  0  0  0  0  0  0  0  0
   32.1745   20.2821   -6.5894 N   0  0  0  0  0  0  0  0  0  0  0  0
   32.7331   20.8787   -5.3665 C   0  0  0  0  0  0  0  0  0  0  0  0
   30.9059   20.9276   -6.8731 C   0  0  0  0  0  0  0  0  0  0  0  0
   29.8619   19.9229   -7.3162 C   0  0  0  0  0  0  0  0  0  0  0  0
 19 20  1  0  0  0
 20 13  1  0  0  0
 13 14  1  0  0  0
 14 15  1  0  0  0
 15 11  1  0  0  0
 11  1  1  0  0  0
  1  2  2  0  0  0
  2  3  1  0  0  0
  3  4  2  0  0  0
  4  5  1  0  0  0
  5  6  2  0  0  0
  6  7  1  0  0  0
  7 25  1  0  0  0
 25 26  1  0  0  0
 26 27  1  0  0  0
 27 28  1  0  0  0
 28 29  1  0  0  0
 29 30  1  0  0  0
 30 31  1  0  0  0
 31 32  1  0  0  0
 32 33  1  0  0  0
 32 34  1  0  0  0
 34 35  1  0  0  0
  7  8  2  0  0  0
  8 21  1  0  0  0
 21 22  1  0  0  0
  8  9  1  0  0  0
  9 10  2  0  0  0
  2 23  1  0  0  0
 23 24  3  0  0  0
 15 16  1  0  0  0
 16 17  1  0  0  0
 16 18  1  0  0  0
 16 13  1  0  0  0
 10  1  1  0  0  0
 10  5  1  0  0  0
 35 29  1  0  0  0
 11 12  1  0  0  0
M  END
> <minimizedAffinity>
-7.95714

> <CNNscore>
0.3554612994

> <CNNaffinity>
6.6798882484

> <CNN_VS>
2.3744418621

> <CNNaffinity_variance>
0.2952817082

$$$$
[H]c1nc2c([H])c(OC([H])([H])C([H])([H])C([H])([H])N3C([H])([H])C([H])([H])N(C([H])([H])[H])C([H])([H])C3([H])[H])c(OC([H])([H])[H])c([H])c2c(N([H])[C@@]2([H])C([H])([H])[C@@]([H])(C([H])([H])C([H])([H])[H])C2(C([H])([H])[H])C([H])([H])[H])c1C#N


 35 38  0  0  0  0  0  0  0  0999 V2000
   38.5028   12.4399  -16.0428 C   0  0  0  0  0  0  0  0  0  0  0  0
   38.9182   11.6689  -17.0926 C   0  0  0  0  0  0  0  0  0  0  0  0
   40.2903   11.6197  -17.3622 C   0  0  0  0  0  0  0  0  0  0  0  0
   41.1545   12.3076  -16.6103 N   0  0  0  0  0  0  0  0  0  0  0  0
   40.7346   13.0722  -15.5664 C   0  0  0  0  0  0  0  0  0  0  0  0
   41.6711   13.7658  -14.8147 C   0  0  0  0  0  0  0  0  0  0  0  0
   41.3224   14.5536  -13.7474 C   0  0  0  0  0  0  0  0  0  0  0  0
   39.9371   14.6178  -13.4580 C   0  0  0  0  0  0  0  0  0  0  0  0
   39.0026   13.9413  -14.1886 C   0  0  0  0  0  0  0  0  0  0  0  0
   39.4010   13.1612  -15.2522 C   0  0  0  0  0  0  0  0  0  0  0  0
   37.1422   12.5495  -15.7291 N   0  0  0  0  0  0  0  0  0  0  0  0
   36.4742   12.0093  -16.3558 H   0  0  0  0  0  0  0  0  0  0  0  0
   35.0202   14.0493  -13.5380 C   0  0  0  0  0  0  0  0  0  0  0  0
   35.5809   14.3773  -14.9420 C   0  0  0  0  0  0  0  0  0  0  0  0
   36.5965   13.3056  -14.6674 C   0  0  0  0  0  0  0  0  0  0  0  0
   35.5080   12.6226  -13.8274 C   0  0  0  0  0  0  0  0  0  0  0  0
   36.0501   11.9021  -12.6227 C   0  0  0  0  0  0  0  0  0  0  0  0
   34.5818   11.7809  -14.6385 C   0  0  0  0  0  0  0  0  0  0  0  0
   33.2334   15.0474  -12.1914 C   0  0  0  0  0  0  0  0  0  0  0  0
   33.5398   14.2091  -13.4384 C   0  0  0  0  0  0  0  0  0  0  0  0
   39.5952   15.4182  -12.3771 O   0  0  0  0  0  0  0  0  0  0  0  0
   38.2786   15.3302  -11.8742 C   0  0  0  0  0  0  0  0  0  0  0  0
   38.0330   10.8929  -17.9187 C   0  0  0  0  0  0  0  0  0  0  0  0
   37.3424   10.2778  -18.5919 N   0  0  0  0  0  0  0  0  0  0  0  0
   42.1954   15.2510  -12.9749 O   0  0  0  0  0  0  0  0  0  0  0  0
   42.9984   14.9440  -11.9241 C   0  0  0  0  0  0  0  0  0  0  0  0
   44.2657   14.1914  -12.1980 C   0  0  0  0  0  0  0  0  0  0  0  0
   44.9922   14.6768  -13.4128 C   0  0  0  0  0  0  0  0  0  0  0  0
   45.9009   15.7470  -13.2121 N   0  0  0  0  0  0  0  0  0  0  0  0
   45.4595   16.9997  -13.7712 C   0  0  0  0  0  0  0  0  0  0  0  0
   45.1926   17.9751  -12.6709 C   0  0  0  0  0  0  0  0  0  0  0  0
   46.3919   18.3182  -11.9280 N   0  0  0  0  0  0  0  0  0  0  0  0
   47.1564   19.3063  -12.7043 C   0  0  0  0  0  0  0  0  0  0  0  0
   47.2326   17.1537  -11.7186 C   0  0  0  0  0  0  0  0  0  0  0  0
   46.4516   15.8684  -11.9024 C   0  0  0  0  0  0  0  0  0  0  0  0
 19 20  1  0  0  0
 20 13  1  0  0  0
 13 14  1  0  0  0
 14 15  1  0  0  0
 15 11  1  0  0  0
 11  1  1  0  0  0
  1  2  2  0  0  0
  2  3  1  0  0  0
  3  4  2  0  0  0
  4  5  1  0  0  0
  5  6  2  0  0  0
  6  7  1  0  0  0
  7 25  1  0  0  0
 25 26  1  0  0  0
 26 27  1  0  0  0
 27 28  1  0  0  0
 28 29  1  0  0  0
 29 30  1  0  0  0
 30 31  1  0  0  0
 31 32  1  0  0  0
 32 33  1  0  0  0
 32 34  1  0  0  0
 34 35  1  0  0  0
  7  8  2  0  0  0
  8 21  1  0  0  0
 21 22  1  0  0  0
  8  9  1  0  0  0
  9 10  2  0  0  0
  2 23  1  0  0  0
 23 24  3  0  0  0
 15 16  1  0  0  0
 16 17  1  0  0  0
 16 18  1  0  0  0
 16 13  1  0  0  0
 10  1  1  0  0  0
 10  5  1  0  0  0
 35 29  1  0  0  0
 11 12  1  0  0  0
M  END
> <minimizedAffinity>
-6.96999

> <CNNscore>
0.3447507322

> <CNNaffinity>
7.0698270798

> <CNN_VS>
2.4373281002

> <CNNaffinity_variance>
0.0811845809

$$$$
[H]c1nc2c([H])c(OC([H])([H])C([H])([H])C([H])([H])N3C([H])([H])C([H])([H])N(C([H])([H])[H])C([H])([H])C3([H])[H])c(OC([H])([H])[H])c([H])c2c(N([H])[C@@]2([H])C([H])([H])[C@@]([H])(C([H])([H])C([H])([H])[H])C2(C([H])([H])[H])C([H])([H])[H])c1C#N


 35 38  0  0  0  0  0  0  0  0999 V2000
   38.5525   12.6801  -15.8538 C   0  0  0  0  0  0  0  0  0  0  0  0
   39.0739   11.8704  -16.8242 C   0  0  0  0  0  0  0  0  0  0  0  0
   40.4653   11.8387  -16.9680 C   0  0  0  0  0  0  0  0  0  0  0  0
   41.2462   12.5794  -16.1763 N   0  0  0  0  0  0  0  0  0  0  0  0
   40.7210   13.3824  -15.2120 C   0  0  0  0  0  0  0  0  0  0  0  0
   41.5738   14.1304  -14.4143 C   0  0  0  0  0  0  0  0  0  0  0  0
   41.1168   14.9592  -13.4215 C   0  0  0  0  0  0  0  0  0  0  0  0
   39.7102   15.0065  -13.2597 C   0  0  0  0  0  0  0  0  0  0  0  0
   38.8572   14.2765  -14.0371 C   0  0  0  0  0  0  0  0  0  0  0  0
   39.3632   13.4568  -15.0222 C   0  0  0  0  0  0  0  0  0  0  0  0
   37.1674   12.7744  -15.6678 N   0  0  0  0  0  0  0  0  0  0  0  0
   36.5650   12.2855  -16.3951 H   0  0  0  0  0  0  0  0  0  0  0  0
   34.8421   14.0407  -13.5367 C   0  0  0  0  0  0  0  0  0  0  0  0
   35.4370   14.4536  -14.9038 C   0  0  0  0  0  0  0  0  0  0  0  0
   36.5190   13.4538  -14.6121 C   0  0  0  0  0  0  0  0  0  0  0  0
   35.4505   12.6647  -13.8424 C   0  0  0  0  0  0  0  0  0  0  0  0
   35.9930   11.9504  -12.6341 C   0  0  0  0  0  0  0  0  0  0  0  0
   34.6284   11.7808  -14.7182 C   0  0  0  0  0  0  0  0  0  0  0  0
   32.9257   14.8263  -12.2279 C   0  0  0  0  0  0  0  0  0  0  0  0
   33.3508   14.0849  -13.5013 C   0  0  0  0  0  0  0  0  0  0  0  0
   39.2586   15.8485  -12.2534 O   0  0  0  0  0  0  0  0  0  0  0  0
   38.2019   15.3972  -11.4325 C   0  0  0  0  0  0  0  0  0  0  0  0
   38.2802   11.0377  -17.6872 C   0  0  0  0  0  0  0  0  0  0  0  0
   37.6523   10.3890  -18.3895 N   0  0  0  0  0  0  0  0  0  0  0  0
   41.9046   15.7105  -12.6090 O   0  0  0  0  0  0  0  0  0  0  0  0
   43.0771   15.5040  -11.9564 C   0  0  0  0  0  0  0  0  0  0  0  0
   43.1403   15.8299  -10.4945 C   0  0  0  0  0  0  0  0  0  0  0  0
   43.0234   14.6261   -9.6135 C   0  0  0  0  0  0  0  0  0  0  0  0
   42.1014   14.7236   -8.5404 N   0  0  0  0  0  0  0  0  0  0  0  0
   42.7037   15.0971   -7.2857 C   0  0  0  0  0  0  0  0  0  0  0  0
   42.2150   16.4487   -6.8760 C   0  0  0  0  0  0  0  0  0  0  0  0
   40.7884   16.4667   -6.6068 N   0  0  0  0  0  0  0  0  0  0  0  0
   40.5582   15.9071   -5.2662 C   0  0  0  0  0  0  0  0  0  0  0  0
   40.0609   15.6594   -7.5688 C   0  0  0  0  0  0  0  0  0  0  0  0
   40.8837   15.4123   -8.8169 C   0  0  0  0  0  0  0  0  0  0  0  0
 19 20  1  0  0  0
 20 13  1  0  0  0
 13 14  1  0  0  0
 14 15  1  0  0  0
 15 11  1  0  0  0
 11  1  1  0  0  0
  1  2  2  0  0  0
  2  3  1  0  0  0
  3  4  2  0  0  0
  4  5  1  0  0  0
  5  6  2  0  0  0
  6  7  1  0  0  0
  7 25  1  0  0  0
 25 26  1  0  0  0
 26 27  1  0  0  0
 27 28  1  0  0  0
 28 29  1  0  0  0
 29 30  1  0  0  0
 30 31  1  0  0  0
 31 32  1  0  0  0
 32 33  1  0  0  0
 32 34  1  0  0  0
 34 35  1  0  0  0
  7  8  2  0  0  0
  8 21  1  0  0  0
 21 22  1  0  0  0
  8  9  1  0  0  0
  9 10  2  0  0  0
  2 23  1  0  0  0
 23 24  3  0  0  0
 15 16  1  0  0  0
 16 17  1  0  0  0
 16 18  1  0  0  0
 16 13  1  0  0  0
 10  1  1  0  0  0
 10  5  1  0  0  0
 35 29  1  0  0  0
 11 12  1  0  0  0
M  END
> <minimizedAffinity>
-6.93350

> <CNNscore>
0.3274944723

> <CNNaffinity>
6.9156084061

> <CNN_VS>
2.2648234367

> <CNNaffinity_variance>
0.0865827054

$$$$
[H]c1nc([H])c(C([H])([H])N([H])c2c(-c3c([H])c([H])c(C([H])([H])N4C([H])([H])C([H])([H])N(C([H])([H])[H])C([H])([H])C4([H])[H])c([H])c3[H])c([H])nc3c([H])c([H])c(C(=O)N([H])[H])c([H])c23)c([H])c1[H]


 38 42  0  0  0  0  0  0  0  0999 V2000
   39.9628   12.5330  -15.8377 C   0  0  0  0  0  0  0  0  0  0  0  0
   40.1876   11.8011  -17.0321 C   0  0  0  0  0  0  0  0  0  0  0  0
   39.1326   11.2334  -17.6288 N   0  0  0  0  0  0  0  0  0  0  0  0
   37.8867   11.3362  -17.1365 C   0  0  0  0  0  0  0  0  0  0  0  0
   36.8687   10.7191  -17.8360 C   0  0  0  0  0  0  0  0  0  0  0  0
   35.6023   10.8493  -17.3128 C   0  0  0  0  0  0  0  0  0  0  0  0
   35.3176   11.5444  -16.1626 C   0  0  0  0  0  0  0  0  0  0  0  0
   36.3778   12.1479  -15.4944 C   0  0  0  0  0  0  0  0  0  0  0  0
   37.6558   12.0438  -15.9784 C   0  0  0  0  0  0  0  0  0  0  0  0
   38.7240   12.6571  -15.3124 C   0  0  0  0  0  0  0  0  0  0  0  0
   43.4232   14.2349  -13.9930 C   0  0  0  0  0  0  0  0  0  0  0  0
   43.5242   13.4601  -15.1392 C   0  0  0  0  0  0  0  0  0  0  0  0
   42.4065   12.9258  -15.7398 C   0  0  0  0  0  0  0  0  0  0  0  0
   41.1193   13.1366  -15.2266 C   0  0  0  0  0  0  0  0  0  0  0  0
   41.0359   13.8955  -14.1052 C   0  0  0  0  0  0  0  0  0  0  0  0
   42.1633   14.4469  -13.4820 C   0  0  0  0  0  0  0  0  0  0  0  0
   44.6606   14.7996  -13.3837 C   0  0  0  0  0  0  0  0  0  0  0  0
   47.3122   14.3119   -8.9991 C   0  0  0  0  0  0  0  0  0  0  0  0
   47.0637   15.1196  -10.1549 N   0  0  0  0  0  0  0  0  0  0  0  0
   45.8203   15.8658  -10.0896 C   0  0  0  0  0  0  0  0  0  0  0  0
   45.2238   16.0227  -11.4922 C   0  0  0  0  0  0  0  0  0  0  0  0
   44.6580   14.7640  -11.9538 N   0  0  0  0  0  0  0  0  0  0  0  0
   45.6193   13.7298  -11.5345 C   0  0  0  0  0  0  0  0  0  0  0  0
   47.0072   14.3235  -11.3545 C   0  0  0  0  0  0  0  0  0  0  0  0
   33.9508   11.6536  -15.6495 C   0  0  0  0  0  0  0  0  0  0  0  0
   33.6985   12.5724  -14.6057 N   0  0  0  0  0  0  0  0  0  0  0  0
   33.0477   10.9591  -16.1199 O   0  0  0  0  0  0  0  0  0  0  0  0
   33.3043   12.3019  -13.6839 H   0  0  0  0  0  0  0  0  0  0  0  0
   33.9176   13.5751  -14.7632 H   0  0  0  0  0  0  0  0  0  0  0  0
   38.4312   13.3536  -14.1514 N   0  0  0  0  0  0  0  0  0  0  0  0
   38.9274   14.3110  -14.0698 H   0  0  0  0  0  0  0  0  0  0  0  0
   37.5864   13.0113  -13.0560 C   0  0  0  0  0  0  0  0  0  0  0  0
   37.0358   14.2518  -12.4083 C   0  0  0  0  0  0  0  0  0  0  0  0
   35.6945   14.4489  -12.1731 C   0  0  0  0  0  0  0  0  0  0  0  0
   35.2310   15.6182  -11.5688 C   0  0  0  0  0  0  0  0  0  0  0  0
   36.1375   16.5869  -11.2043 C   0  0  0  0  0  0  0  0  0  0  0  0
   37.4618   16.3919  -11.4367 N   0  0  0  0  0  0  0  0  0  0  0  0
   37.9097   15.2453  -12.0285 C   0  0  0  0  0  0  0  0  0  0  0  0
 18 19  1  0  0  0
 19 20  1  0  0  0
 20 21  1  0  0  0
 21 22  1  0  0  0
 22 17  1  0  0  0
 17 11  1  0  0  0
 11 12  2  0  0  0
 12 13  1  0  0  0
 13 14  2  0  0  0
 14 15  1  0  0  0
 15 16  2  0  0  0
 14  1  1  0  0  0
  1  2  2  0  0  0
  2  3  1  0  0  0
  3  4  2  0  0  0
  4  5  1  0  0  0
  5  6  2  0  0  0
  6  7  1  0  0  0
  7  8  2  0  0  0
  8  9  1  0  0  0
  9 10  2  0  0  0
 10 30  1  0  0  0
 30 32  1  0  0  0
 32 33  1  0  0  0
 33 34  2  0  0  0
 34 35  1  0  0  0
 35 36  2  0  0  0
 36 37  1  0  0  0
 37 38  2  0  0  0
  7 25  1  0  0  0
 25 26  1  0  0  0
 25 27  2  0  0  0
 22 23  1  0  0  0
 23 24  1  0  0  0
 24 19  1  0  0  0
 16 11  1  0  0  0
 10  1  1  0  0  0
 38 33  1  0  0  0
  9  4  1  0  0  0
 30 31  1  0  0  0
 26 28  1  0  0  0
 26 29  1  0  0  0
M  END
> <minimizedAffinity>
-9.61191

> <CNNscore>
0.6920813918

> <CNNaffinity>
7.4640030861

> <CNN_VS>
5.1656975746

> <CNNaffinity_variance>
0.1191896349

$$$$
[H]c1nc([H])c(C([H])([H])N([H])c2c(-c3c([H])c([H])c(C([H])([H])N4C([H])([H])C([H])([H])N(C([H])([H])[H])C([H])([H])C4([H])[H])c([H])c3[H])c([H])nc3c([H])c([H])c(C(=O)N([H])[H])c([H])c23)c([H])c1[H]


 38 42  0  0  0  0  0  0  0  0999 V2000
   39.9180   15.2165  -12.7675 C   0  0  0  0  0  0  0  0  0  0  0  0
   39.2280   15.9636  -11.7781 C   0  0  0  0  0  0  0  0  0  0  0  0
   37.9023   15.8068  -11.6837 N   0  0  0  0  0  0  0  0  0  0  0  0
   37.2176   14.9748  -12.4864 C   0  0  0  0  0  0  0  0  0  0  0  0
   35.8529   14.8820  -12.2982 C   0  0  0  0  0  0  0  0  0  0  0  0
   35.1798   14.0150  -13.1288 C   0  0  0  0  0  0  0  0  0  0  0  0
   35.7879   13.2630  -14.1043 C   0  0  0  0  0  0  0  0  0  0  0  0
   37.1647   13.3925  -14.2543 C   0  0  0  0  0  0  0  0  0  0  0  0
   37.8758   14.2444  -13.4500 C   0  0  0  0  0  0  0  0  0  0  0  0
   39.2630   14.3709  -13.5931 C   0  0  0  0  0  0  0  0  0  0  0  0
   44.1607   15.7265  -12.8839 C   0  0  0  0  0  0  0  0  0  0  0  0
   43.5781   14.4826  -13.0776 C   0  0  0  0  0  0  0  0  0  0  0  0
   42.2107   14.3239  -13.0546 C   0  0  0  0  0  0  0  0  0  0  0  0
   41.3446   15.4042  -12.8359 C   0  0  0  0  0  0  0  0  0  0  0  0
   41.9283   16.6142  -12.6474 C   0  0  0  0  0  0  0  0  0  0  0  0
   43.3180   16.7927  -12.6682 C   0  0  0  0  0  0  0  0  0  0  0  0
   45.6453   15.8506  -12.9266 C   0  0  0  0  0  0  0  0  0  0  0  0
   49.3640   19.2602  -13.9460 C   0  0  0  0  0  0  0  0  0  0  0  0
   48.9683   17.8847  -13.9859 N   0  0  0  0  0  0  0  0  0  0  0  0
   48.0512   17.5720  -15.0668 C   0  0  0  0  0  0  0  0  0  0  0  0
   47.0907   16.4574  -14.6393 C   0  0  0  0  0  0  0  0  0  0  0  0
   46.1011   16.9639  -13.7003 N   0  0  0  0  0  0  0  0  0  0  0  0
   46.8459   17.8567  -12.7960 C   0  0  0  0  0  0  0  0  0  0  0  0
   48.3197   17.4851  -12.7630 C   0  0  0  0  0  0  0  0  0  0  0  0
   35.0245   12.3537  -14.9608 C   0  0  0  0  0  0  0  0  0  0  0  0
   33.6458   12.1861  -14.6991 N   0  0  0  0  0  0  0  0  0  0  0  0
   35.5759   11.7525  -15.8849 O   0  0  0  0  0  0  0  0  0  0  0  0
   33.2086   11.2693  -14.4829 H   0  0  0  0  0  0  0  0  0  0  0  0
   33.0308   13.0224  -14.7226 H   0  0  0  0  0  0  0  0  0  0  0  0
   39.8700   13.6126  -14.5808 N   0  0  0  0  0  0  0  0  0  0  0  0
   40.0498   12.5829  -14.3037 H   0  0  0  0  0  0  0  0  0  0  0  0
   40.2919   13.9716  -15.8938 C   0  0  0  0  0  0  0  0  0  0  0  0
   39.9653   12.8750  -16.8697 C   0  0  0  0  0  0  0  0  0  0  0  0
   39.0043   11.9183  -16.6364 C   0  0  0  0  0  0  0  0  0  0  0  0
   38.7369   10.9191  -17.5732 C   0  0  0  0  0  0  0  0  0  0  0  0
   39.4511   10.8968  -18.7490 C   0  0  0  0  0  0  0  0  0  0  0  0
   40.3999   11.8416  -18.9789 N   0  0  0  0  0  0  0  0  0  0  0  0
   40.6573   12.8173  -18.0583 C   0  0  0  0  0  0  0  0  0  0  0  0
 18 19  1  0  0  0
 19 20  1  0  0  0
 20 21  1  0  0  0
 21 22  1  0  0  0
 22 17  1  0  0  0
 17 11  1  0  0  0
 11 12  2  0  0  0
 12 13  1  0  0  0
 13 14  2  0  0  0
 14 15  1  0  0  0
 15 16  2  0  0  0
 14  1  1  0  0  0
  1  2  2  0  0  0
  2  3  1  0  0  0
  3  4  2  0  0  0
  4  5  1  0  0  0
  5  6  2  0  0  0
  6  7  1  0  0  0
  7  8  2  0  0  0
  8  9  1  0  0  0
  9 10  2  0  0  0
 10 30  1  0  0  0
 30 32  1  0  0  0
 32 33  1  0  0  0
 33 34  2  0  0  0
 34 35  1  0  0  0
 35 36  2  0  0  0
 36 37  1  0  0  0
 37 38  2  0  0  0
  7 25  1  0  0  0
 25 26  1  0  0  0
 25 27  2  0  0  0
 22 23  1  0  0  0
 23 24  1  0  0  0
 24 19  1  0  0  0
 16 11  1  0  0  0
 10  1  1  0  0  0
 38 33  1  0  0  0
  9  4  1  0  0  0
 30 31  1  0  0  0
 26 28  1  0  0  0
 26 29  1  0  0  0
M  END
> <minimizedAffinity>
-8.48452

> <CNNscore>
0.5643386841

> <CNNaffinity>
7.0400152206

> <CNN_VS>
3.9729528427

> <CNNaffinity_variance>
0.0570333675

$$$$
[H]c1nc([H])c(C([H])([H])N([H])c2c(-c3c([H])c([H])c(C([H])([H])N4C([H])([H])C([H])([H])N(C([H])([H])[H])C([H])([H])C4([H])[H])c([H])c3[H])c([H])nc3c([H])c([H])c(C(=O)N([H])[H])c([H])c23)c([H])c1[H]


 38 42  0  0  0  0  0  0  0  0999 V2000
   39.6342   13.0968  -15.1775 C   0  0  0  0  0  0  0  0  0  0  0  0
   40.2377   12.3808  -16.2433 C   0  0  0  0  0  0  0  0  0  0  0  0
   39.4488   11.6319  -17.0229 N   0  0  0  0  0  0  0  0  0  0  0  0
   38.1224   11.5412  -16.8279 C   0  0  0  0  0  0  0  0  0  0  0  0
   37.4003   10.7469  -17.6963 C   0  0  0  0  0  0  0  0  0  0  0  0
   36.0430   10.6808  -17.4775 C   0  0  0  0  0  0  0  0  0  0  0  0
   35.3977   11.3495  -16.4658 C   0  0  0  0  0  0  0  0  0  0  0  0
   36.1698   12.1365  -15.6177 C   0  0  0  0  0  0  0  0  0  0  0  0
   37.5252   12.2314  -15.7973 C   0  0  0  0  0  0  0  0  0  0  0  0
   38.3039   13.0293  -14.9502 C   0  0  0  0  0  0  0  0  0  0  0  0
   42.2363   15.4050  -12.6924 C   0  0  0  0  0  0  0  0  0  0  0  0
   42.6767   14.2497  -13.3214 C   0  0  0  0  0  0  0  0  0  0  0  0
   41.8409   13.5165  -14.1334 C   0  0  0  0  0  0  0  0  0  0  0  0
   40.5119   13.8983  -14.3635 C   0  0  0  0  0  0  0  0  0  0  0  0
   40.0948   15.0294  -13.7415 C   0  0  0  0  0  0  0  0  0  0  0  0
   40.9329   15.7871  -12.9124 C   0  0  0  0  0  0  0  0  0  0  0  0
   43.1805   16.1704  -11.8299 C   0  0  0  0  0  0  0  0  0  0  0  0
   47.4657   18.7515  -13.0414 C   0  0  0  0  0  0  0  0  0  0  0  0
   46.5762   18.3486  -11.9943 N   0  0  0  0  0  0  0  0  0  0  0  0
   46.7369   16.9629  -11.5925 C   0  0  0  0  0  0  0  0  0  0  0  0
   45.3903   16.3816  -11.1494 C   0  0  0  0  0  0  0  0  0  0  0  0
   44.5314   16.1404  -12.2991 N   0  0  0  0  0  0  0  0  0  0  0  0
   44.7216   17.3078  -13.1769 C   0  0  0  0  0  0  0  0  0  0  0  0
   45.1974   18.5115  -12.3795 C   0  0  0  0  0  0  0  0  0  0  0  0
   33.9496   11.2458  -16.2779 C   0  0  0  0  0  0  0  0  0  0  0  0
   33.4246   11.4633  -14.9838 N   0  0  0  0  0  0  0  0  0  0  0  0
   33.2123   10.9754  -17.2280 O   0  0  0  0  0  0  0  0  0  0  0  0
   32.8640   10.7600  -14.4648 H   0  0  0  0  0  0  0  0  0  0  0  0
   33.6064   12.3750  -14.5212 H   0  0  0  0  0  0  0  0  0  0  0  0
   37.6482   13.6984  -13.9299 N   0  0  0  0  0  0  0  0  0  0  0  0
   37.4049   14.7273  -14.1570 H   0  0  0  0  0  0  0  0  0  0  0  0
   37.2465   13.2494  -12.6384 C   0  0  0  0  0  0  0  0  0  0  0  0
   36.8650   14.4167  -11.7705 C   0  0  0  0  0  0  0  0  0  0  0  0
   37.7383   15.0279  -10.9004 C   0  0  0  0  0  0  0  0  0  0  0  0
   37.3374   16.1090  -10.1145 C   0  0  0  0  0  0  0  0  0  0  0  0
   36.0439   16.5665  -10.2170 C   0  0  0  0  0  0  0  0  0  0  0  0
   35.1819   15.9628  -11.0761 N   0  0  0  0  0  0  0  0  0  0  0  0
   35.5799   14.9049  -11.8430 C   0  0  0  0  0  0  0  0  0  0  0  0
 18 19  1  0  0  0
 19 20  1  0  0  0
 20 21  1  0  0  0
 21 22  1  0  0  0
 22 17  1  0  0  0
 17 11  1  0  0  0
 11 12  2  0  0  0
 12 13  1  0  0  0
 13 14  2  0  0  0
 14 15  1  0  0  0
 15 16  2  0  0  0
 14  1  1  0  0  0
  1  2  2  0  0  0
  2  3  1  0  0  0
  3  4  2  0  0  0
  4  5  1  0  0  0
  5  6  2  0  0  0
  6  7  1  0  0  0
  7  8  2  0  0  0
  8  9  1  0  0  0
  9 10  2  0  0  0
 10 30  1  0  0  0
 30 32  1  0  0  0
 32 33  1  0  0  0
 33 34  2  0  0  0
 34 35  1  0  0  0
 35 36  2  0  0  0
 36 37  1  0  0  0
 37 38  2  0  0  0
  7 25  1  0  0  0
 25 26  1  0  0  0
 25 27  2  0  0  0
 22 23  1  0  0  0
 23 24  1  0  0  0
 24 19  1  0  0  0
 16 11  1  0  0  0
 10  1  1  0  0  0
 38 33  1  0  0  0
  9  4  1  0  0  0
 30 31  1  0  0  0
 26 28  1  0  0  0
 26 29  1  0  0  0
M  END
> <minimizedAffinity>
-9.64141

> <CNNscore>
0.5259816051

> <CNNaffinity>
7.2292418480

> <CNN_VS>
3.8024482727

> <CNNaffinity_variance>
0.1247960329

$$$$
[H]c1nc([H])c(C([H])([H])N([H])c2c(-c3c([H])c([H])c(C([H])([H])N4C([H])([H])C([H])([H])N(C([H])([H])[H])C([H])([H])C4([H])[H])c([H])c3[H])c([H])nc3c([H])c([H])c(C(=O)N([H])[H])c([H])c23)c([H])c1[H]


 38 42  0  0  0  0  0  0  0  0999 V2000
   36.0618   13.1072  -13.9894 C   0  0  0  0  0  0  0  0  0  0  0  0
   34.9625   12.4606  -14.6110 C   0  0  0  0  0  0  0  0  0  0  0  0
   35.1908   11.7809  -15.7411 N   0  0  0  0  0  0  0  0  0  0  0  0
   36.4124   11.6948  -16.2941 C   0  0  0  0  0  0  0  0  0  0  0  0
   36.5387   10.9609  -17.4567 C   0  0  0  0  0  0  0  0  0  0  0  0
   37.8032   10.8828  -17.9948 C   0  0  0  0  0  0  0  0  0  0  0  0
   38.9081   11.4838  -17.4424 C   0  0  0  0  0  0  0  0  0  0  0  0
   38.7284   12.2122  -16.2711 C   0  0  0  0  0  0  0  0  0  0  0  0
   37.4869   12.3178  -15.7002 C   0  0  0  0  0  0  0  0  0  0  0  0
   37.3042   13.0435  -14.5167 C   0  0  0  0  0  0  0  0  0  0  0  0
   35.2518   15.3160  -10.4201 C   0  0  0  0  0  0  0  0  0  0  0  0
   34.4017   15.3768  -11.5147 C   0  0  0  0  0  0  0  0  0  0  0  0
   34.6571   14.6526  -12.6574 C   0  0  0  0  0  0  0  0  0  0  0  0
   35.7813   13.8230  -12.7711 C   0  0  0  0  0  0  0  0  0  0  0  0
   36.6038   13.7739  -11.6935 C   0  0  0  0  0  0  0  0  0  0  0  0
   36.3581   14.5043  -10.5231 C   0  0  0  0  0  0  0  0  0  0  0  0
   34.9290   16.1111   -9.2015 C   0  0  0  0  0  0  0  0  0  0  0  0
   37.4689   19.2546   -6.0140 C   0  0  0  0  0  0  0  0  0  0  0  0
   36.2914   18.4662   -6.2183 N   0  0  0  0  0  0  0  0  0  0  0  0
   36.5047   17.0412   -6.0417 C   0  0  0  0  0  0  0  0  0  0  0  0
   35.5874   16.2493   -6.9793 C   0  0  0  0  0  0  0  0  0  0  0  0
   36.0586   16.3361   -8.3534 N   0  0  0  0  0  0  0  0  0  0  0  0
   36.4752   17.7374   -8.5327 C   0  0  0  0  0  0  0  0  0  0  0  0
   35.7588   18.6445   -7.5452 C   0  0  0  0  0  0  0  0  0  0  0  0
   40.2325   11.3679  -18.0553 C   0  0  0  0  0  0  0  0  0  0  0  0
   41.3236   12.0006  -17.4175 N   0  0  0  0  0  0  0  0  0  0  0  0
   40.3857   10.7334  -19.1010 O   0  0  0  0  0  0  0  0  0  0  0  0
   41.9175   12.7204  -17.8728 H   0  0  0  0  0  0  0  0  0  0  0  0
   41.5486   11.7351  -16.4391 H   0  0  0  0  0  0  0  0  0  0  0  0
   38.4213   13.6501  -13.9664 N   0  0  0  0  0  0  0  0  0  0  0  0
   38.9118   13.0667  -13.1992 H   0  0  0  0  0  0  0  0  0  0  0  0
   39.0221   14.9112  -14.2486 C   0  0  0  0  0  0  0  0  0  0  0  0
   40.3538   15.0258  -13.5595 C   0  0  0  0  0  0  0  0  0  0  0  0
   40.6158   15.9469  -12.5715 C   0  0  0  0  0  0  0  0  0  0  0  0
   41.8688   16.0153  -11.9610 C   0  0  0  0  0  0  0  0  0  0  0  0
   42.8549   15.1425  -12.3595 C   0  0  0  0  0  0  0  0  0  0  0  0
   42.5958   14.2331  -13.3350 N   0  0  0  0  0  0  0  0  0  0  0  0
   41.3674   14.1708  -13.9290 C   0  0  0  0  0  0  0  0  0  0  0  0
 18 19  1  0  0  0
 19 20  1  0  0  0
 20 21  1  0  0  0
 21 22  1  0  0  0
 22 17  1  0  0  0
 17 11  1  0  0  0
 11 12  2  0  0  0
 12 13  1  0  0  0
 13 14  2  0  0  0
 14 15  1  0  0  0
 15 16  2  0  0  0
 14  1  1  0  0  0
  1  2  2  0  0  0
  2  3  1  0  0  0
  3  4  2  0  0  0
  4  5  1  0  0  0
  5  6  2  0  0  0
  6  7  1  0  0  0
  7  8  2  0  0  0
  8  9  1  0  0  0
  9 10  2  0  0  0
 10 30  1  0  0  0
 30 32  1  0  0  0
 32 33  1  0  0  0
 33 34  2  0  0  0
 34 35  1  0  0  0
 35 36  2  0  0  0
 36 37  1  0  0  0
 37 38  2  0  0  0
  7 25  1  0  0  0
 25 26  1  0  0  0
 25 27  2  0  0  0
 22 23  1  0  0  0
 23 24  1  0  0  0
 24 19  1  0  0  0
 16 11  1  0  0  0
 10  1  1  0  0  0
 38 33  1  0  0  0
  9  4  1  0  0  0
 30 31  1  0  0  0
 26 28  1  0  0  0
 26 29  1  0  0  0
M  END
> <minimizedAffinity>
-9.36184

> <CNNscore>
0.4986431301

> <CNNaffinity>
7.0361595154

> <CNN_VS>
3.5085325241

> <CNNaffinity_variance>
0.0600388162

$$$$
[H]c1nc([H])c(C([H])([H])N([H])c2c(-c3c([H])c([H])c(C([H])([H])N4C([H])([H])C([H])([H])N(C([H])([H])[H])C([H])([H])C4([H])[H])c([H])c3[H])c([H])nc3c([H])c([H])c(C(=O)N([H])[H])c([H])c23)c([H])c1[H]


 38 42  0  0  0  0  0  0  0  0999 V2000
   35.9856   13.1253  -14.0008 C   0  0  0  0  0  0  0  0  0  0  0  0
   34.8969   12.4768  -14.6387 C   0  0  0  0  0  0  0  0  0  0  0  0
   35.1439   11.7943  -15.7632 N   0  0  0  0  0  0  0  0  0  0  0  0
   36.3745   11.7071  -16.2957 C   0  0  0  0  0  0  0  0  0  0  0  0
   36.5201   10.9702  -17.4543 C   0  0  0  0  0  0  0  0  0  0  0  0
   37.7933   10.8910  -17.9712 C   0  0  0  0  0  0  0  0  0  0  0  0
   38.8888   11.4937  -17.4022 C   0  0  0  0  0  0  0  0  0  0  0  0
   38.6897   12.2251  -16.2359 C   0  0  0  0  0  0  0  0  0  0  0  0
   37.4389   12.3318  -15.6859 C   0  0  0  0  0  0  0  0  0  0  0  0
   37.2366   13.0605  -14.5074 C   0  0  0  0  0  0  0  0  0  0  0  0
   35.1180   15.3429  -10.4505 C   0  0  0  0  0  0  0  0  0  0  0  0
   34.2964   15.4163  -11.5658 C   0  0  0  0  0  0  0  0  0  0  0  0
   34.5699   14.6894  -12.7026 C   0  0  0  0  0  0  0  0  0  0  0  0
   35.6849   13.8442  -12.7892 C   0  0  0  0  0  0  0  0  0  0  0  0
   36.4796   13.7828  -11.6914 C   0  0  0  0  0  0  0  0  0  0  0  0
   36.2151   14.5158  -10.5268 C   0  0  0  0  0  0  0  0  0  0  0  0
   34.7761   16.1416   -9.2396 C   0  0  0  0  0  0  0  0  0  0  0  0
   33.2629   15.5005   -4.3618 C   0  0  0  0  0  0  0  0  0  0  0  0
   33.2446   16.3559   -5.5099 N   0  0  0  0  0  0  0  0  0  0  0  0
   32.3221   15.9249   -6.5446 C   0  0  0  0  0  0  0  0  0  0  0  0
   32.8672   16.2975   -7.9272 C   0  0  0  0  0  0  0  0  0  0  0  0
   33.9741   15.4274   -8.2948 N   0  0  0  0  0  0  0  0  0  0  0  0
   34.7702   15.2723   -7.0653 C   0  0  0  0  0  0  0  0  0  0  0  0
   34.5448   16.4448   -6.1242 C   0  0  0  0  0  0  0  0  0  0  0  0
   40.2232   11.3766  -17.9929 C   0  0  0  0  0  0  0  0  0  0  0  0
   41.3080   11.9873  -17.3237 N   0  0  0  0  0  0  0  0  0  0  0  0
   40.3898   10.7599  -19.0470 O   0  0  0  0  0  0  0  0  0  0  0  0
   41.9167   12.7097  -17.7548 H   0  0  0  0  0  0  0  0  0  0  0  0
   41.5126   11.7019  -16.3465 H   0  0  0  0  0  0  0  0  0  0  0  0
   38.3444   13.6688  -13.9402 N   0  0  0  0  0  0  0  0  0  0  0  0
   38.7079   13.1845  -13.0443 H   0  0  0  0  0  0  0  0  0  0  0  0
   39.0753   14.8226  -14.3471 C   0  0  0  0  0  0  0  0  0  0  0  0
   40.4757   14.7781  -13.8009 C   0  0  0  0  0  0  0  0  0  0  0  0
   41.4009   13.8295  -14.1717 C   0  0  0  0  0  0  0  0  0  0  0  0
   42.6896   13.8289  -13.6364 C   0  0  0  0  0  0  0  0  0  0  0  0
   43.0340   14.7976  -12.7220 C   0  0  0  0  0  0  0  0  0  0  0  0
   42.1202   15.7340  -12.3562 N   0  0  0  0  0  0  0  0  0  0  0  0
   40.8602   15.7296  -12.8835 C   0  0  0  0  0  0  0  0  0  0  0  0
 18 19  1  0  0  0
 19 20  1  0  0  0
 20 21  1  0  0  0
 21 22  1  0  0  0
 22 17  1  0  0  0
 17 11  1  0  0  0
 11 12  2  0  0  0
 12 13  1  0  0  0
 13 14  2  0  0  0
 14 15  1  0  0  0
 15 16  2  0  0  0
 14  1  1  0  0  0
  1  2  2  0  0  0
  2  3  1  0  0  0
  3  4  2  0  0  0
  4  5  1  0  0  0
  5  6  2  0  0  0
  6  7  1  0  0  0
  7  8  2  0  0  0
  8  9  1  0  0  0
  9 10  2  0  0  0
 10 30  1  0  0  0
 30 32  1  0  0  0
 32 33  1  0  0  0
 33 34  2  0  0  0
 34 35  1  0  0  0
 35 36  2  0  0  0
 36 37  1  0  0  0
 37 38  2  0  0  0
  7 25  1  0  0  0
 25 26  1  0  0  0
 25 27  2  0  0  0
 22 23  1  0  0  0
 23 24  1  0  0  0
 24 19  1  0  0  0
 16 11  1  0  0  0
 10  1  1  0  0  0
 38 33  1  0  0  0
  9  4  1  0  0  0
 30 31  1  0  0  0
 26 28  1  0  0  0
 26 29  1  0  0  0
M  END
> <minimizedAffinity>
-9.50794

> <CNNscore>
0.4163181782

> <CNNaffinity>
6.9842276573

> <CNN_VS>
2.9076609612

> <CNNaffinity_variance>
0.0872167051

$$$$
[H]c1nc([H])c(C([H])([H])N([H])c2c(-c3c([H])c([H])c(C([H])([H])N4C([H])([H])C([H])([H])N(C([H])([H])[H])C([H])([H])C4([H])[H])c([H])c3[H])c([H])nc3c([H])c([H])c(C(=O)N([H])[H])c([H])c23)c([H])c1[H]


 38 42  0  0  0  0  0  0  0  0999 V2000
   38.4782   14.8033  -12.6929 C   0  0  0  0  0  0  0  0  0  0  0  0
   39.7433   15.4451  -12.6760 C   0  0  0  0  0  0  0  0  0  0  0  0
   40.6369   15.0965  -13.6094 N   0  0  0  0  0  0  0  0  0  0  0  0
   40.3732   14.1710  -14.5472 C   0  0  0  0  0  0  0  0  0  0  0  0
   41.3633   13.8927  -15.4684 C   0  0  0  0  0  0  0  0  0  0  0  0
   41.0612   12.9474  -16.4222 C   0  0  0  0  0  0  0  0  0  0  0  0
   39.8565   12.2912  -16.4942 C   0  0  0  0  0  0  0  0  0  0  0  0
   38.8921   12.6068  -15.5429 C   0  0  0  0  0  0  0  0  0  0  0  0
   39.1493   13.5414  -14.5739 C   0  0  0  0  0  0  0  0  0  0  0  0
   38.1776   13.8672  -13.6199 C   0  0  0  0  0  0  0  0  0  0  0  0
   35.6526   15.9134   -9.6832 C   0  0  0  0  0  0  0  0  0  0  0  0
   36.7243   15.0811   -9.3947 C   0  0  0  0  0  0  0  0  0  0  0  0
   37.6413   14.7375  -10.3624 C   0  0  0  0  0  0  0  0  0  0  0  0
   37.5386   15.2082  -11.6788 C   0  0  0  0  0  0  0  0  0  0  0  0
   36.4855   16.0203  -11.9465 C   0  0  0  0  0  0  0  0  0  0  0  0
   35.5437   16.3800  -10.9731 C   0  0  0  0  0  0  0  0  0  0  0  0
   34.6907   16.2649   -8.6004 C   0  0  0  0  0  0  0  0  0  0  0  0
   33.5778   15.5565   -3.6252 C   0  0  0  0  0  0  0  0  0  0  0  0
   33.0830   15.5386   -4.9686 N   0  0  0  0  0  0  0  0  0  0  0  0
   33.4858   14.3661   -5.7238 C   0  0  0  0  0  0  0  0  0  0  0  0
   33.6585   14.7241   -7.2035 C   0  0  0  0  0  0  0  0  0  0  0  0
   34.8735   15.4989   -7.4064 N   0  0  0  0  0  0  0  0  0  0  0  0
   34.9241   16.4434   -6.2773 C   0  0  0  0  0  0  0  0  0  0  0  0
   33.5333   16.6867   -5.7137 C   0  0  0  0  0  0  0  0  0  0  0  0
   39.5858   11.2940  -17.5313 C   0  0  0  0  0  0  0  0  0  0  0  0
   40.3971   11.2940  -18.6887 N   0  0  0  0  0  0  0  0  0  0  0  0
   38.6723   10.4782  -17.3929 O   0  0  0  0  0  0  0  0  0  0  0  0
   40.0258   11.4110  -19.6514 H   0  0  0  0  0  0  0  0  0  0  0  0
   41.4220   11.1706  -18.5765 H   0  0  0  0  0  0  0  0  0  0  0  0
   36.9661   13.1998  -13.6955 N   0  0  0  0  0  0  0  0  0  0  0  0
   36.9764   12.2088  -13.2626 H   0  0  0  0  0  0  0  0  0  0  0  0
   35.7182   13.6087  -14.2489 C   0  0  0  0  0  0  0  0  0  0  0  0
   35.1562   12.5303  -15.1337 C   0  0  0  0  0  0  0  0  0  0  0  0
   35.8104   12.0472  -16.2436 C   0  0  0  0  0  0  0  0  0  0  0  0
   35.2477   11.0449  -17.0349 C   0  0  0  0  0  0  0  0  0  0  0  0
   34.0163   10.5354  -16.6926 C   0  0  0  0  0  0  0  0  0  0  0  0
   33.3707   11.0127  -15.5966 N   0  0  0  0  0  0  0  0  0  0  0  0
   33.9264   11.9939  -14.8258 C   0  0  0  0  0  0  0  0  0  0  0  0
 18 19  1  0  0  0
 19 20  1  0  0  0
 20 21  1  0  0  0
 21 22  1  0  0  0
 22 17  1  0  0  0
 17 11  1  0  0  0
 11 12  2  0  0  0
 12 13  1  0  0  0
 13 14  2  0  0  0
 14 15  1  0  0  0
 15 16  2  0  0  0
 14  1  1  0  0  0
  1  2  2  0  0  0
  2  3  1  0  0  0
  3  4  2  0  0  0
  4  5  1  0  0  0
  5  6  2  0  0  0
  6  7  1  0  0  0
  7  8  2  0  0  0
  8  9  1  0  0  0
  9 10  2  0  0  0
 10 30  1  0  0  0
 30 32  1  0  0  0
 32 33  1  0  0  0
 33 34  2  0  0  0
 34 35  1  0  0  0
 35 36  2  0  0  0
 36 37  1  0  0  0
 37 38  2  0  0  0
  7 25  1  0  0  0
 25 26  1  0  0  0
 25 27  2  0  0  0
 22 23  1  0  0  0
 23 24  1  0  0  0
 24 19  1  0  0  0
 16 11  1  0  0  0
 10  1  1  0  0  0
 38 33  1  0  0  0
  9  4  1  0  0  0
 30 31  1  0  0  0
 26 28  1  0  0  0
 26 29  1  0  0  0
M  END
> <minimizedAffinity>
-9.45408

> <CNNscore>
0.3845131993

> <CNNaffinity>
6.8319368362

> <CNN_VS>
2.6269698143

> <CNNaffinity_variance>
0.0657980591

$$$$
[H]c1nc([H])c(C([H])([H])N([H])c2c(-c3c([H])c([H])c(C([H])([H])N4C([H])([H])C([H])([H])N(C([H])([H])[H])C([H])([H])C4([H])[H])c([H])c3[H])c([H])nc3c([H])c([H])c(C(=O)N([H])[H])c([H])c23)c([H])c1[H]


 38 42  0  0  0  0  0  0  0  0999 V2000
   36.2388   13.1923  -13.9106 C   0  0  0  0  0  0  0  0  0  0  0  0
   35.0856   12.6059  -14.4931 C   0  0  0  0  0  0  0  0  0  0  0  0
   35.2358   11.9271  -15.6367 N   0  0  0  0  0  0  0  0  0  0  0  0
   36.4291   11.7872  -16.2385 C   0  0  0  0  0  0  0  0  0  0  0  0
   36.4736   11.0594  -17.4110 C   0  0  0  0  0  0  0  0  0  0  0  0
   37.7106   10.9253  -17.9995 C   0  0  0  0  0  0  0  0  0  0  0  0
   38.8644   11.4664  -17.4867 C   0  0  0  0  0  0  0  0  0  0  0  0
   38.7667   12.1912  -16.3034 C   0  0  0  0  0  0  0  0  0  0  0  0
   37.5552   12.3513  -15.6829 C   0  0  0  0  0  0  0  0  0  0  0  0
   37.4549   13.0734  -14.4874 C   0  0  0  0  0  0  0  0  0  0  0  0
   35.6281   15.2339  -10.2048 C   0  0  0  0  0  0  0  0  0  0  0  0
   36.7078   14.3828  -10.3901 C   0  0  0  0  0  0  0  0  0  0  0  0
   36.9104   13.7383  -11.5897 C   0  0  0  0  0  0  0  0  0  0  0  0
   36.0417   13.9088  -12.6765 C   0  0  0  0  0  0  0  0  0  0  0  0
   34.9902   14.7433  -12.4807 C   0  0  0  0  0  0  0  0  0  0  0  0
   34.7700   15.4070  -11.2664 C   0  0  0  0  0  0  0  0  0  0  0  0
   35.4552   15.9165   -8.8912 C   0  0  0  0  0  0  0  0  0  0  0  0
   37.0746   20.1969   -6.5357 C   0  0  0  0  0  0  0  0  0  0  0  0
   37.4450   18.9222   -7.0723 N   0  0  0  0  0  0  0  0  0  0  0  0
   37.5272   18.9002   -8.5215 C   0  0  0  0  0  0  0  0  0  0  0  0
   37.1266   17.5199   -9.0526 C   0  0  0  0  0  0  0  0  0  0  0  0
   35.6882   17.3266   -8.9478 N   0  0  0  0  0  0  0  0  0  0  0  0
   35.3155   17.8902   -7.6390 C   0  0  0  0  0  0  0  0  0  0  0  0
   36.5067   17.8962   -6.6944 C   0  0  0  0  0  0  0  0  0  0  0  0
   40.1565   11.2923  -18.1526 C   0  0  0  0  0  0  0  0  0  0  0  0
   41.3019   11.8624  -17.5520 N   0  0  0  0  0  0  0  0  0  0  0  0
   40.2368   10.6637  -19.2098 O   0  0  0  0  0  0  0  0  0  0  0  0
   41.9129   12.5573  -18.0231 H   0  0  0  0  0  0  0  0  0  0  0  0
   41.5513   11.5743  -16.5860 H   0  0  0  0  0  0  0  0  0  0  0  0
   38.6212   13.6196  -13.9770 N   0  0  0  0  0  0  0  0  0  0  0  0
   39.1798   12.9538  -13.3335 H   0  0  0  0  0  0  0  0  0  0  0  0
   39.1971   14.9096  -14.1641 C   0  0  0  0  0  0  0  0  0  0  0  0
   40.5938   14.9481  -13.6083 C   0  0  0  0  0  0  0  0  0  0  0  0
   41.5543   14.0115  -13.9145 C   0  0  0  0  0  0  0  0  0  0  0  0
   42.8381   14.0892  -13.3729 C   0  0  0  0  0  0  0  0  0  0  0  0
   43.1414   15.1238  -12.5182 C   0  0  0  0  0  0  0  0  0  0  0  0
   42.1929   16.0483  -12.2161 N   0  0  0  0  0  0  0  0  0  0  0  0
   40.9379   15.9672  -12.7492 C   0  0  0  0  0  0  0  0  0  0  0  0
 18 19  1  0  0  0
 19 20  1  0  0  0
 20 21  1  0  0  0
 21 22  1  0  0  0
 22 17  1  0  0  0
 17 11  1  0  0  0
 11 12  2  0  0  0
 12 13  1  0  0  0
 13 14  2  0  0  0
 14 15  1  0  0  0
 15 16  2  0  0  0
 14  1  1  0  0  0
  1  2  2  0  0  0
  2  3  1  0  0  0
  3  4  2  0  0  0
  4  5  1  0  0  0
  5  6  2  0  0  0
  6  7  1  0  0  0
  7  8  2  0  0  0
  8  9  1  0  0  0
  9 10  2  0  0  0
 10 30  1  0  0  0
 30 32  1  0  0  0
 32 33  1  0  0  0
 33 34  2  0  0  0
 34 35  1  0  0  0
 35 36  2  0  0  0
 36 37  1  0  0  0
 37 38  2  0  0  0
  7 25  1  0  0  0
 25 26  1  0  0  0
 25 27  2  0  0  0
 22 23  1  0  0  0
 23 24  1  0  0  0
 24 19  1  0  0  0
 16 11  1  0  0  0
 10  1  1  0  0  0
 38 33  1  0  0  0
  9  4  1  0  0  0
 30 31  1  0  0  0
 26 28  1  0  0  0
 26 29  1  0  0  0
M  END
> <minimizedAffinity>
-9.05485

> <CNNscore>
0.3615768254

> <CNNaffinity>
6.8467087746

> <CNN_VS>
2.4756112099

> <CNNaffinity_variance>
0.1011711806

$$$$
[H]c1nc([H])c(C([H])([H])N([H])c2c(-c3c([H])c([H])c(C([H])([H])N4C([H])([H])C([H])([H])N(C([H])([H])[H])C([H])([H])C4([H])[H])c([H])c3[H])c([H])nc3c([H])c([H])c(C(=O)N([H])[H])c([H])c23)c([H])c1[H]


 38 42  0  0  0  0  0  0  0  0999 V2000
   40.0856   14.6004  -13.4418 C   0  0  0  0  0  0  0  0  0  0  0  0
   41.4943   14.6805  -13.5910 C   0  0  0  0  0  0  0  0  0  0  0  0
   42.0564   14.0199  -14.6102 N   0  0  0  0  0  0  0  0  0  0  0  0
   41.3355   13.2951  -15.4823 C   0  0  0  0  0  0  0  0  0  0  0  0
   42.0150   12.6600  -16.5027 C   0  0  0  0  0  0  0  0  0  0  0  0
   41.2493   11.9329  -17.3857 C   0  0  0  0  0  0  0  0  0  0  0  0
   39.8834   11.8164  -17.2978 C   0  0  0  0  0  0  0  0  0  0  0  0
   39.2457   12.4749  -16.2516 C   0  0  0  0  0  0  0  0  0  0  0  0
   39.9681   13.2099  -15.3481 C   0  0  0  0  0  0  0  0  0  0  0  0
   39.3282   13.8807  -14.2986 C   0  0  0  0  0  0  0  0  0  0  0  0
   38.4305   16.7003  -10.1064 C   0  0  0  0  0  0  0  0  0  0  0  0
   39.7880   16.7487  -10.3877 C   0  0  0  0  0  0  0  0  0  0  0  0
   40.3161   16.0837  -11.4714 C   0  0  0  0  0  0  0  0  0  0  0  0
   39.5137   15.3296  -12.3389 C   0  0  0  0  0  0  0  0  0  0  0  0
   38.1886   15.2907  -12.0511 C   0  0  0  0  0  0  0  0  0  0  0  0
   37.6353   15.9620  -10.9526 C   0  0  0  0  0  0  0  0  0  0  0  0
   37.9036   17.4439   -8.9271 C   0  0  0  0  0  0  0  0  0  0  0  0
   37.3669   15.2783   -4.2886 C   0  0  0  0  0  0  0  0  0  0  0  0
   37.4039   16.5008   -5.0331 N   0  0  0  0  0  0  0  0  0  0  0  0
   36.1861   16.7690   -5.7764 C   0  0  0  0  0  0  0  0  0  0  0  0
   36.5118   17.5222   -7.0704 C   0  0  0  0  0  0  0  0  0  0  0  0
   37.1271   16.6312   -8.0425 N   0  0  0  0  0  0  0  0  0  0  0  0
   38.0639   15.7995   -7.2678 C   0  0  0  0  0  0  0  0  0  0  0  0
   38.4825   16.5060   -5.9884 C   0  0  0  0  0  0  0  0  0  0  0  0
   39.1156   11.0307  -18.2656 C   0  0  0  0  0  0  0  0  0  0  0  0
   39.6091   10.9265  -19.5859 N   0  0  0  0  0  0  0  0  0  0  0  0
   38.0665   10.4767  -17.9313 O   0  0  0  0  0  0  0  0  0  0  0  0
   39.0768   11.2294  -20.4245 H   0  0  0  0  0  0  0  0  0  0  0  0
   40.5559   10.5259  -19.7318 H   0  0  0  0  0  0  0  0  0  0  0  0
   37.9512   13.7567  -14.2132 N   0  0  0  0  0  0  0  0  0  0  0  0
   37.4020   14.4970  -14.7786 H   0  0  0  0  0  0  0  0  0  0  0  0
   37.1498   12.8156  -13.5040 C   0  0  0  0  0  0  0  0  0  0  0  0
   35.9874   12.3719  -14.3485 C   0  0  0  0  0  0  0  0  0  0  0  0
   36.1333   11.7626  -15.5736 C   0  0  0  0  0  0  0  0  0  0  0  0
   35.0231   11.3686  -16.3216 C   0  0  0  0  0  0  0  0  0  0  0  0
   33.7630   11.5969  -15.8185 C   0  0  0  0  0  0  0  0  0  0  0  0
   33.6194   12.1985  -14.6089 N   0  0  0  0  0  0  0  0  0  0  0  0
   34.7098   12.5820  -13.8811 C   0  0  0  0  0  0  0  0  0  0  0  0
 18 19  1  0  0  0
 19 20  1  0  0  0
 20 21  1  0  0  0
 21 22  1  0  0  0
 22 17  1  0  0  0
 17 11  1  0  0  0
 11 12  2  0  0  0
 12 13  1  0  0  0
 13 14  2  0  0  0
 14 15  1  0  0  0
 15 16  2  0  0  0
 14  1  1  0  0  0
  1  2  2  0  0  0
  2  3  1  0  0  0
  3  4  2  0  0  0
  4  5  1  0  0  0
  5  6  2  0  0  0
  6  7  1  0  0  0
  7  8  2  0  0  0
  8  9  1  0  0  0
  9 10  2  0  0  0
 10 30  1  0  0  0
 30 32  1  0  0  0
 32 33  1  0  0  0
 33 34  2  0  0  0
 34 35  1  0  0  0
 35 36  2  0  0  0
 36 37  1  0  0  0
 37 38  2  0  0  0
  7 25  1  0  0  0
 25 26  1  0  0  0
 25 27  2  0  0  0
 22 23  1  0  0  0
 23 24  1  0  0  0
 24 19  1  0  0  0
 16 11  1  0  0  0
 10  1  1  0  0  0
 38 33  1  0  0  0
  9  4  1  0  0  0
 30 31  1  0  0  0
 26 28  1  0  0  0
 26 29  1  0  0  0
M  END
> <minimizedAffinity>
-9.12621

> <CNNscore>
0.3204186559

> <CNNaffinity>
6.9172468185

> <CNN_VS>
2.2164149284

> <CNNaffinity_variance>
0.0212306064

$$$$
[H]c1nc([H])c(C([H])([H])N([H])c2c(-c3c([H])c([H])c(C([H])([H])N4C([H])([H])C([H])([H])N(C([H])([H])[H])C([H])([H])C4([H])[H])c([H])c3[H])c([H])nc3c([H])c([H])c(C(=O)N([H])[H])c([H])c23)c([H])c1[H]


 38 42  0  0  0  0  0  0  0  0999 V2000
   38.5075   14.7373  -12.6733 C   0  0  0  0  0  0  0  0  0  0  0  0
   39.7756   15.3466  -12.4903 C   0  0  0  0  0  0  0  0  0  0  0  0
   40.7505   15.0393  -13.3543 N   0  0  0  0  0  0  0  0  0  0  0  0
   40.5645   14.1843  -14.3740 C   0  0  0  0  0  0  0  0  0  0  0  0
   41.6354   13.9441  -15.2118 C   0  0  0  0  0  0  0  0  0  0  0  0
   41.4124   13.0713  -16.2524 C   0  0  0  0  0  0  0  0  0  0  0  0
   40.2096   12.4499  -16.4853 C   0  0  0  0  0  0  0  0  0  0  0  0
   39.1618   12.7248  -15.6127 C   0  0  0  0  0  0  0  0  0  0  0  0
   39.3385   13.5869  -14.5620 C   0  0  0  0  0  0  0  0  0  0  0  0
   38.2835   13.8719  -13.6866 C   0  0  0  0  0  0  0  0  0  0  0  0
   35.5035   15.8896   -9.8586 C   0  0  0  0  0  0  0  0  0  0  0  0
   35.5848   16.4824  -11.1102 C   0  0  0  0  0  0  0  0  0  0  0  0
   36.5438   16.0987  -12.0203 C   0  0  0  0  0  0  0  0  0  0  0  0
   37.4798   15.0965  -11.7299 C   0  0  0  0  0  0  0  0  0  0  0  0
   37.3888   14.5263  -10.5023 C   0  0  0  0  0  0  0  0  0  0  0  0
   36.4186   14.9049   -9.5648 C   0  0  0  0  0  0  0  0  0  0  0  0
   34.4423   16.3320   -8.9102 C   0  0  0  0  0  0  0  0  0  0  0  0
   29.5000   15.5915   -7.6782 C   0  0  0  0  0  0  0  0  0  0  0  0
   30.4232   16.2814   -8.5277 N   0  0  0  0  0  0  0  0  0  0  0  0
   30.9638   15.4573   -9.5936 C   0  0  0  0  0  0  0  0  0  0  0  0
   32.3985   15.8867   -9.9177 C   0  0  0  0  0  0  0  0  0  0  0  0
   33.3128   15.4553   -8.8710 N   0  0  0  0  0  0  0  0  0  0  0  0
   32.6007   15.7063   -7.6064 C   0  0  0  0  0  0  0  0  0  0  0  0
   31.5484   16.7889   -7.7845 C   0  0  0  0  0  0  0  0  0  0  0  0
   40.0251   11.5302  -17.6092 C   0  0  0  0  0  0  0  0  0  0  0  0
   38.9587   10.6046  -17.5494 N   0  0  0  0  0  0  0  0  0  0  0  0
   40.7838   11.5669  -18.5800 O   0  0  0  0  0  0  0  0  0  0  0  0
   39.0866    9.5754  -17.6021 H   0  0  0  0  0  0  0  0  0  0  0  0
   37.9913   10.9678  -17.4468 H   0  0  0  0  0  0  0  0  0  0  0  0
   37.0741   13.2398  -13.9245 N   0  0  0  0  0  0  0  0  0  0  0  0
   36.9996   12.2478  -13.5003 H   0  0  0  0  0  0  0  0  0  0  0  0
   35.9215   13.6858  -14.6341 C   0  0  0  0  0  0  0  0  0  0  0  0
   35.2925   12.5455  -15.3861 C   0  0  0  0  0  0  0  0  0  0  0  0
   35.9321   11.8620  -16.3946 C   0  0  0  0  0  0  0  0  0  0  0  0
   35.3064   10.8097  -17.0643 C   0  0  0  0  0  0  0  0  0  0  0  0
   34.0268   10.4549  -16.7040 C   0  0  0  0  0  0  0  0  0  0  0  0
   33.3956   11.1300  -15.7082 N   0  0  0  0  0  0  0  0  0  0  0  0
   34.0130   12.1592  -15.0561 C   0  0  0  0  0  0  0  0  0  0  0  0
 18 19  1  0  0  0
 19 20  1  0  0  0
 20 21  1  0  0  0
 21 22  1  0  0  0
 22 17  1  0  0  0
 17 11  1  0  0  0
 11 12  2  0  0  0
 12 13  1  0  0  0
 13 14  2  0  0  0
 14 15  1  0  0  0
 15 16  2  0  0  0
 14  1  1  0  0  0
  1  2  2  0  0  0
  2  3  1  0  0  0
  3  4  2  0  0  0
  4  5  1  0  0  0
  5  6  2  0  0  0
  6  7  1  0  0  0
  7  8  2  0  0  0
  8  9  1  0  0  0
  9 10  2  0  0  0
 10 30  1  0  0  0
 30 32  1  0  0  0
 32 33  1  0  0  0
 33 34  2  0  0  0
 34 35  1  0  0  0
 35 36  2  0  0  0
 36 37  1  0  0  0
 37 38  2  0  0  0
  7 25  1  0  0  0
 25 26  1  0  0  0
 25 27  2  0  0  0
 22 23  1  0  0  0
 23 24  1  0  0  0
 24 19  1  0  0  0
 16 11  1  0  0  0
 10  1  1  0  0  0
 38 33  1  0  0  0
  9  4  1  0  0  0
 30 31  1  0  0  0
 26 28  1  0  0  0
 26 29  1  0  0  0
M  END
> <minimizedAffinity>
-9.70147

> <CNNscore>
0.3164150119

> <CNNaffinity>
6.9409089088

> <CNN_VS>
2.1962077618

> <CNNaffinity_variance>
0.0792872682

$$$$
